data_image0
_chemical_formula_structural       HPRhSbTb3
_chemical_formula_sum              "H1 P1 Rh1 Sb1 Tb3"
_cell_length_a       5.1505418963656515
_cell_length_b       6.304470772743686
_cell_length_c       7.547918319702148
_cell_angle_alpha    98.6351772658707
_cell_angle_beta     90.48828450234043
_cell_angle_gamma    113.65573930027537

_space_group_name_H-M_alt    "P 1"
_space_group_IT_number       1

loop_
  _space_group_symop_operation_xyz
  'x, y, z'

loop_
  _atom_site_type_symbol
  _atom_site_label
  _atom_site_symmetry_multiplicity
  _atom_site_fract_x
  _atom_site_fract_y
  _atom_site_fract_z
  _atom_site_occupancy
  H   H1        1.0  0.48156318068504333  0.5422711968421936  0.6128343939781189  1.0000
  P   P1        1.0  0.3694227635860443  0.055471494793891914  0.6987783312797546  1.0000
  Rh  Rh1       1.0  0.649073600769043  0.3357170820236206  0.8588424324989319  1.0000
  Sb  Sb1       1.0  0.6931382417678833  0.07684757560491562  0.5127557516098022  1.0000
  Tb  Tb1       1.0  0.8925819396972656  0.7663922905921936  0.19420766830444336  1.0000
  Tb  Tb2       1.0  0.39889365434646606  0.07189931720495224  0.05762718617916107  1.0000
  Tb  Tb3       1.0  0.9731379747390747  0.7087901830673218  0.5609207153320312  1.0000
