data_image0
_chemical_formula_structural       HRu3TbTl2
_chemical_formula_sum              "H1 Ru3 Tb1 Tl2"
_cell_length_a       4.388902099158059
_cell_length_b       4.844101422689393
_cell_length_c       7.3558430671691895
_cell_angle_alpha    91.67081440857463
_cell_angle_beta     88.53299722537916
_cell_angle_gamma    114.93458707037341

_space_group_name_H-M_alt    "P 1"
_space_group_IT_number       1

loop_
  _space_group_symop_operation_xyz
  'x, y, z'

loop_
  _atom_site_type_symbol
  _atom_site_label
  _atom_site_symmetry_multiplicity
  _atom_site_fract_x
  _atom_site_fract_y
  _atom_site_fract_z
  _atom_site_occupancy
  H   H1        1.0  0.47593480348587036  0.6702023148536682  0.26170018315315247  1.0000
  Ru  Ru1       1.0  0.46641427278518677  0.9855163097381592  0.014893660321831707  1.0000
  Ru  Ru2       1.0  0.47377365827560425  0.008997305296361446  0.19769835472106934  1.0000
  Ru  Ru3       1.0  0.756768524646759  0.7559748888015747  0.9323804378509523  1.0000
  Tb  Tb1       1.0  0.3456089198589325  0.2050328105688095  0.6772894859313965  1.0000
  Tl  Tl1       1.0  0.30721786618232727  0.25961774587631226  0.43229690194129944  1.0000
  Tl  Tl2       1.0  0.047909948974847794  0.5803986191749573  0.5141193270683289  1.0000
