data_image0
_chemical_formula_structural       Co3FPt6Te
_chemical_formula_sum              "Co3 F1 Pt6 Te1"
_cell_length_a       5.934003317040274
_cell_length_b       5.758988995684165
_cell_length_c       6.547942638397217
_cell_angle_alpha    96.64220751824796
_cell_angle_beta     86.53041873512583
_cell_angle_gamma    86.32713372282389

_space_group_name_H-M_alt    "P 1"
_space_group_IT_number       1

loop_
  _space_group_symop_operation_xyz
  'x, y, z'

loop_
  _atom_site_type_symbol
  _atom_site_label
  _atom_site_symmetry_multiplicity
  _atom_site_fract_x
  _atom_site_fract_y
  _atom_site_fract_z
  _atom_site_occupancy
  Co  Co1       1.0  0.2725089192390442  0.23482835292816162  0.9711604118347168  1.0000
  Co  Co2       1.0  0.768613874912262  0.9740334153175354  0.6807332634925842  1.0000
  Co  Co3       1.0  0.7619134187698364  0.44260039925575256  0.29483357071876526  1.0000
  F   F1        1.0  0.8009583950042723  0.47218769788742065  0.0039769536815583775  1.0000
  Pt  Pt1       1.0  0.27556687593460083  0.2410992980003357  0.6788567900657654  1.0000
  Pt  Pt2       1.0  0.2991516590118408  0.9076845049858093  0.7322441935539246  1.0000
  Pt  Pt3       1.0  0.8150653243064879  0.20947487652301788  0.42392513155937195  1.0000
  Pt  Pt4       1.0  0.44285678863525385  0.6926488876342773  0.44795161485671997  1.0000
  Pt  Pt5       1.0  0.27562668919563293  0.8145397305488586  0.4969552755355835  1.0000
  Pt  Pt6       1.0  0.780872344970703  0.9053536653518677  0.9140801429748535  1.0000
  Te  Te1       1.0  0.9928482174873351  0.6997682452201843  0.3486155569553375  1.0000
