data_image0
_chemical_formula_structural       BCaCoF2HfPt5
_chemical_formula_sum              "B1 Ca1 Co1 F2 Hf1 Pt5"
_cell_length_a       5.139139568599916
_cell_length_b       5.0802565371548445
_cell_length_c       6.7723002433776855
_cell_angle_alpha    74.38102431229804
_cell_angle_beta     70.97468701876159
_cell_angle_gamma    59.77589256465019

_space_group_name_H-M_alt    "P 1"
_space_group_IT_number       1

loop_
  _space_group_symop_operation_xyz
  'x, y, z'

loop_
  _atom_site_type_symbol
  _atom_site_label
  _atom_site_symmetry_multiplicity
  _atom_site_fract_x
  _atom_site_fract_y
  _atom_site_fract_z
  _atom_site_occupancy
  B   B1        1.0  0.053941428661346436  0.5949093103408813  0.7320886254310608  1.0000
  Ca  Ca1       1.0  0.8060773611068726  0.5335104465484619  0.007688935846090316  1.0000
  Co  Co1       1.0  0.27065691351890564  0.8183310627937317  0.8481400012969971  1.0000
  F   F1        1.0  0.4280364215373993  0.7561700940132141  0.5991211533546448  1.0000
  F   F2        1.0  0.4882374405860901  0.8103470802307129  0.28773319721221924  1.0000
  Hf  Hf1       1.0  0.5466042757034302  0.4889037609100342  0.035229604691267014  1.0000
  Pt  Pt1       1.0  0.4526141285896301  0.2576015591621399  0.01704157143831253  1.0000
  Pt  Pt2       1.0  0.01662513241171837  0.04040138050913811  0.2543315887451172  1.0000
  Pt  Pt3       1.0  0.7229112386703491  0.20252026617527008  0.3964495360851288  1.0000
  Pt  Pt4       1.0  0.008587721735239029  0.8172561526298523  0.9364108443260193  1.0000
  Pt  Pt5       1.0  0.299288809299469  0.3516404628753662  0.35861456394195557  1.0000
