data_image0
_chemical_formula_structural       BCaCoFHfIPt4Zr
_chemical_formula_sum              "B1 Ca1 Co1 F1 Hf1 I1 Pt4 Zr1"
_cell_length_a       4.228068879377864
_cell_length_b       4.160455519913108
_cell_length_c       8.728693962097168
_cell_angle_alpha    91.74121182924341
_cell_angle_beta     87.87040010642652
_cell_angle_gamma    93.03449251135793

_space_group_name_H-M_alt    "P 1"
_space_group_IT_number       1

loop_
  _space_group_symop_operation_xyz
  'x, y, z'

loop_
  _atom_site_type_symbol
  _atom_site_label
  _atom_site_symmetry_multiplicity
  _atom_site_fract_x
  _atom_site_fract_y
  _atom_site_fract_z
  _atom_site_occupancy
  B   B1        1.0  0.4131616950035095  0.638114333152771  0.05055932700634003  1.0000
  Ca  Ca1       1.0  0.9142699837684631  0.9683629274368286  0.03621299937367439  1.0000
  Co  Co1       1.0  0.4145320653915405  0.5199564695358276  0.3058611750602722  1.0000
  F   F1        1.0  0.4233059585094452  0.40942180156707764  0.14088352024555206  1.0000
  Hf  Hf1       1.0  0.9119605422019958  0.7306631207466125  0.9517329335212708  1.0000
  I   I1        1.0  0.9126998782157898  0.1266251802444458  0.5755667090415955  1.0000
  Pt  Pt1       1.0  0.4150370657444  0.9859684705734253  0.6598697304725647  1.0000
  Pt  Pt2       1.0  0.4235377311706543  0.3606392443180084  0.7199508547782899  1.0000
  Pt  Pt3       1.0  0.4268646240234375  0.3015906810760498  0.9356524348258972  1.0000
  Pt  Pt4       1.0  0.41757291555404663  0.45365893840789795  0.32798445224761963  1.0000
  Zr  Zr1       1.0  0.9225533604621887  0.8972920775413513  0.08506570011377335  1.0000
