data_image0
_chemical_formula_structural       BCo3FPt4Rb2
_chemical_formula_sum              "B1 Co3 F1 Pt4 Rb2"
_cell_length_a       5.595134628406403
_cell_length_b       5.6872994241301065
_cell_length_c       7.014078140258789
_cell_angle_alpha    90.69788672358361
_cell_angle_beta     88.21031588053975
_cell_angle_gamma    95.04163359688881

_space_group_name_H-M_alt    "P 1"
_space_group_IT_number       1

loop_
  _space_group_symop_operation_xyz
  'x, y, z'

loop_
  _atom_site_type_symbol
  _atom_site_label
  _atom_site_symmetry_multiplicity
  _atom_site_fract_x
  _atom_site_fract_y
  _atom_site_fract_z
  _atom_site_occupancy
  B   B1        1.0  0.19253459572792053  0.7164984345436096  0.22621817886829376  1.0000
  Co  Co1       1.0  0.19533352553844452  0.3749133050441742  0.814229130744934  1.0000
  Co  Co2       1.0  0.1853766143321991  0.9670926332473755  0.7740256786346436  1.0000
  Co  Co3       1.0  0.682317316532135  0.7888213992118835  0.43583399057388306  1.0000
  F   F1        1.0  0.7180642485618591  0.5162511467933655  0.8754417896270751  1.0000
  Pt  Pt1       1.0  0.1919487565755844  0.5480400323867798  0.9637606739997864  1.0000
  Pt  Pt2       1.0  0.6803279519081116  0.002456724178045988  0.938093900680542  1.0000
  Pt  Pt3       1.0  0.5232096910476685  0.46951770782470703  0.3947363495826721  1.0000
  Pt  Pt4       1.0  0.6854307055473328  0.7170355319976807  0.8684956431388855  1.0000
  Rb  Rb1       1.0  0.19472220540046692  0.6115776896476746  0.9935442805290222  1.0000
  Rb  Rb2       1.0  0.15181401371955872  0.3631496727466583  0.5998209714889526  1.0000
