data_image0
_chemical_formula_structural       B5Co2CuHfPtRb
_chemical_formula_sum              "B5 Co2 Cu1 Hf1 Pt1 Rb1"
_cell_length_a       3.2426772874675396
_cell_length_b       2.78799068992086
_cell_length_c       8.715666770935059
_cell_angle_alpha    91.85876365271558
_cell_angle_beta     94.9891740501953
_cell_angle_gamma    104.64908084049532

_space_group_name_H-M_alt    "P 1"
_space_group_IT_number       1

loop_
  _space_group_symop_operation_xyz
  'x, y, z'

loop_
  _atom_site_type_symbol
  _atom_site_label
  _atom_site_symmetry_multiplicity
  _atom_site_fract_x
  _atom_site_fract_y
  _atom_site_fract_z
  _atom_site_occupancy
  B   B1        1.0  0.29575255513191223  0.8963143825531006  0.6731511950492859  1.0000
  B   B2        1.0  0.0003475571575108937  0.25112783908843994  0.9185265898704529  1.0000
  B   B3        1.0  0.2577301263809204  0.11139288544654846  0.6204939484596252  1.0000
  B   B4        1.0  0.7567218542098999  0.6367640495300293  0.9229589700698853  1.0000
  B   B5        1.0  0.31517189741134644  0.062407929450273514  0.6010441780090332  1.0000
  Co  Co1       1.0  0.7814891338348389  0.687204897403717  0.33202990889549255  1.0000
  Co  Co2       1.0  0.4438822269439698  0.09158787876367569  0.9997089505195619  1.0000
  Cu  Cu1       1.0  0.7713707685470581  0.6053465604782104  0.10652484744787216  1.0000
  Hf  Hf1       1.0  0.970284402370453  0.5297530889511108  0.23710140585899353  1.0000
  Pt  Pt1       1.0  0.4427232146263123  0.7395281195640564  0.7958115935325623  1.0000
  Rb  Rb1       1.0  0.4610708355903626  0.14938147366046906  0.8923002481460571  1.0000
