data_image0
_chemical_formula_structural       B6Co2HfIPt
_chemical_formula_sum              "B6 Co2 Hf1 I1 Pt1"
_cell_length_a       3.4955644449527563
_cell_length_b       3.5583415612522673
_cell_length_c       9.917428016662598
_cell_angle_alpha    89.74237825862386
_cell_angle_beta     84.79430249584078
_cell_angle_gamma    81.53281530451301

_space_group_name_H-M_alt    "P 1"
_space_group_IT_number       1

loop_
  _space_group_symop_operation_xyz
  'x, y, z'

loop_
  _atom_site_type_symbol
  _atom_site_label
  _atom_site_symmetry_multiplicity
  _atom_site_fract_x
  _atom_site_fract_y
  _atom_site_fract_z
  _atom_site_occupancy
  B   B1        1.0  0.3274177312850952  0.054036024957895286  0.620322048664093  1.0000
  B   B2        1.0  0.3388928472995758  0.7246960997581483  0.8601307272911072  1.0000
  B   B3        1.0  0.8302172422409058  0.9398493766784669  0.39224010705947876  1.0000
  B   B4        1.0  0.32912343740463257  0.8071967959403993  0.5363592505455017  1.0000
  B   B5        1.0  0.8414742350578308  0.15508906543254852  0.08970525115728378  1.0000
  B   B6        1.0  0.8364205360412598  0.11693473160266878  0.4480891525745392  1.0000
  Co  Co1       1.0  0.3290109932422638  0.031045913696289066  0.38668641448020935  1.0000
  Co  Co2       1.0  0.8303744196891785  0.8601799607276918  0.8250565528869629  1.0000
  Hf  Hf1       1.0  0.8197536468505859  0.9069996476173402  0.69320148229599  1.0000
  I   I1        1.0  0.3297995626926422  0.06901884824037552  0.8833475708961487  1.0000
  Pt  Pt1       1.0  0.8373323082923889  0.30525121092796326  0.5882631540298462  1.0000
