data_image0
_chemical_formula_structural       PRu4Tb2U
_chemical_formula_sum              "P1 Ru4 Tb2 U1"
_cell_length_a       4.48470063621694
_cell_length_b       4.822332591201703
_cell_length_c       5.978063106536865
_cell_angle_alpha    93.12856041183099
_cell_angle_beta     89.14673664714327
_cell_angle_gamma    91.19069072717978

_space_group_name_H-M_alt    "P 1"
_space_group_IT_number       1

loop_
  _space_group_symop_operation_xyz
  'x, y, z'

loop_
  _atom_site_type_symbol
  _atom_site_label
  _atom_site_symmetry_multiplicity
  _atom_site_fract_x
  _atom_site_fract_y
  _atom_site_fract_z
  _atom_site_occupancy
  P   P1        1.0  0.17455758154392242  0.4731655418872833  0.6347001194953918  1.0000
  Ru  Ru1       1.0  0.9376929998397827  0.4115142226219177  0.9001855254173279  1.0000
  Ru  Ru2       1.0  0.4411255121231079  0.8704984188079834  0.6077510118484497  1.0000
  Ru  Ru3       1.0  0.44035860896110535  0.42711126804351807  0.9665721654891968  1.0000
  Ru  Ru4       1.0  0.9398635029792786  0.8479101657867432  0.9232167005538939  1.0000
  Tb  Tb1       1.0  0.44300034642219543  0.20904575288295746  0.888995885848999  1.0000
  Tb  Tb2       1.0  0.940862238407135  0.7193536758422852  0.07096690684556961  1.0000
  U   U1        1.0  0.4403459131717682  0.8765924572944641  0.07334640622138977  1.0000
