data_image0
_chemical_formula_structural       FeRu5TbZn
_chemical_formula_sum              "Fe1 Ru5 Tb1 Zn1"
_cell_length_a       4.539906069307833
_cell_length_b       5.147231522220329
_cell_length_c       5.7865800857543945
_cell_angle_alpha    103.55442647835984
_cell_angle_beta     90.58016618754476
_cell_angle_gamma    89.64549830562449

_space_group_name_H-M_alt    "P 1"
_space_group_IT_number       1

loop_
  _space_group_symop_operation_xyz
  'x, y, z'

loop_
  _atom_site_type_symbol
  _atom_site_label
  _atom_site_symmetry_multiplicity
  _atom_site_fract_x
  _atom_site_fract_y
  _atom_site_fract_z
  _atom_site_occupancy
  Fe  Fe1       1.0  0.8985714316368103  0.7854123711585999  0.43971413373947144  1.0000
  Ru  Ru1       1.0  0.41309210658073425  0.021466514095664024  0.5713052749633789  1.0000
  Ru  Ru2       1.0  0.9268805384635925  0.36717498302459717  0.4812818467617035  1.0000
  Ru  Ru3       1.0  0.5918797850608826  0.8299493193626404  0.3385822772979737  1.0000
  Ru  Ru4       1.0  0.9197719693183899  0.5388978719711304  0.8252313733100891  1.0000
  Ru  Ru5       1.0  0.9124388694763184  0.7484175562858582  0.09131880849599841  1.0000
  Tb  Tb1       1.0  0.4129948318004608  0.030873281881213188  0.5957251787185669  1.0000
  Zn  Zn1       1.0  0.9243993163108826  0.8993611931800842  0.9881139993667603  1.0000
