data_image0
_chemical_formula_structural       As2Ru6
_chemical_formula_sum              "As2 Ru6"
_cell_length_a       4.530312891520166
_cell_length_b       5.425932871367425
_cell_length_c       5.848446846008301
_cell_angle_alpha    92.6679215166016
_cell_angle_beta     90.27663897741425
_cell_angle_gamma    87.22055051698008

_space_group_name_H-M_alt    "P 1"
_space_group_IT_number       1

loop_
  _space_group_symop_operation_xyz
  'x, y, z'

loop_
  _atom_site_type_symbol
  _atom_site_label
  _atom_site_symmetry_multiplicity
  _atom_site_fract_x
  _atom_site_fract_y
  _atom_site_fract_z
  _atom_site_occupancy
  As  As1       1.0  0.4030565619468689  0.796646773815155  0.6029831171035767  1.0000
  As  As2       1.0  0.9199223518371582  0.8211793899536133  0.8774389624595643  1.0000
  Ru  Ru1       1.0  0.8939377069473267  0.6369377374649048  0.17874439060688022  1.0000
  Ru  Ru2       1.0  0.3944967985153198  0.5464410781860352  0.9913149476051332  1.0000
  Ru  Ru3       1.0  0.3926428258419037  0.4823194742202759  0.5170340538024902  1.0000
  Ru  Ru4       1.0  0.8999800086021423  0.8221652507781982  0.7885318398475648  1.0000
  Ru  Ru5       1.0  0.4050101637840271  0.8906553983688354  0.7244341373443605  1.0000
  Ru  Ru6       1.0  0.39770692586898804  0.8963292241096497  0.9326313734054567  1.0000
