data_image0
_chemical_formula_structural       BMn3Ru4
_chemical_formula_sum              "B1 Mn3 Ru4"
_cell_length_a       4.069958444619907
_cell_length_b       4.518887991299749
_cell_length_c       5.483856678009033
_cell_angle_alpha    94.93222315131135
_cell_angle_beta     90.42831733754953
_cell_angle_gamma    93.46413463559736

_space_group_name_H-M_alt    "P 1"
_space_group_IT_number       1

loop_
  _space_group_symop_operation_xyz
  'x, y, z'

loop_
  _atom_site_type_symbol
  _atom_site_label
  _atom_site_symmetry_multiplicity
  _atom_site_fract_x
  _atom_site_fract_y
  _atom_site_fract_z
  _atom_site_occupancy
  B   B1        1.0  0.8763567209243774  0.5447413325309753  0.7373180389404297  1.0000
  Mn  Mn1       1.0  0.38638800382614136  0.9135668873786926  0.043744925409555435  1.0000
  Mn  Mn2       1.0  0.8840548992156982  0.88694828748703  0.40746521949768066  1.0000
  Mn  Mn3       1.0  0.38830673694610596  0.8791378736495972  0.9063096046447754  1.0000
  Ru  Ru1       1.0  0.38273492455482483  0.0556429885327816  0.6736875176429749  1.0000
  Ru  Ru2       1.0  0.8835332989692688  0.7239472270011902  0.7748507857322693  1.0000
  Ru  Ru3       1.0  0.883379340171814  0.5910056829452515  0.9572364687919618  1.0000
  Ru  Ru4       1.0  0.38555052876472473  0.30364635586738586  0.5246557593345642  1.0000
