data_image0
_chemical_formula_structural       MnPrRu4Tb2
_chemical_formula_sum              "Mn1 Pr1 Ru4 Tb2"
_cell_length_a       4.46450635822254
_cell_length_b       5.289951911388757
_cell_length_c       6.121486663818359
_cell_angle_alpha    91.39586005575437
_cell_angle_beta     89.05909475493182
_cell_angle_gamma    106.03780735579201

_space_group_name_H-M_alt    "P 1"
_space_group_IT_number       1

loop_
  _space_group_symop_operation_xyz
  'x, y, z'

loop_
  _atom_site_type_symbol
  _atom_site_label
  _atom_site_symmetry_multiplicity
  _atom_site_fract_x
  _atom_site_fract_y
  _atom_site_fract_z
  _atom_site_occupancy
  Mn  Mn1       1.0  0.328727126121521  0.027599692344665527  0.5198143720626831  1.0000
  Pr  Pr1       1.0  0.8232990503311157  0.02821657434105873  0.18234719336032865  1.0000
  Ru  Ru1       1.0  0.8388809561729431  0.7924228310585022  0.6723653078079223  1.0000
  Ru  Ru2       1.0  0.8369244337081909  0.3478308320045471  0.4557808935642242  1.0000
  Ru  Ru3       1.0  0.33193618059158325  0.5391294360160828  0.3952247500419616  1.0000
  Ru  Ru4       1.0  0.8327472805976868  0.1952660083770752  0.9750041365623473  1.0000
  Tb  Tb1       1.0  0.3229162395000458  0.6559375524520874  0.7688832283020021  1.0000
  Tb  Tb2       1.0  0.324817955493927  0.5797686576843262  0.8674285411834716  1.0000
