data_image0
_chemical_formula_structural       Ca3H3IMoOP5Pb
_chemical_formula_sum              "Ca3 H3 I1 Mo1 O1 P5 Pb1"
_cell_length_a       4.883239720481772
_cell_length_b       4.616675892050431
_cell_length_c       10.122806549072266
_cell_angle_alpha    98.77016496169001
_cell_angle_beta     91.5575948707927
_cell_angle_gamma    130.07380040354863

_space_group_name_H-M_alt    "P 1"
_space_group_IT_number       1

loop_
  _space_group_symop_operation_xyz
  'x, y, z'

loop_
  _atom_site_type_symbol
  _atom_site_label
  _atom_site_symmetry_multiplicity
  _atom_site_fract_x
  _atom_site_fract_y
  _atom_site_fract_z
  _atom_site_occupancy
  Ca  Ca1       1.0  0.29529157280921936  0.8077899813652039  0.32594889402389526  1.0000
  Ca  Ca2       1.0  0.056885890662670135  0.37892627716064453  0.19926725327968597  1.0000
  Ca  Ca3       1.0  0.1747807413339615  0.03402813524007797  0.7100633978843689  1.0000
  H   H1        1.0  0.6602091193199158  0.650835394859314  0.23966015875339508  1.0000
  H   H2        1.0  0.5731414556503296  0.040649086236953735  0.6980950832366943  1.0000
  H   H3        1.0  0.23026113212108612  0.4210697412490845  0.8100838661193848  1.0000
  I   I1        1.0  0.537105143070221  0.006395651958882809  0.5975426435470581  1.0000
  Mo  Mo1       1.0  0.2235773652791977  0.9087172150611877  0.9085190892219543  1.0000
  O   O1        1.0  0.9159873127937317  0.6889190673828125  0.27021828293800354  1.0000
  P   P1        1.0  0.9170921444892883  0.504018247127533  0.5345694422721863  1.0000
  P   P2        1.0  0.928145170211792  0.33140265941619873  0.5152398347854614  1.0000
  P   P3        1.0  0.9450961351394653  0.247366800904274  0.7838826775550842  1.0000
  P   P4        1.0  0.5118831992149353  0.3926386535167694  0.48977723717689514  1.0000
  P   P5        1.0  0.6910489201545715  0.9631953835487366  0.955606698989868  1.0000
  Pb  Pb1       1.0  0.29983624815940857  0.9776386618614197  0.8613393306732178  1.0000
