data_image0
_chemical_formula_structural       Ca2H4IP6PdPt
_chemical_formula_sum              "Ca2 H4 I1 P6 Pd1 Pt1"
_cell_length_a       6.658330000888531
_cell_length_b       6.455939797379241
_cell_length_c       9.948451042175293
_cell_angle_alpha    85.39358002790394
_cell_angle_beta     81.51033988413963
_cell_angle_gamma    63.205395393175536

_space_group_name_H-M_alt    "P 1"
_space_group_IT_number       1

loop_
  _space_group_symop_operation_xyz
  'x, y, z'

loop_
  _atom_site_type_symbol
  _atom_site_label
  _atom_site_symmetry_multiplicity
  _atom_site_fract_x
  _atom_site_fract_y
  _atom_site_fract_z
  _atom_site_occupancy
  Ca  Ca1       1.0  0.9544723629951477  0.179351806640625  0.15461862087249756  1.0000
  Ca  Ca2       1.0  0.116081602871418  0.5230638384819031  0.6719946265220642  1.0000
  H   H1        1.0  0.7891838550567627  0.683844268321991  0.2170058637857437  1.0000
  H   H2        1.0  0.40893667936325073  0.9951431155204773  0.9096755981445312  1.0000
  H   H3        1.0  0.5763315558433533  0.9022322297096252  0.9423832297325134  1.0000
  H   H4        1.0  0.0741671621799469  0.30146709084510803  0.3768501281738281  1.0000
  I   I1        1.0  0.4489830732345581  0.9923027157783508  0.17394669353961945  1.0000
  P   P1        1.0  0.5727657079696655  0.553350031375885  0.9149190783500671  1.0000
  P   P2        1.0  0.09587757289409637  0.9075092673301697  0.5057935118675232  1.0000
  P   P3        1.0  0.6270344257354736  0.4406188428401947  0.25470399856567383  1.0000
  P   P4        1.0  0.44133517146110535  0.11962822079658508  0.04032202437520027  1.0000
  P   P5        1.0  0.6143749356269836  0.6711109280586243  0.9135606288909912  1.0000
  P   P6        1.0  0.12586529552936554  0.2504720985889435  0.7331811785697937  1.0000
  Pd  Pd1       1.0  0.6282159686088562  0.6565587520599365  0.4717322885990143  1.0000
  Pt  Pt1       1.0  0.058165960013866425  0.9674665331840515  0.5822617411613464  1.0000
