data_image0
_chemical_formula_structural       CaF2H3IO3P5
_chemical_formula_sum              "Ca1 F2 H3 I1 O3 P5"
_cell_length_a       4.138161722296324
_cell_length_b       3.901061880179742
_cell_length_c       12.626537322998047
_cell_angle_alpha    92.95807579598149
_cell_angle_beta     93.90412167761761
_cell_angle_gamma    96.56127817320461

_space_group_name_H-M_alt    "P 1"
_space_group_IT_number       1

loop_
  _space_group_symop_operation_xyz
  'x, y, z'

loop_
  _atom_site_type_symbol
  _atom_site_label
  _atom_site_symmetry_multiplicity
  _atom_site_fract_x
  _atom_site_fract_y
  _atom_site_fract_z
  _atom_site_occupancy
  Ca  Ca1       1.0  0.503851056098938  0.17326505482196808  0.12705561518669128  1.0000
  F   F1        1.0  0.0011078119277954136  0.17865730822086337  0.3090568780899048  1.0000
  F   F2        1.0  0.500847578048706  0.9626313447952272  0.9773802161216736  1.0000
  H   H1        1.0  0.014545676298439506  0.22576080262660983  0.5596985220909119  1.0000
  H   H2        1.0  0.503909707069397  0.7454086542129518  0.5520141124725342  1.0000
  H   H3        1.0  0.9851964116096497  0.584111213684082  0.9446816444396973  1.0000
  I   I1        1.0  0.00414099358022213  0.1757970154285431  0.13447345793247223  1.0000
  O   O1        1.0  0.011854467913508419  0.18512146174907687  0.5136318206787109  1.0000
  O   O2        1.0  0.5106574296951294  0.10846599191427232  0.592154860496521  1.0000
  O   O3        1.0  0.5093027353286743  0.17467433214187622  0.36024677753448486  1.0000
  P   P1        1.0  0.5072559714317322  0.5828350186347961  0.6340335011482239  1.0000
  P   P2        1.0  0.0026038885116577283  0.7333237528800965  0.23492978513240814  1.0000
  P   P3        1.0  0.5042480826377869  0.37282064557075506  0.04963971674442291  1.0000
  P   P4        1.0  0.5026381015777588  0.6480367183685303  0.48566848039627075  1.0000
  P   P5        1.0  0.0038060524966567755  0.15796566009521484  0.6147199869155884  1.0000
