data_image0
_chemical_formula_structural       CaH4I2OP7
_chemical_formula_sum              "Ca1 H4 I2 O1 P7"
_cell_length_a       6.376666262845522
_cell_length_b       6.694343431000147
_cell_length_c       7.330867767333984
_cell_angle_alpha    64.99921566459545
_cell_angle_beta     67.28779273812596
_cell_angle_gamma    65.74579289370435

_space_group_name_H-M_alt    "P 1"
_space_group_IT_number       1

loop_
  _space_group_symop_operation_xyz
  'x, y, z'

loop_
  _atom_site_type_symbol
  _atom_site_label
  _atom_site_symmetry_multiplicity
  _atom_site_fract_x
  _atom_site_fract_y
  _atom_site_fract_z
  _atom_site_occupancy
  Ca  Ca1       1.0  0.22702929377555847  0.8061281442642212  0.5341636538505554  1.0000
  H   H1        1.0  0.20165139436721802  0.23922811448574066  0.8433886170387268  1.0000
  H   H2        1.0  0.9522245526313782  0.4037680923938751  0.25228172540664673  1.0000
  H   H3        1.0  0.39334627985954285  0.9240188598632812  0.26454269886016846  1.0000
  H   H4        1.0  0.6472078561782837  0.8314694762229919  0.33697184920310974  1.0000
  I   I1        1.0  0.7055140137672424  0.4821096658706665  0.16040465235710144  1.0000
  I   I2        1.0  0.6674961447715759  0.16301463544368744  0.2767232358455658  1.0000
  O   O1        1.0  0.7897356748580933  0.93411785364151  0.19480666518211365  1.0000
  P   P1        1.0  0.6563992500305176  0.6421441435813904  0.9949907064437867  1.0000
  P   P2        1.0  0.7012499570846558  0.6667525768280029  0.3172726333141327  1.0000
  P   P3        1.0  0.6480027437210083  0.37049582600593567  0.5286330580711365  1.0000
  P   P4        1.0  0.4511725902557373  0.6466289162635803  0.8244250416755676  1.0000
  P   P5        1.0  0.9618529677391052  0.7901893258094788  0.2956016957759857  1.0000
  P   P6        1.0  0.15709997713565826  0.473308265209198  0.6394878625869751  1.0000
  P   P7        1.0  0.9990713000297546  0.7121546864509583  0.33771732449531555  1.0000
