data_image0
_chemical_formula_structural       GaH3IO3P5PbZn
_chemical_formula_sum              "Ga1 H3 I1 O3 P5 Pb1 Zn1"
_cell_length_a       4.737995097350197
_cell_length_b       5.424574862216244
_cell_length_c       9.887848854064941
_cell_angle_alpha    90.84529047832962
_cell_angle_beta     89.41388230246321
_cell_angle_gamma    105.21957414179653

_space_group_name_H-M_alt    "P 1"
_space_group_IT_number       1

loop_
  _space_group_symop_operation_xyz
  'x, y, z'

loop_
  _atom_site_type_symbol
  _atom_site_label
  _atom_site_symmetry_multiplicity
  _atom_site_fract_x
  _atom_site_fract_y
  _atom_site_fract_z
  _atom_site_occupancy
  Ga  Ga1       1.0  0.061033837497234344  0.36367112398147583  0.07232736796140672  1.0000
  H   H1        1.0  0.9782404899597168  0.7597720623016357  0.5661847591400146  1.0000
  H   H2        1.0  0.9501534700393677  0.623941957950592  0.5041032433509827  1.0000
  H   H3        1.0  0.006799235939979553  0.27367401123046875  0.7339223623275757  1.0000
  I   I1        1.0  0.9788932800292969  0.5954040884971619  0.13885019719600677  1.0000
  O   O1        1.0  0.5439230799674988  0.05915509536862374  0.7655084729194641  1.0000
  O   O2        1.0  0.700650155544281  0.13531726598739624  0.12030183523893356  1.0000
  O   O3        1.0  0.3942972421646118  0.23735205829143527  0.16166163980960846  1.0000
  P   P1        1.0  0.5107057094573975  0.977216124534607  0.31551340222358704  1.0000
  P   P2        1.0  0.059997770935297054  0.9586322903633119  0.05188507214188576  1.0000
  P   P3        1.0  0.4748656749725342  0.7650337815284729  0.8320948481559753  1.0000
  P   P4        1.0  0.5247541069984436  0.058527484536170966  0.06089506298303604  1.0000
  P   P5        1.0  0.5069039463996887  0.19069121778011322  0.6164733171463013  1.0000
  Pb  Pb1       1.0  0.5541853904724121  0.23549482226371768  0.09856285154819489  1.0000
  Zn  Zn1       1.0  0.2783498167991638  0.6128767132759094  0.24517188966274261  1.0000
