data_image0
_chemical_formula_structural       Ca3FH3IO3P4
_chemical_formula_sum              "Ca3 F1 H3 I1 O3 P4"
_cell_length_a       5.130577604184197
_cell_length_b       5.206921937985911
_cell_length_c       8.456172943115234
_cell_angle_alpha    96.31334256701271
_cell_angle_beta     98.17114195566538
_cell_angle_gamma    108.80870800885629

_space_group_name_H-M_alt    "P 1"
_space_group_IT_number       1

loop_
  _space_group_symop_operation_xyz
  'x, y, z'

loop_
  _atom_site_type_symbol
  _atom_site_label
  _atom_site_symmetry_multiplicity
  _atom_site_fract_x
  _atom_site_fract_y
  _atom_site_fract_z
  _atom_site_occupancy
  Ca  Ca1       1.0  0.6125977635383606  0.6034623384475708  0.7533782124519348  1.0000
  Ca  Ca2       1.0  0.11396455764770508  0.868553876876831  0.4559037387371063  1.0000
  Ca  Ca3       1.0  0.6160005927085876  0.008003504015505314  0.576984167098999  1.0000
  F   F1        1.0  0.11139038950204849  0.8971188068389893  0.5574175119400024  1.0000
  H   H1        1.0  0.12907105684280396  0.6301099061965942  0.8622695207595825  1.0000
  H   H2        1.0  0.612430214881897  0.32971468567848206  0.9165942072868347  1.0000
  H   H3        1.0  0.11458702385425568  0.8220119476318359  0.8752373456954956  1.0000
  I   I1        1.0  0.6156491637229919  0.7204455137252808  0.5980495810508728  1.0000
  O   O1        1.0  0.11001855134963989  0.2366088181734085  0.4497089684009552  1.0000
  O   O2        1.0  0.6086329817771912  0.05260998383164406  0.9843212366104126  1.0000
  O   O3        1.0  0.9894630908966064  0.9978957772254944  0.8184254765510559  1.0000
  P   P1        1.0  0.6139942407608032  0.7715641260147095  0.6634700298309326  1.0000
  P   P2        1.0  0.6184325814247131  0.5022500157356262  0.37947314977645874  1.0000
  P   P3        1.0  0.6032272577285767  0.48041796684265137  0.7334786057472229  1.0000
  P   P4        1.0  0.10467939078807831  0.5184583067893982  0.0006485663470812142  1.0000
