data_image0
_chemical_formula_structural       AgLaTa3Tb
_chemical_formula_sum              "Ag1 La1 Ta3 Tb1"
_cell_length_a       4.45263181821539
_cell_length_b       5.467376572001053
_cell_length_c       6.196047782897949
_cell_angle_alpha    119.4491928075359
_cell_angle_beta     106.44650542139532
_cell_angle_gamma    84.49940817594808

_space_group_name_H-M_alt    "P 1"
_space_group_IT_number       1

loop_
  _space_group_symop_operation_xyz
  'x, y, z'

loop_
  _atom_site_type_symbol
  _atom_site_label
  _atom_site_symmetry_multiplicity
  _atom_site_fract_x
  _atom_site_fract_y
  _atom_site_fract_z
  _atom_site_occupancy
  Ag  Ag1       1.0  0.6322265863418579  0.569774329662323  0.28605493903160095  1.0000
  La  La1       1.0  0.37611842155456543  0.868894636631012  0.6032817363739014  1.0000
  Ta  Ta1       1.0  0.8888604640960693  0.3494797945022583  0.5882634520530701  1.0000
  Ta  Ta2       1.0  0.1290901154279709  0.018317975103855133  0.8503589034080505  1.0000
  Ta  Ta3       1.0  0.9406754970550537  0.06322649866342545  0.9667122960090637  1.0000
  Tb  Tb1       1.0  0.6319007873535156  0.5171676874160767  0.7832382321357727  1.0000
