data_image0
_chemical_formula_structural       AgLaSTa3
_chemical_formula_sum              "Ag1 La1 S1 Ta3"
_cell_length_a       5.246020718305442
_cell_length_b       3.2025076841709477
_cell_length_c       5.188311576843262
_cell_angle_alpha    145.8852334769132
_cell_angle_beta     117.84903724023133
_cell_angle_gamma    81.1638802682822

_space_group_name_H-M_alt    "P 1"
_space_group_IT_number       1

loop_
  _space_group_symop_operation_xyz
  'x, y, z'

loop_
  _atom_site_type_symbol
  _atom_site_label
  _atom_site_symmetry_multiplicity
  _atom_site_fract_x
  _atom_site_fract_y
  _atom_site_fract_z
  _atom_site_occupancy
  Ag  Ag1       1.0  0.22415795922279358  0.30299684405326843  0.19252516329288483  1.0000
  La  La1       1.0  0.969154953956604  0.436130553483963  0.04865715280175208  1.0000
  S   S1        1.0  0.24036079645156855  0.672019302845001  0.79300719499588  1.0000
  Ta  Ta1       1.0  0.6949205994606018  0.9728503227233887  0.6869349479675293  1.0000
  Ta  Ta2       1.0  0.3896983861923218  0.7858492136001587  0.009575588628649696  1.0000
  Ta  Ta3       1.0  0.8394604325294495  0.6621055603027343  0.3011326789855957  1.0000
