data_image0
_chemical_formula_structural       Ag3Ta3
_chemical_formula_sum              "Ag3 Ta3"
_cell_length_a       3.9043729906710554
_cell_length_b       5.734515329515534
_cell_length_c       6.527188777923584
_cell_angle_alpha    124.67711257584058
_cell_angle_beta     92.64414145512642
_cell_angle_gamma    85.72092072897205

_space_group_name_H-M_alt    "P 1"
_space_group_IT_number       1

loop_
  _space_group_symop_operation_xyz
  'x, y, z'

loop_
  _atom_site_type_symbol
  _atom_site_label
  _atom_site_symmetry_multiplicity
  _atom_site_fract_x
  _atom_site_fract_y
  _atom_site_fract_z
  _atom_site_occupancy
  Ag  Ag1       1.0  0.7350472211837769  0.6204125881195068  0.7980040907859803  1.0000
  Ag  Ag2       1.0  0.2606826722621918  0.6550434231758118  0.6191517114639283  1.0000
  Ag  Ag3       1.0  0.7722669243812561  0.2209443747997284  0.0039312085136771376  1.0000
  Ta  Ta1       1.0  0.7462868094444275  0.1151353269815445  0.33731755614280706  1.0000
  Ta  Ta2       1.0  0.26149308681488037  0.2686084508895874  0.14928613603115085  1.0000
  Ta  Ta3       1.0  0.7559778094291687  0.4227803349494934  0.29807221889495855  1.0000
