data_image0
_chemical_formula_structural       AgLa2Ta2Ti
_chemical_formula_sum              "Ag1 La2 Ta2 Ti1"
_cell_length_a       4.304484596968428
_cell_length_b       5.118701717394983
_cell_length_c       6.356374740600586
_cell_angle_alpha    114.62014204593464
_cell_angle_beta     108.13207072843012
_cell_angle_gamma    88.23576348733638

_space_group_name_H-M_alt    "P 1"
_space_group_IT_number       1

loop_
  _space_group_symop_operation_xyz
  'x, y, z'

loop_
  _atom_site_type_symbol
  _atom_site_label
  _atom_site_symmetry_multiplicity
  _atom_site_fract_x
  _atom_site_fract_y
  _atom_site_fract_z
  _atom_site_occupancy
  Ag  Ag1       1.0  0.27437275648117065  0.979044497013092  0.6711342334747316  1.0000
  La  La1       1.0  0.5559018850326538  0.09923207759857178  0.4317701160907746  1.0000
  La  La2       1.0  0.15169909596443176  0.26074153184890747  0.8746814727783204  1.0000
  Ta  Ta1       1.0  0.5387610793113708  0.6508413553237915  0.49362051486969  1.0000
  Ta  Ta2       1.0  0.7986095547676086  0.07140935957431793  0.6627140045166017  1.0000
  Ti  Ti1       1.0  0.008974513038992882  0.6313861608505249  0.15680760145187375  1.0000
