data_image0
_chemical_formula_structural       Ag3RhTa2
_chemical_formula_sum              "Ag3 Rh1 Ta2"
_cell_length_a       5.454784749913577
_cell_length_b       5.743299202374641
_cell_length_c       7.1796183586120605
_cell_angle_alpha    78.4903325823245
_cell_angle_beta     70.89419771684433
_cell_angle_gamma    65.68939685816375

_space_group_name_H-M_alt    "P 1"
_space_group_IT_number       1

loop_
  _space_group_symop_operation_xyz
  'x, y, z'

loop_
  _atom_site_type_symbol
  _atom_site_label
  _atom_site_symmetry_multiplicity
  _atom_site_fract_x
  _atom_site_fract_y
  _atom_site_fract_z
  _atom_site_occupancy
  Ag  Ag1       1.0  0.7942056059837341  0.17455726861953735  0.010973531752824754  1.0000
  Ag  Ag2       1.0  0.8992526531219482  0.0029788354877382517  0.3793632388114929  1.0000
  Ag  Ag3       1.0  0.39519545435905457  0.9119534492492676  0.8931345343589783  1.0000
  Rh  Rh1       1.0  0.30125534534454346  0.20168150961399078  0.5355145931243896  1.0000
  Ta  Ta1       1.0  0.2884058356285095  0.6718986630439758  0.40270212292671204  1.0000
  Ta  Ta2       1.0  0.6332677006721497  0.9091553688049316  0.5793342590332031  1.0000
