data_image0
_chemical_formula_structural       I2Ni3PSc2Zn2Zr
_chemical_formula_sum              "I2 Ni3 P1 Sc2 Zn2 Zr1"
_cell_length_a       5.189531054060789
_cell_length_b       5.126585964382903
_cell_length_c       8.808440208435059
_cell_angle_alpha    110.55668193194803
_cell_angle_beta     90.28898330509026
_cell_angle_gamma    101.78469222230002

_space_group_name_H-M_alt    "P 1"
_space_group_IT_number       1

loop_
  _space_group_symop_operation_xyz
  'x, y, z'

loop_
  _atom_site_type_symbol
  _atom_site_label
  _atom_site_symmetry_multiplicity
  _atom_site_fract_x
  _atom_site_fract_y
  _atom_site_fract_z
  _atom_site_occupancy
  I   I1        1.0  0.9545816779136658  0.33450308442115784  0.16714340448379517  1.0000
  I   I2        1.0  0.9569777250289917  0.45433232188224787  0.012186901643872249  1.0000
  Ni  Ni1       1.0  0.45934781432151794  0.516747772693634  0.5038228034973145  1.0000
  Ni  Ni2       1.0  0.45837992429733276  0.6400752067565918  0.689422607421875  1.0000
  Ni  Ni3       1.0  0.4656411111354828  0.8069086074829102  0.7749001383781433  1.0000
  P   P1        1.0  0.19530051946640015  0.7202733755111694  0.8044357299804688  1.0000
  Sc  Sc1       1.0  0.4683482348918915  0.959164261817932  0.05993950739502905  1.0000
  Sc  Sc2       1.0  0.964285135269165  0.28531140089035034  0.36098986864089966  1.0000
  Zn  Zn1       1.0  0.9613625407218933  0.371248334646225  0.5910415649414062  1.0000
  Zn  Zn2       1.0  0.4631224274635315  0.8588533401489258  0.10124015063047406  1.0000
  Zr  Zr1       1.0  0.9580473899841309  0.47138348221778864  0.855228841304779  1.0000
