data_image0
_chemical_formula_structural       HI2Ni3PSc2TiZn
_chemical_formula_sum              "H1 I2 Ni3 P1 Sc2 Ti1 Zn1"
_cell_length_a       5.653712409365735
_cell_length_b       4.035255497923986
_cell_length_c       5.741271018981934
_cell_angle_alpha    121.96102284170168
_cell_angle_beta     110.19337750576251
_cell_angle_gamma    121.73414699892604

_space_group_name_H-M_alt    "P 1"
_space_group_IT_number       1

loop_
  _space_group_symop_operation_xyz
  'x, y, z'

loop_
  _atom_site_type_symbol
  _atom_site_label
  _atom_site_symmetry_multiplicity
  _atom_site_fract_x
  _atom_site_fract_y
  _atom_site_fract_z
  _atom_site_occupancy
  H   H1        1.0  0.9196668863296509  0.7914239764213562  0.004143685102462751  1.0000
  I   I1        1.0  0.9772799015045168  0.40750300884246854  0.7972673773765565  1.0000
  I   I2        1.0  0.42506805062294006  0.057355534285306896  0.2158856838941574  1.0000
  Ni  Ni1       1.0  0.6667476892471313  0.2295654267072678  0.6922596096992493  1.0000
  Ni  Ni2       1.0  0.08685987442731857  0.4286211431026459  0.21325351297855377  1.0000
  Ni  Ni3       1.0  0.33398166298866283  0.3709213733673098  0.933640480041504  1.0000
  P   P1        1.0  0.9110653400421145  0.14845287799835222  0.36600720882415777  1.0000
  Sc  Sc1       1.0  0.6004623174667358  0.7176241278648376  0.26031577587127686  1.0000
  Sc  Sc2       1.0  0.9066610932350161  0.5811178684234621  0.7845982909202577  1.0000
  Ti  Ti1       1.0  0.8593886494636536  0.5729769468307495  0.8865289688110352  1.0000
  Zn  Zn1       1.0  0.3776846528053282  0.9768875241279599  0.7441319823265075  1.0000
