data_image0
_chemical_formula_structural       Bi6CoSc4
_chemical_formula_sum              "Bi6 Co1 Sc4"
_cell_length_a       4.156614415364609
_cell_length_b       4.496457066298339
_cell_length_c       8.297150611877441
_cell_angle_alpha    89.41704039474935
_cell_angle_beta     90.14582845924855
_cell_angle_gamma    88.10034672796999

_space_group_name_H-M_alt    "P 1"
_space_group_IT_number       1

loop_
  _space_group_symop_operation_xyz
  'x, y, z'

loop_
  _atom_site_type_symbol
  _atom_site_label
  _atom_site_symmetry_multiplicity
  _atom_site_fract_x
  _atom_site_fract_y
  _atom_site_fract_z
  _atom_site_occupancy
  Bi  Bi1       1.0  0.5189006924629211  0.16937971115112305  0.5394045114517212  1.0000
  Bi  Bi2       1.0  0.05051906779408455  0.321733295917511  0.4688422977924347  1.0000
  Bi  Bi3       1.0  0.5502718091011047  0.3917744755744934  0.11011698096990587  1.0000
  Bi  Bi4       1.0  0.04635493829846382  0.48423340916633606  0.5240467190742493  1.0000
  Bi  Bi5       1.0  0.5548603534698486  0.9089984893798828  0.44365736842155457  1.0000
  Bi  Bi6       1.0  0.5514097213745117  0.3808475136756897  0.42816463112831116  1.0000
  Co  Co1       1.0  0.04751703143119812  0.31582391262054443  0.5215930342674255  1.0000
  Sc  Sc1       1.0  0.0568319708108902  0.9137460589408875  0.25993236899375916  1.0000
  Sc  Sc2       1.0  0.3094828724861145  0.9876636862754822  0.724268913269043  1.0000
  Sc  Sc3       1.0  0.5567284822463989  0.48986756801605225  0.7989892363548279  1.0000
  Sc  Sc4       1.0  0.044193290174007416  0.7814353704452515  0.533268392086029  1.0000
