data_image0
_chemical_formula_structural       Bi7CaNiSc2
_chemical_formula_sum              "Bi7 Ca1 Ni1 Sc2"
_cell_length_a       5.498748892651246
_cell_length_b       5.4298825352790026
_cell_length_c       7.4333672523498535
_cell_angle_alpha    76.06278397842595
_cell_angle_beta     71.38034249121576
_cell_angle_gamma    65.02746171433601

_space_group_name_H-M_alt    "P 1"
_space_group_IT_number       1

loop_
  _space_group_symop_operation_xyz
  'x, y, z'

loop_
  _atom_site_type_symbol
  _atom_site_label
  _atom_site_symmetry_multiplicity
  _atom_site_fract_x
  _atom_site_fract_y
  _atom_site_fract_z
  _atom_site_occupancy
  Bi  Bi1       1.0  0.6839694976806641  0.5895714163780212  0.9337915182113649  1.0000
  Bi  Bi2       1.0  0.18328694999217987  0.5753211975097656  0.053096689283847816  1.0000
  Bi  Bi3       1.0  0.6857234835624695  0.26186665892601013  0.34494295716285706  1.0000
  Bi  Bi4       1.0  0.6953850984573364  0.7230141758918762  0.29518917202949524  1.0000
  Bi  Bi5       1.0  0.18619221448898315  0.5900738835334778  0.2626695930957794  1.0000
  Bi  Bi6       1.0  0.18439771234989166  0.5925971269607544  0.9175515770912172  1.0000
  Bi  Bi7       1.0  0.6800448894500732  0.9873273372650146  0.04528942331671715  1.0000
  Ca  Ca1       1.0  0.18200145661830902  0.978551983833313  0.9378303885459901  1.0000
  Ni  Ni1       1.0  0.688305675983429  0.7512030005455017  0.4030445814132691  1.0000
  Sc  Sc1       1.0  0.17942148447036743  0.8976618051528931  0.9630092978477479  1.0000
  Sc  Sc2       1.0  0.6833869814872742  0.15662479400634766  0.4462935030460358  1.0000
