data_image0
_chemical_formula_structural       HI4NiPtSc2Zn2
_chemical_formula_sum              "H1 I4 Ni1 Pt1 Sc2 Zn2"
_cell_length_a       5.462996898194141
_cell_length_b       3.5659724430226287
_cell_length_c       6.627633094787598
_cell_angle_alpha    166.5921260282052
_cell_angle_beta     91.86930412754653
_cell_angle_gamma    87.78763027657472

_space_group_name_H-M_alt    "P 1"
_space_group_IT_number       1

loop_
  _space_group_symop_operation_xyz
  'x, y, z'

loop_
  _atom_site_type_symbol
  _atom_site_label
  _atom_site_symmetry_multiplicity
  _atom_site_fract_x
  _atom_site_fract_y
  _atom_site_fract_z
  _atom_site_occupancy
  H   H1        1.0  0.16659444570541385  0.2195616662502287  0.7222158312797545  1.0000
  I   I1        1.0  0.010746771469712256  0.92443460226059  0.9733664393424989  1.0000
  I   I2        1.0  0.23873284459114075  0.10650987923145297  0.40051940083503723  1.0000
  I   I3        1.0  0.7810577750205994  0.6710668802261354  0.17289455235004428  1.0000
  I   I4        1.0  0.7329570651054381  0.17500042915344252  0.473447859287262  1.0000
  Ni  Ni1       1.0  0.8739240765571594  0.012925132177770231  0.7165904045104982  1.0000
  Pt  Pt1       1.0  0.9904124736785889  0.2325133085250857  0.52805233001709  1.0000
  Sc  Sc1       1.0  0.8221907615661621  0.3198633193969728  0.3501935005187989  1.0000
  Sc  Sc2       1.0  0.3822833001613617  0.5521114468574524  0.16552574932575226  1.0000
  Zn  Zn1       1.0  0.5227237939834595  0.5014413595199585  0.9605914950370789  1.0000
  Zn  Zn2       1.0  0.4733976125717163  0.41036713123321533  0.846136748790741  1.0000
