data_image0
_chemical_formula_structural       HI2LiSc6Zn
_chemical_formula_sum              "H1 I2 Li1 Sc6 Zn1"
_cell_length_a       5.212990574096533
_cell_length_b       5.596149614265534
_cell_length_c       7.820616722106934
_cell_angle_alpha    89.38658956209855
_cell_angle_beta     90.71557777621379
_cell_angle_gamma    91.94919039041375

_space_group_name_H-M_alt    "P 1"
_space_group_IT_number       1

loop_
  _space_group_symop_operation_xyz
  'x, y, z'

loop_
  _atom_site_type_symbol
  _atom_site_label
  _atom_site_symmetry_multiplicity
  _atom_site_fract_x
  _atom_site_fract_y
  _atom_site_fract_z
  _atom_site_occupancy
  H   H1        1.0  0.9639642238616942  0.25237593054771423  0.9299973249435426  1.0000
  I   I1        1.0  0.8203859925270081  0.16850747168064117  0.09945088624954225  1.0000
  I   I2        1.0  0.7009589076042175  0.5664682388305664  0.476849913597107  1.0000
  Li  Li1       1.0  0.9749457240104674  0.444699376821518  0.9820926785469056  1.0000
  Sc  Sc1       1.0  0.3081721067428589  0.67951500415802  0.4152554571628571  1.0000
  Sc  Sc2       1.0  0.5233845710754395  0.47816589474678045  0.5095351338386536  1.0000
  Sc  Sc3       1.0  0.5274764895439148  0.6411651968955994  0.07813108712434769  1.0000
  Sc  Sc4       1.0  0.31220579147338867  0.08179039508104324  0.7582567930221558  1.0000
  Sc  Sc5       1.0  0.40235665440559387  0.33849990367889404  0.8397172689437867  1.0000
  Sc  Sc6       1.0  0.07008983939886093  0.5028747320175171  0.10520281642675401  1.0000
  Zn  Zn1       1.0  0.8115609884262085  0.7769880294799805  0.6585849523544312  1.0000
