data_image0
_chemical_formula_structural       Co4Ga3ScTaTb2
_chemical_formula_sum              "Co4 Ga3 Sc1 Ta1 Tb2"
_cell_length_a       4.940487976584236
_cell_length_b       5.186559549033071
_cell_length_c       9.998926162719727
_cell_angle_alpha    92.73022566697637
_cell_angle_beta     91.65866953948458
_cell_angle_gamma    112.91516303358725

_space_group_name_H-M_alt    "P 1"
_space_group_IT_number       1

loop_
  _space_group_symop_operation_xyz
  'x, y, z'

loop_
  _atom_site_type_symbol
  _atom_site_label
  _atom_site_symmetry_multiplicity
  _atom_site_fract_x
  _atom_site_fract_y
  _atom_site_fract_z
  _atom_site_occupancy
  Co  Co1       1.0  0.8620153069496155  0.5975608229637146  0.22091662883758545  1.0000
  Co  Co2       1.0  0.2037864774465561  0.1591597944498062  0.9828658103942871  1.0000
  Co  Co3       1.0  0.36859792470932007  0.5878618359565735  0.2082708328962326  1.0000
  Co  Co4       1.0  0.8917560577392578  0.1333763152360916  0.9459714293479919  1.0000
  Ga  Ga1       1.0  0.21714739501476288  0.1725819855928421  0.6751311421394348  1.0000
  Ga  Ga2       1.0  0.8594915866851807  0.6094491481781006  0.22242999076843262  1.0000
  Ga  Ga3       1.0  0.6790547370910645  0.9049221277236938  0.08511416614055634  1.0000
  Sc  Sc1       1.0  0.14994779229164124  0.8766628503799438  0.43143716454505926  1.0000
  Ta  Ta1       1.0  0.45908620953559875  0.6210868954658508  0.48487207293510437  1.0000
  Tb  Tb1       1.0  0.7673600912094116  0.6618655920028687  0.7222634553909302  1.0000
  Tb  Tb2       1.0  0.1531703770160675  0.8907739520072937  0.44435802102088934  1.0000
