data_image0
_chemical_formula_structural       Co4Ga4Tb3
_chemical_formula_sum              "Co4 Ga4 Tb3"
_cell_length_a       4.888160564264916
_cell_length_b       4.772841357927378
_cell_length_c       9.845060348510742
_cell_angle_alpha    90.65449163175431
_cell_angle_beta     89.61394215552839
_cell_angle_gamma    117.80085551547123

_space_group_name_H-M_alt    "P 1"
_space_group_IT_number       1

loop_
  _space_group_symop_operation_xyz
  'x, y, z'

loop_
  _atom_site_type_symbol
  _atom_site_label
  _atom_site_symmetry_multiplicity
  _atom_site_fract_x
  _atom_site_fract_y
  _atom_site_fract_z
  _atom_site_occupancy
  Co  Co1       1.0  0.4377666115760803  0.7004209160804749  0.997011661529541  1.0000
  Co  Co2       1.0  0.6074407696723938  0.6994115114212036  0.24478770792484283  1.0000
  Co  Co3       1.0  0.7335691452026367  0.8263212442398071  0.7427873611450195  1.0000
  Co  Co4       1.0  0.43744853138923645  0.696516752243042  0.945876955986023  1.0000
  Ga  Ga1       1.0  0.10627150535583496  0.700812578201294  0.4947596788406372  1.0000
  Ga  Ga2       1.0  0.09775599837303162  0.6927832961082458  0.4981628954410553  1.0000
  Ga  Ga3       1.0  0.09414339810609818  0.1977837234735489  0.7689220309257507  1.0000
  Ga  Ga4       1.0  0.10306084901094437  0.19519111514091492  0.4974411129951477  1.0000
  Tb  Tb1       1.0  0.09276192635297775  0.20003581047058105  0.24262568354606628  1.0000
  Tb  Tb2       1.0  0.5957959294319153  0.6954650282859802  0.10057582706212997  1.0000
  Tb  Tb3       1.0  0.7166651487350464  0.3212639093399048  0.4938325583934784  1.0000
