data_image0
_chemical_formula_structural       ClCo4Ga3Tb3
_chemical_formula_sum              "Cl1 Co4 Ga3 Tb3"
_cell_length_a       5.128165317513212
_cell_length_b       5.23288451992652
_cell_length_c       9.204504013061523
_cell_angle_alpha    92.55321115319556
_cell_angle_beta     90.88921419754118
_cell_angle_gamma    117.35303538270234

_space_group_name_H-M_alt    "P 1"
_space_group_IT_number       1

loop_
  _space_group_symop_operation_xyz
  'x, y, z'

loop_
  _atom_site_type_symbol
  _atom_site_label
  _atom_site_symmetry_multiplicity
  _atom_site_fract_x
  _atom_site_fract_y
  _atom_site_fract_z
  _atom_site_occupancy
  Cl  Cl1       1.0  0.17728151381015778  0.06577614694833755  0.5627375245094299  1.0000
  Co  Co1       1.0  0.642326295375824  0.5698627829551697  0.8539965152740479  1.0000
  Co  Co2       1.0  0.6902544498443604  0.361933171749115  0.7801799774169922  1.0000
  Co  Co3       1.0  0.9735408425331116  0.6223376393318176  0.9713736176490784  1.0000
  Co  Co4       1.0  0.2990756034851074  0.6313035488128662  0.6205594539642334  1.0000
  Ga  Ga1       1.0  0.30636435747146606  0.946392297744751  0.39612752199172974  1.0000
  Ga  Ga2       1.0  0.650752067565918  0.5735706090927124  0.06888926774263382  1.0000
  Ga  Ga3       1.0  0.610800564289093  0.07502446323633194  0.5525338053703308  1.0000
  Tb  Tb1       1.0  0.23102346062660217  0.29541778564453125  0.27933573722839355  1.0000
  Tb  Tb2       1.0  0.6934407353401184  0.2996174991130829  0.32360345125198364  1.0000
  Tb  Tb3       1.0  0.30189818143844604  0.03106076270341873  0.7241576313972473  1.0000
