data_image0
_chemical_formula_structural       Co4Ga4Tb3
_chemical_formula_sum              "Co4 Ga4 Tb3"
_cell_length_a       5.167714622787175
_cell_length_b       5.105489322333146
_cell_length_c       8.959752082824707
_cell_angle_alpha    86.38498626644285
_cell_angle_beta     90.6318834411667
_cell_angle_gamma    124.45105802288748

_space_group_name_H-M_alt    "P 1"
_space_group_IT_number       1

loop_
  _space_group_symop_operation_xyz
  'x, y, z'

loop_
  _atom_site_type_symbol
  _atom_site_label
  _atom_site_symmetry_multiplicity
  _atom_site_fract_x
  _atom_site_fract_y
  _atom_site_fract_z
  _atom_site_occupancy
  Co  Co1       1.0  0.4084276258945465  0.1718960851430893  0.5011410713195801  1.0000
  Co  Co2       1.0  0.4018706679344177  0.8621149063110352  0.2505833506584168  1.0000
  Co  Co3       1.0  0.07039638608694077  0.6299179792404175  0.27419790625572205  1.0000
  Co  Co4       1.0  0.7458174824714661  0.37718796730041504  0.49733391404151917  1.0000
  Ga  Ga1       1.0  0.7382212281227112  0.1260162740945816  0.7160099148750305  1.0000
  Ga  Ga2       1.0  0.7430310249328613  0.16061505675315857  0.9940010905265808  1.0000
  Ga  Ga3       1.0  0.7638193964958191  0.5618449449539185  0.1667662411928177  1.0000
  Ga  Ga4       1.0  0.06517033278942108  0.11440951377153397  0.46899673342704773  1.0000
  Tb  Tb1       1.0  0.4172767102718353  0.48187753558158875  0.7065338492393494  1.0000
  Tb  Tb2       1.0  0.06723286956548691  0.9785029292106628  0.5208530426025391  1.0000
  Tb  Tb3       1.0  0.4127628803253174  0.48652347922325134  0.5090537071228027  1.0000
