data_image0
_chemical_formula_structural       Co4Ga3Tb4
_chemical_formula_sum              "Co4 Ga3 Tb4"
_cell_length_a       4.110231917512571
_cell_length_b       3.457213880187531
_cell_length_c       11.705862045288086
_cell_angle_alpha    104.82984410610571
_cell_angle_beta     95.72625357362979
_cell_angle_gamma    69.69422663561703

_space_group_name_H-M_alt    "P 1"
_space_group_IT_number       1

loop_
  _space_group_symop_operation_xyz
  'x, y, z'

loop_
  _atom_site_type_symbol
  _atom_site_label
  _atom_site_symmetry_multiplicity
  _atom_site_fract_x
  _atom_site_fract_y
  _atom_site_fract_z
  _atom_site_occupancy
  Co  Co1       1.0  0.18490397930145264  0.8623514175415039  0.9746537208557129  1.0000
  Co  Co2       1.0  0.8293841481208801  0.8573886156082153  0.6204082369804382  1.0000
  Co  Co3       1.0  0.6938522458076477  0.8438345789909363  0.023464197292923927  1.0000
  Co  Co4       1.0  0.6144639849662781  0.5271701216697693  0.09729386866092682  1.0000
  Ga  Ga1       1.0  0.21663425862789154  0.845359206199646  0.9323533177375793  1.0000
  Ga  Ga2       1.0  0.9155556559562683  0.5300151705741882  0.28335583209991455  1.0000
  Ga  Ga3       1.0  0.8032422661781311  0.9096119999885559  0.4444925785064697  1.0000
  Tb  Tb1       1.0  0.5157287120819092  0.2763720452785492  0.08539322763681412  1.0000
  Tb  Tb2       1.0  0.3155917227268219  0.9028661251068115  0.46520480513572693  1.0000
  Tb  Tb3       1.0  0.8191624283790588  0.23526190221309662  0.47092899680137634  1.0000
  Tb  Tb4       1.0  0.5440399646759033  0.35346224904060364  0.7878360152244568  1.0000
