data_image0
_chemical_formula_structural       BiClCo4Ga3Tb2
_chemical_formula_sum              "Bi1 Cl1 Co4 Ga3 Tb2"
_cell_length_a       4.980824291618208
_cell_length_b       5.019569503902564
_cell_length_c       9.459332466125488
_cell_angle_alpha    111.12087416625285
_cell_angle_beta     98.25400184986921
_cell_angle_gamma    89.08646348272599

_space_group_name_H-M_alt    "P 1"
_space_group_IT_number       1

loop_
  _space_group_symop_operation_xyz
  'x, y, z'

loop_
  _atom_site_type_symbol
  _atom_site_label
  _atom_site_symmetry_multiplicity
  _atom_site_fract_x
  _atom_site_fract_y
  _atom_site_fract_z
  _atom_site_occupancy
  Bi  Bi1       1.0  0.8496635556221008  0.9130973219871521  0.8160275816917419  1.0000
  Cl  Cl1       1.0  0.6920077204704285  0.7061780691146851  0.7724906802177429  1.0000
  Co  Co1       1.0  0.005845650099217892  0.5626718997955322  0.3095594346523285  1.0000
  Co  Co2       1.0  0.5340888500213623  0.5798689723014832  0.3048679530620575  1.0000
  Co  Co3       1.0  0.6342410445213318  0.8530673384666443  0.2759762406349182  1.0000
  Co  Co4       1.0  0.5675637722015381  0.09881849586963654  0.47657305002212524  1.0000
  Ga  Ga1       1.0  0.3202967643737793  0.5772600173950195  0.824363648891449  1.0000
  Ga  Ga2       1.0  0.32798564434051514  0.6361770033836365  0.04423076659440994  1.0000
  Ga  Ga3       1.0  0.8248041272163391  0.3380231559276581  0.7505804896354675  1.0000
  Tb  Tb1       1.0  0.3233669400215149  0.34967583417892456  0.021790681406855583  1.0000
  Tb  Tb2       1.0  0.13087992370128632  0.23995360732078552  0.8327577710151672  1.0000
