data_image0
_chemical_formula_structural       GeHHg2PTbTeW
_chemical_formula_sum              "Ge1 H1 Hg2 P1 Tb1 Te1 W1"
_cell_length_a       3.933400420546669
_cell_length_b       3.930670223380121
_cell_length_c       12.820931434631348
_cell_angle_alpha    81.3470208182796
_cell_angle_beta     81.10263885465005
_cell_angle_gamma    59.96920878898902

_space_group_name_H-M_alt    "P 1"
_space_group_IT_number       1

loop_
  _space_group_symop_operation_xyz
  'x, y, z'

loop_
  _atom_site_type_symbol
  _atom_site_label
  _atom_site_symmetry_multiplicity
  _atom_site_fract_x
  _atom_site_fract_y
  _atom_site_fract_z
  _atom_site_occupancy
  Ge  Ge1       1.0  0.21734431385993958  0.9324809908866882  0.22735947370529175  1.0000
  H   H1        1.0  0.9382359981536865  0.6570906639099121  0.06061669811606407  1.0000
  Hg  Hg1       1.0  0.8328691720962524  0.5502660274505615  0.37955760955810547  1.0000
  Hg  Hg2       1.0  0.9986250996589661  0.7198313474655151  0.8897679448127747  1.0000
  P   P1        1.0  0.4533400237560272  0.1604202538728714  0.5020128488540649  1.0000
  Tb  Tb1       1.0  0.5910860896110535  0.30507585406303406  0.10079213231801987  1.0000
  Te  Te1       1.0  0.7246472835540771  0.4377962350845337  0.7165435552597046  1.0000
  W   W1        1.0  0.09719415009021759  0.8129346966743469  0.5756187438964844  1.0000
