data_image0
_chemical_formula_structural       Hg3P3Pb2
_chemical_formula_sum              "Hg3 P3 Pb2"
_cell_length_a       4.380052842112827
_cell_length_b       7.219630842065431
_cell_length_c       7.347270488739014
_cell_angle_alpha    75.12379476341243
_cell_angle_beta     72.61104033725344
_cell_angle_gamma    71.89018135357428

_space_group_name_H-M_alt    "P 1"
_space_group_IT_number       1

loop_
  _space_group_symop_operation_xyz
  'x, y, z'

loop_
  _atom_site_type_symbol
  _atom_site_label
  _atom_site_symmetry_multiplicity
  _atom_site_fract_x
  _atom_site_fract_y
  _atom_site_fract_z
  _atom_site_occupancy
  Hg  Hg1       1.0  0.05356684699654579  0.15738101303577423  0.8077089190483093  1.0000
  Hg  Hg2       1.0  0.7057853937149048  0.820770263671875  0.8096879720687866  1.0000
  Hg  Hg3       1.0  0.4170741140842438  0.5109228491783142  0.7084101438522338  1.0000
  P   P1        1.0  0.47073501348495483  0.1575344204902649  0.002985119819641117  1.0000
  P   P2        1.0  0.28336116671562195  0.8966718316078186  0.5993108749389648  1.0000
  P   P3        1.0  0.009444085881114006  0.5144462585449219  0.507362425327301  1.0000
  Pb  Pb1       1.0  0.693098247051239  0.4433690309524536  0.22445534169673917  1.0000
  Pb  Pb2       1.0  0.9331834316253662  0.9062919020652771  0.30073970556259155  1.0000
