data_image0
_chemical_formula_structural       FHgN2PbSbTeW
_chemical_formula_sum              "F1 Hg1 N2 Pb1 Sb1 Te1 W1"
_cell_length_a       6.1625560000376
_cell_length_b       6.128613450496478
_cell_length_c       6.443638801574707
_cell_angle_alpha    61.73346764871419
_cell_angle_beta     61.704995194792446
_cell_angle_gamma    59.90921088803717

_space_group_name_H-M_alt    "P 1"
_space_group_IT_number       1

loop_
  _space_group_symop_operation_xyz
  'x, y, z'

loop_
  _atom_site_type_symbol
  _atom_site_label
  _atom_site_symmetry_multiplicity
  _atom_site_fract_x
  _atom_site_fract_y
  _atom_site_fract_z
  _atom_site_occupancy
  F   F1        1.0  0.3942145109176636  0.6850385069847107  0.29924741387367243  1.0000
  Hg  Hg1       1.0  0.8414299488067627  0.15169581770896912  0.4268630445003509  1.0000
  N   N1        1.0  0.8961406350135803  0.685421347618103  0.2986110150814056  1.0000
  N   N2        1.0  0.39328494668006897  0.19201594591140747  0.29855278134346  1.0000
  Pb  Pb1       1.0  0.3999084532260895  0.6858645081520081  0.7709631323814391  1.0000
  Sb  Sb1       1.0  0.6442833542823792  0.9377210140228271  0.04322543367743485  1.0000
  Te  Te1       1.0  0.0200001560151577  0.2858031690120697  0.89404296875  1.0000
  W   W1        1.0  0.15810123085975647  0.45489779114723206  0.4464951753616333  1.0000
