data_image0
_chemical_formula_structural       CaCoGa5N3
_chemical_formula_sum              "Ca1 Co1 Ga5 N3"
_cell_length_a       4.934650317058147
_cell_length_b       6.614001714770667
_cell_length_c       7.548419952392578
_cell_angle_alpha    117.34016880844536
_cell_angle_beta     98.3033817424853
_cell_angle_gamma    89.53487231083787

_space_group_name_H-M_alt    "P 1"
_space_group_IT_number       1

loop_
  _space_group_symop_operation_xyz
  'x, y, z'

loop_
  _atom_site_type_symbol
  _atom_site_label
  _atom_site_symmetry_multiplicity
  _atom_site_fract_x
  _atom_site_fract_y
  _atom_site_fract_z
  _atom_site_occupancy
  Ca  Ca1       1.0  0.4133346378803253  0.6987714171409607  0.224486842751503  1.0000
  Co  Co1       1.0  0.8786826729774475  0.692275881767273  0.6345246434211731  1.0000
  Ga  Ga1       1.0  0.3770681917667389  0.18656468391418457  0.6063924431800842  1.0000
  Ga  Ga2       1.0  0.3966650068759918  0.19673220813274384  0.4171009063720703  1.0000
  Ga  Ga3       1.0  0.8688454627990723  0.2123459875583649  0.6876734495162964  1.0000
  Ga  Ga4       1.0  0.40092697739601135  0.6635312438011169  0.670291543006897  1.0000
  Ga  Ga5       1.0  0.8965478539466858  0.7024807333946228  0.09285342693328857  1.0000
  N   N1        1.0  0.3621644377708435  0.6970544457435608  0.8926100134849548  1.0000
  N   N2        1.0  0.8694117069244385  0.19526317715644836  0.6061763167381287  1.0000
  N   N3        1.0  0.9677701592445374  0.5160138010978699  0.13313251733779907  1.0000
