data_image0
_chemical_formula_structural       Ca2Ga5N3
_chemical_formula_sum              "Ca2 Ga5 N3"
_cell_length_a       4.4761797894172535
_cell_length_b       6.649915295278301
_cell_length_c       8.270183563232422
_cell_angle_alpha    116.24436616492918
_cell_angle_beta     93.15978262382204
_cell_angle_gamma    89.9729416960105

_space_group_name_H-M_alt    "P 1"
_space_group_IT_number       1

loop_
  _space_group_symop_operation_xyz
  'x, y, z'

loop_
  _atom_site_type_symbol
  _atom_site_label
  _atom_site_symmetry_multiplicity
  _atom_site_fract_x
  _atom_site_fract_y
  _atom_site_fract_z
  _atom_site_occupancy
  Ca  Ca1       1.0  0.3140910565853119  0.17714549601078033  0.6561485528945923  1.0000
  Ca  Ca2       1.0  0.3050217926502228  0.2233741134405136  0.8644798994064331  1.0000
  Ga  Ga1       1.0  0.8312687873840332  0.46234437823295593  0.9029295444488525  1.0000
  Ga  Ga2       1.0  0.8003696203231812  0.9961956739425659  0.45042410492897034  1.0000
  Ga  Ga3       1.0  0.8069983124732971  0.6527284383773804  0.7141903638839722  1.0000
  Ga  Ga4       1.0  0.30840611457824707  0.7321069240570068  0.8371527791023254  1.0000
  Ga  Ga5       1.0  0.8260261416435242  0.5794169306755066  0.2231006771326065  1.0000
  N   N1        1.0  0.8355270028114319  0.8534115552902222  0.17843207716941833  1.0000
  N   N2        1.0  0.8161481022834778  0.6988951563835144  0.3652913272380829  1.0000
  N   N3        1.0  0.3106871545314789  0.9691858291625977  0.6612430214881897  1.0000
