data_image0
_chemical_formula_structural       Ca3Ga5N2
_chemical_formula_sum              "Ca3 Ga5 N2"
_cell_length_a       5.549591832376858
_cell_length_b       5.891863619240477
_cell_length_c       9.363344192504883
_cell_angle_alpha    88.38913449219561
_cell_angle_beta     90.60209919382149
_cell_angle_gamma    118.60168796714495

_space_group_name_H-M_alt    "P 1"
_space_group_IT_number       1

loop_
  _space_group_symop_operation_xyz
  'x, y, z'

loop_
  _atom_site_type_symbol
  _atom_site_label
  _atom_site_symmetry_multiplicity
  _atom_site_fract_x
  _atom_site_fract_y
  _atom_site_fract_z
  _atom_site_occupancy
  Ca  Ca1       1.0  0.872762143611908  0.8044895529747009  0.6287303566932678  1.0000
  Ca  Ca2       1.0  0.5115813612937927  0.5885496139526367  0.0671350359916687  1.0000
  Ca  Ca3       1.0  0.8791369795799255  0.7962102890014648  0.32427278161048884  1.0000
  Ga  Ga1       1.0  0.23754221200943  0.9781078100204469  0.4840441942214966  1.0000
  Ga  Ga2       1.0  0.8475644588470459  0.3058686852455139  0.3172033727169037  1.0000
  Ga  Ga3       1.0  0.8632214069366455  0.30251866579055786  0.6425827145576477  1.0000
  Ga  Ga4       1.0  0.22554846107959753  0.9448987245559693  0.8170815706253052  1.0000
  Ga  Ga5       1.0  0.37485560774803167  0.8404633402824403  0.4818880259990692  1.0000
  N   N1        1.0  0.2728002071380615  0.31490764021873474  0.2834496796131134  1.0000
  N   N2        1.0  0.8796033263206482  0.5162280201911926  0.21546159684658045  1.0000
