data_image0
_chemical_formula_structural       Ca6Ga4
_chemical_formula_sum              "Ca6 Ga4"
_cell_length_a       5.188189115813987
_cell_length_b       6.789750219031369
_cell_length_c       6.999456405639648
_cell_angle_alpha    78.09231379635989
_cell_angle_beta     67.5241148473508
_cell_angle_gamma    66.99748625588985

_space_group_name_H-M_alt    "P 1"
_space_group_IT_number       1

loop_
  _space_group_symop_operation_xyz
  'x, y, z'

loop_
  _atom_site_type_symbol
  _atom_site_label
  _atom_site_symmetry_multiplicity
  _atom_site_fract_x
  _atom_site_fract_y
  _atom_site_fract_z
  _atom_site_occupancy
  Ca  Ca1       1.0  0.16054730117321026  0.9976065158843993  0.7287155389785767  1.0000
  Ca  Ca2       1.0  0.42789342999458313  0.8542757630348204  0.2710215747356415  1.0000
  Ca  Ca3       1.0  0.7775201201438904  0.4836294054985046  0.0833999291062355  1.0000
  Ca  Ca4       1.0  0.22704589366912842  0.6540655493736267  0.33589664101600647  1.0000
  Ca  Ca5       1.0  0.7628517746925354  0.17725273966789246  0.6882359981536865  1.0000
  Ca  Ca6       1.0  0.8727526068687439  0.7719378471374512  0.9665711522102355  1.0000
  Ga  Ga1       1.0  0.6963391304016113  0.1113568991422653  0.7780442237854003  1.0000
  Ga  Ga2       1.0  0.21712817251682281  0.17442315816879272  0.8192718029022216  1.0000
  Ga  Ga3       1.0  0.20641781389713287  0.11609122157096861  0.443245381116867  1.0000
  Ga  Ga4       1.0  0.7078788876533509  0.8783327341079711  0.5697891712188721  1.0000
