data_image0
_chemical_formula_structural       Ca2Ga5N3
_chemical_formula_sum              "Ca2 Ga5 N3"
_cell_length_a       5.461261323586147
_cell_length_b       5.811688487090386
_cell_length_c       7.649989604949951
_cell_angle_alpha    104.52390441950119
_cell_angle_beta     97.17777452691584
_cell_angle_gamma    111.27216358660215

_space_group_name_H-M_alt    "P 1"
_space_group_IT_number       1

loop_
  _space_group_symop_operation_xyz
  'x, y, z'

loop_
  _atom_site_type_symbol
  _atom_site_label
  _atom_site_symmetry_multiplicity
  _atom_site_fract_x
  _atom_site_fract_y
  _atom_site_fract_z
  _atom_site_occupancy
  Ca  Ca1       1.0  0.3856484293937683  0.8260495066642761  0.9372737407684326  1.0000
  Ca  Ca2       1.0  0.1769929826259613  0.7197803854942322  0.9346892237663269  1.0000
  Ga  Ga1       1.0  0.18228191137313843  0.2613815367221832  0.17665442824363708  1.0000
  Ga  Ga2       1.0  0.6815825700759888  0.7349047660827637  0.6606757044792175  1.0000
  Ga  Ga3       1.0  0.6793375015258789  0.20933395624160767  0.2857542634010315  1.0000
  Ga  Ga4       1.0  0.1857493817806244  0.1951446533203125  0.637117326259613  1.0000
  Ga  Ga5       1.0  0.6915823817253113  0.22510196268558502  0.8862154483795166  1.0000
  N   N1        1.0  0.17919540405273438  0.18067258596420288  0.7240312695503235  1.0000
  N   N2        1.0  0.8752536773681641  0.6738424897193909  0.4108580946922302  1.0000
  N   N3        1.0  0.7766570448875427  0.6901277303695679  0.7205652594566345  1.0000
