data_image0
_chemical_formula_structural       Ca5Ga4N
_chemical_formula_sum              "Ca5 Ga4 N1"
_cell_length_a       5.581534121968984
_cell_length_b       8.372710444717585
_cell_length_c       8.802700996398926
_cell_angle_alpha    123.10946004356902
_cell_angle_beta     89.53623313488734
_cell_angle_gamma    89.53146086179262

_space_group_name_H-M_alt    "P 1"
_space_group_IT_number       1

loop_
  _space_group_symop_operation_xyz
  'x, y, z'

loop_
  _atom_site_type_symbol
  _atom_site_label
  _atom_site_symmetry_multiplicity
  _atom_site_fract_x
  _atom_site_fract_y
  _atom_site_fract_z
  _atom_site_occupancy
  Ca  Ca1       1.0  0.09741159528493881  0.2796669900417328  0.03497099503874779  1.0000
  Ca  Ca2       1.0  0.853705644607544  0.03833479806780815  0.13841280341148376  1.0000
  Ca  Ca3       1.0  0.5938478112220764  0.7572983503341675  0.5520452857017517  1.0000
  Ca  Ca4       1.0  0.10363868623971939  0.28267794847488403  0.21134504675865173  1.0000
  Ca  Ca5       1.0  0.34648653864860535  0.9138845801353455  0.818656325340271  1.0000
  Ga  Ga1       1.0  0.8461431860923767  0.79071444272995  0.5216175317764282  1.0000
  Ga  Ga2       1.0  0.1110413521528244  0.3544654846191406  0.22453573346138  1.0000
  Ga  Ga3       1.0  0.5950945615768433  0.17595352232456207  0.3671582043170929  1.0000
  Ga  Ga4       1.0  0.599338710308075  0.32107678055763245  0.04425320029258728  1.0000
  N   N1        1.0  0.34764084219932556  0.915559709072113  0.823580265045166  1.0000
