data_image0
_chemical_formula_structural       CuFLi3Lu2O2Zn
_chemical_formula_sum              "Cu1 F1 Li3 Lu2 O2 Zn1"
_cell_length_a       5.237428591345065
_cell_length_b       5.840681478980747
_cell_length_c       6.3525543212890625
_cell_angle_alpha    64.52189396568427
_cell_angle_beta     61.43382799772553
_cell_angle_gamma    59.41916536145097

_space_group_name_H-M_alt    "P 1"
_space_group_IT_number       1

loop_
  _space_group_symop_operation_xyz
  'x, y, z'

loop_
  _atom_site_type_symbol
  _atom_site_label
  _atom_site_symmetry_multiplicity
  _atom_site_fract_x
  _atom_site_fract_y
  _atom_site_fract_z
  _atom_site_occupancy
  Cu  Cu1       1.0  0.35917046666145325  0.25513380765914917  0.7694812417030334  1.0000
  F   F1        1.0  0.4688967168331146  0.49535271525382996  0.38253214955329895  1.0000
  Li  Li1       1.0  0.849197268486023  0.21932940185070038  0.10754147171974182  1.0000
  Li  Li2       1.0  0.8484723567962646  0.7350942492485046  0.8005884289741516  1.0000
  Li  Li3       1.0  0.8649806380271912  0.8177938461303711  0.7273285984992981  1.0000
  Lu  Lu1       1.0  0.07864123582839966  0.25644201040267944  0.22786305844783783  1.0000
  Lu  Lu2       1.0  0.3611937165260315  0.7298420667648315  0.9571868181228638  1.0000
  O   O1        1.0  0.6471901535987854  0.4839828908443451  0.23576511442661277  1.0000
  O   O2        1.0  0.9598022103309631  0.9874313473701477  0.43685808777809143  1.0000
  Zn  Zn1       1.0  0.8566558957099915  0.7790874242782593  0.07328039407730103  1.0000
