data_image0
_chemical_formula_structural       CuLi4Lu2O2P
_chemical_formula_sum              "Cu1 Li4 Lu2 O2 P1"
_cell_length_a       5.364201292837253
_cell_length_b       5.694588021623802
_cell_length_c       5.745108604431152
_cell_angle_alpha    60.71889112382666
_cell_angle_beta     58.24280912101182
_cell_angle_gamma    59.57050504701281

_space_group_name_H-M_alt    "P 1"
_space_group_IT_number       1

loop_
  _space_group_symop_operation_xyz
  'x, y, z'

loop_
  _atom_site_type_symbol
  _atom_site_label
  _atom_site_symmetry_multiplicity
  _atom_site_fract_x
  _atom_site_fract_y
  _atom_site_fract_z
  _atom_site_occupancy
  Cu  Cu1       1.0  0.8107542991638184  0.2538670599460602  0.9345079064369202  1.0000
  Li  Li1       1.0  0.31174594163894653  0.24909824132919312  0.6030388474464417  1.0000
  Li  Li2       1.0  0.04916197061538696  0.695393443107605  0.58249431848526  1.0000
  Li  Li3       1.0  0.19010098278522491  0.357560932636261  0.4308628439903259  1.0000
  Li  Li4       1.0  0.9078579545021057  0.34979090094566345  0.8351103663444519  1.0000
  Lu  Lu1       1.0  0.7807594537734985  0.9377710223197937  0.6360583305358887  1.0000
  Lu  Lu2       1.0  0.4110427796840668  0.858748733997345  0.2607603371143341  1.0000
  O   O1        1.0  0.0754217877984047  0.9875844120979309  0.1778564602136612  1.0000
  O   O2        1.0  0.48868969082832336  0.922077476978302  0.10353399068117142  1.0000
  P   P1        1.0  0.5392794013023376  0.6987376809120178  0.0063375490717589855  1.0000
