data_image0
_chemical_formula_structural       Cu3Li3O3Tb
_chemical_formula_sum              "Cu3 Li3 O3 Tb1"
_cell_length_a       2.9929619787229185
_cell_length_b       5.263755775122402
_cell_length_c       6.530821323394775
_cell_angle_alpha    90.97178656280069
_cell_angle_beta     89.5592638902639
_cell_angle_gamma    89.33203299261052

_space_group_name_H-M_alt    "P 1"
_space_group_IT_number       1

loop_
  _space_group_symop_operation_xyz
  'x, y, z'

loop_
  _atom_site_type_symbol
  _atom_site_label
  _atom_site_symmetry_multiplicity
  _atom_site_fract_x
  _atom_site_fract_y
  _atom_site_fract_z
  _atom_site_occupancy
  Cu  Cu1       1.0  0.0682561993598938  0.3329130709171295  0.3199673295021057  1.0000
  Cu  Cu2       1.0  0.5583953857421875  0.8628406524658203  0.6123062372207642  1.0000
  Cu  Cu3       1.0  0.5651830434799194  0.8407864570617676  0.03574460372328758  1.0000
  Li  Li1       1.0  0.5715055465698242  0.359087198972702  0.6320372819900513  1.0000
  Li  Li2       1.0  0.06166324391961097  0.18440090119838715  0.8525479435920715  1.0000
  Li  Li3       1.0  0.06757794320583344  0.568814218044281  0.7779260873794556  1.0000
  O   O1        1.0  0.5641167759895325  0.1412859708070755  0.32918065786361694  1.0000
  O   O2        1.0  0.05728249251842498  0.8253227472305298  0.3347059488296509  1.0000
  O   O3        1.0  0.5492272973060608  0.3485291004180908  0.6473163366317749  1.0000
  Tb  Tb1       1.0  0.06296553462743759  0.5834566950798035  0.32133281230926514  1.0000
