data_image0
_chemical_formula_structural       Li4Lu2O2PdZn
_chemical_formula_sum              "Li4 Lu2 O2 Pd1 Zn1"
_cell_length_a       5.3552188927160085
_cell_length_b       5.742008142375416
_cell_length_c       5.853836536407471
_cell_angle_alpha    59.7557813418111
_cell_angle_beta     59.631296485734545
_cell_angle_gamma    60.40708148417999

_space_group_name_H-M_alt    "P 1"
_space_group_IT_number       1

loop_
  _space_group_symop_operation_xyz
  'x, y, z'

loop_
  _atom_site_type_symbol
  _atom_site_label
  _atom_site_symmetry_multiplicity
  _atom_site_fract_x
  _atom_site_fract_y
  _atom_site_fract_z
  _atom_site_occupancy
  Li  Li1       1.0  0.9636238813400269  0.10784709453582764  0.46593376994132996  1.0000
  Li  Li2       1.0  0.4675862193107605  0.10841771960258484  0.013435686007142105  1.0000
  Li  Li3       1.0  0.5000008344650269  0.43752002716064453  0.6716136336326599  1.0000
  Li  Li4       1.0  0.011428957805037498  0.3964107036590576  0.6757518649101256  1.0000
  Lu  Lu1       1.0  0.31279391050338745  0.9452780485153198  0.18590223789215088  1.0000
  Lu  Lu2       1.0  0.0072743711061775684  0.06303373724222183  0.6739540100097655  1.0000
  O   O1        1.0  0.8213896751403809  0.44403839111328125  0.19883176684379586  1.0000
  O   O2        1.0  0.6033744812011719  0.9578164219856262  0.173346146941185  1.0000
  Pd  Pd1       1.0  0.3945028483867645  0.7266547083854675  0.7699746489524841  1.0000
  Zn  Zn1       1.0  0.7240633368492126  0.7226932048797607  0.020628880709409714  1.0000
