data_image0
_chemical_formula_structural       Cu4Li4O2
_chemical_formula_sum              "Cu4 Li4 O2"
_cell_length_a       3.425207359404701
_cell_length_b       4.980149855378777
_cell_length_c       7.017633438110352
_cell_angle_alpha    91.8935456796294
_cell_angle_beta     98.97184081094689
_cell_angle_gamma    89.53294005564439

_space_group_name_H-M_alt    "P 1"
_space_group_IT_number       1

loop_
  _space_group_symop_operation_xyz
  'x, y, z'

loop_
  _atom_site_type_symbol
  _atom_site_label
  _atom_site_symmetry_multiplicity
  _atom_site_fract_x
  _atom_site_fract_y
  _atom_site_fract_z
  _atom_site_occupancy
  Cu  Cu1       1.0  0.6945831775665283  0.13713501393795013  0.4174682796001434  1.0000
  Cu  Cu2       1.0  0.21556726098060608  0.2937615215778351  0.4550073146820068  1.0000
  Cu  Cu3       1.0  0.3239017128944397  0.424008309841156  0.8305146098136901  1.0000
  Cu  Cu4       1.0  0.3307056128978729  0.42402270436286926  0.8106312751770018  1.0000
  Li  Li1       1.0  0.963320255279541  0.8676443099975586  0.45806127786636347  1.0000
  Li  Li2       1.0  0.7133761048316956  0.8415645360946655  0.9781988263130187  1.0000
  Li  Li3       1.0  0.22674612700939178  0.832123875617981  0.9545738697052001  1.0000
  Li  Li4       1.0  0.21589088439941406  0.3853622078895569  0.9115206599235534  1.0000
  O   O1        1.0  0.8936368823051453  0.6512101292610168  0.15689677000045776  1.0000
  O   O2        1.0  0.6441129446029663  0.18005144596099854  0.9778599143028258  1.0000
