data_image0
_chemical_formula_structural       Cu2Li3Lu2O3
_chemical_formula_sum              "Cu2 Li3 Lu2 O3"
_cell_length_a       5.815350119375909
_cell_length_b       6.0988300899559365
_cell_length_c       6.361303806304932
_cell_angle_alpha    70.53283578427069
_cell_angle_beta     62.99754414692675
_cell_angle_gamma    61.31507041761339

_space_group_name_H-M_alt    "P 1"
_space_group_IT_number       1

loop_
  _space_group_symop_operation_xyz
  'x, y, z'

loop_
  _atom_site_type_symbol
  _atom_site_label
  _atom_site_symmetry_multiplicity
  _atom_site_fract_x
  _atom_site_fract_y
  _atom_site_fract_z
  _atom_site_occupancy
  Cu  Cu1       1.0  0.2426901012659073  0.7705667614936829  0.49989649653434753  1.0000
  Cu  Cu2       1.0  0.7381345629692078  0.8184013366699219  0.012125317938625813  1.0000
  Li  Li1       1.0  0.9513896703720093  0.985265851020813  0.2859361469745636  1.0000
  Li  Li2       1.0  0.2664715647697449  0.32729843258857727  0.6682286858558655  1.0000
  Li  Li3       1.0  0.7375105619430542  0.8211736083030701  0.3216613233089447  1.0000
  Lu  Lu1       1.0  0.7404009699821472  0.324902206659317  0.998466968536377  1.0000
  Lu  Lu2       1.0  0.3458733558654785  0.35765254497528076  0.4969661831855774  1.0000
  O   O1        1.0  0.8555949926376343  0.4501107931137085  0.00749294925481081  1.0000
  O   O2        1.0  0.6893647313117981  0.2032354325056076  0.7557708024978638  1.0000
  O   O3        1.0  0.11937004327774048  0.27247318625450134  0.8291609883308411  1.0000
