data_image0
_chemical_formula_structural       CaO4Si9
_chemical_formula_sum              "Ca1 O4 Si9"
_cell_length_a       5.827101317852209
_cell_length_b       6.248366413713682
_cell_length_c       7.679563045501709
_cell_angle_alpha    105.36561785665984
_cell_angle_beta     105.3076845753782
_cell_angle_gamma    110.57891063542611

_space_group_name_H-M_alt    "P 1"
_space_group_IT_number       1

loop_
  _space_group_symop_operation_xyz
  'x, y, z'

loop_
  _atom_site_type_symbol
  _atom_site_label
  _atom_site_symmetry_multiplicity
  _atom_site_fract_x
  _atom_site_fract_y
  _atom_site_fract_z
  _atom_site_occupancy
  Ca  Ca1       1.0  0.11400169879198074  0.7833956480026245  0.3193666636943817  1.0000
  O   O1        1.0  0.9577318429946899  0.1957867294549942  0.39720541238784784  1.0000
  O   O2        1.0  0.0003752037300728311  0.30458179116249084  0.1720423251390457  1.0000
  O   O3        1.0  0.5137567520141602  0.08259483426809311  0.602630615234375  1.0000
  O   O4        1.0  0.5599645972251892  0.8307892084121704  0.17280833423137662  1.0000
  Si  Si1       1.0  0.5179687738418579  0.37239307165145874  0.42246577143669123  1.0000
  Si  Si2       1.0  0.7127565145492554  0.5789223909378052  0.09029191732406615  1.0000
  Si  Si3       1.0  0.9672577977180481  0.2692662477493286  0.8441688418388366  1.0000
  Si  Si4       1.0  0.10864705592393875  0.39756128191947937  0.40823584794998163  1.0000
  Si  Si5       1.0  0.2533766031265259  0.17703725397586823  0.011434470303356646  1.0000
  Si  Si6       1.0  0.6043134927749634  0.838151752948761  0.4430225789546966  1.0000
  Si  Si7       1.0  0.9460665583610535  0.3196524381637573  0.4895669519901275  1.0000
  Si  Si8       1.0  0.8242141008377075  0.48530229926109314  0.8295605778694152  1.0000
  Si  Si9       1.0  0.33490270376205444  0.05462833121418953  0.8551446199417113  1.0000
