data_image0
_chemical_formula_structural       CaO3Si10
_chemical_formula_sum              "Ca1 O3 Si10"
_cell_length_a       5.901094399526073
_cell_length_b       6.301384985311866
_cell_length_c       6.6609296798706055
_cell_angle_alpha    109.64985671760081
_cell_angle_beta     105.22947591202737
_cell_angle_gamma    113.47168310947002

_space_group_name_H-M_alt    "P 1"
_space_group_IT_number       1

loop_
  _space_group_symop_operation_xyz
  'x, y, z'

loop_
  _atom_site_type_symbol
  _atom_site_label
  _atom_site_symmetry_multiplicity
  _atom_site_fract_x
  _atom_site_fract_y
  _atom_site_fract_z
  _atom_site_occupancy
  Ca  Ca1       1.0  0.706512451171875  0.03912626579403877  0.05876709148287773  1.0000
  O   O1        1.0  0.6431424617767334  0.01601603254675865  0.23194555938243866  1.0000
  O   O2        1.0  0.5276554226875305  0.0964035615324974  0.2808859050273895  1.0000
  O   O3        1.0  0.6912040710449219  0.8882575631141664  0.45874837040901184  1.0000
  Si  Si1       1.0  0.6545055508613586  0.12459839880466463  0.9231390357017517  1.0000
  Si  Si2       1.0  0.9807556867599486  0.5731879472732544  0.22951623797416687  1.0000
  Si  Si3       1.0  0.9087545871734619  0.4484268724918366  0.6757844090461731  1.0000
  Si  Si4       1.0  0.01987352594733242  0.4823387563228608  0.5868955850601196  1.0000
  Si  Si5       1.0  0.7020521759986877  0.7480580806732178  0.8503780364990234  1.0000
  Si  Si6       1.0  0.3800995945930481  0.2501484751701355  0.9821460247039795  1.0000
  Si  Si7       1.0  0.9918019771575927  0.7619022727012634  0.533899188041687  1.0000
  Si  Si8       1.0  0.317241370677948  0.11135205626487733  0.6291194558143616  1.0000
  Si  Si9       1.0  0.6957911849021912  0.7205619812011719  0.42038124799728394  1.0000
  Si  Si10      1.0  0.19663785398006442  0.451570212841034  0.9428612589836121  1.0000
