data_image0
_chemical_formula_structural       CaO3Si10
_chemical_formula_sum              "Ca1 O3 Si10"
_cell_length_a       5.926410926064243
_cell_length_b       7.343072188101298
_cell_length_c       7.478305339813232
_cell_angle_alpha    66.48163074277406
_cell_angle_beta     68.59674174473645
_cell_angle_gamma    69.86834698392057

_space_group_name_H-M_alt    "P 1"
_space_group_IT_number       1

loop_
  _space_group_symop_operation_xyz
  'x, y, z'

loop_
  _atom_site_type_symbol
  _atom_site_label
  _atom_site_symmetry_multiplicity
  _atom_site_fract_x
  _atom_site_fract_y
  _atom_site_fract_z
  _atom_site_occupancy
  Ca  Ca1       1.0  0.19176308810710907  0.6695737242698669  0.5187051296234131  1.0000
  O   O1        1.0  0.15639428794384003  0.6446170210838318  0.841671347618103  1.0000
  O   O2        1.0  0.044705942273139954  0.9853630065917969  0.6737558245658875  1.0000
  O   O3        1.0  0.514707624912262  0.453936904668808  0.009546990506350994  1.0000
  Si  Si1       1.0  0.40289705991744995  0.4966556131839752  0.23777654767036438  1.0000
  Si  Si2       1.0  0.6963484287261963  0.6498588919639587  0.6767441630363464  1.0000
  Si  Si3       1.0  0.7149659395217896  0.7715961337089539  0.03518798202276236  1.0000
  Si  Si4       1.0  0.00384538434445858  0.7735856771469116  0.04300735145807266  1.0000
  Si  Si5       1.0  0.9121696949005127  0.43690595030784607  0.2484932392835617  1.0000
  Si  Si6       1.0  0.1381562054157257  0.2820868194103241  0.7954602241516113  1.0000
  Si  Si7       1.0  0.27467891573905945  0.9310932159423828  0.918068528175354  1.0000
  Si  Si8       1.0  0.41358786821365356  0.16486921906471252  0.2756717801094055  1.0000
  Si  Si9       1.0  0.6501942873001099  0.9432032108306885  0.3512597978115082  1.0000
  Si  Si10      1.0  0.7027417421340942  0.3710024654865265  0.536233127117157  1.0000
