data_image0
_chemical_formula_structural       Ca2Mn2O3Si7
_chemical_formula_sum              "Ca2 Mn2 O3 Si7"
_cell_length_a       5.4503875441417575
_cell_length_b       5.61734101341402
_cell_length_c       7.352147579193115
_cell_angle_alpha    107.72613975702309
_cell_angle_beta     92.67982226625821
_cell_angle_gamma    129.26411105219765

_space_group_name_H-M_alt    "P 1"
_space_group_IT_number       1

loop_
  _space_group_symop_operation_xyz
  'x, y, z'

loop_
  _atom_site_type_symbol
  _atom_site_label
  _atom_site_symmetry_multiplicity
  _atom_site_fract_x
  _atom_site_fract_y
  _atom_site_fract_z
  _atom_site_occupancy
  Ca  Ca1       1.0  0.6326648592948914  0.6753774881362915  0.9686884284019469  1.0000
  Ca  Ca2       1.0  0.6480485200881958  0.3111724257469177  0.06768841296434404  1.0000
  Mn  Mn1       1.0  0.15248066186904907  0.5264353156089783  0.2311628609895706  1.0000
  Mn  Mn2       1.0  0.18126608431339264  0.7671476006507874  0.8755935430526732  1.0000
  O   O1        1.0  0.17264705896377563  0.6073372960090637  0.13602909445762634  1.0000
  O   O2        1.0  0.16404183208942413  0.7087841033935547  0.3608331084251403  1.0000
  O   O3        1.0  0.20559106767177582  0.8368974924087524  0.484985738992691  1.0000
  Si  Si1       1.0  0.656022310256958  0.6951962113380432  0.3869169950485229  1.0000
  Si  Si2       1.0  0.25941145420074463  0.08675956726074219  0.7896935939788817  1.0000
  Si  Si3       1.0  0.7228448390960693  0.23244762420654297  0.7202773690223693  1.0000
  Si  Si4       1.0  0.6329896450042725  0.20408305525779724  0.6355740427970886  1.0000
  Si  Si5       1.0  0.637308657169342  0.8013332486152649  0.7184134125709533  1.0000
  Si  Si6       1.0  0.885966956615448  0.19724559783935547  0.3132596015930176  1.0000
  Si  Si7       1.0  0.6828153133392334  0.10137102752923965  0.7537320852279662  1.0000
