data_image0
_chemical_formula_structural       IO3Si10
_chemical_formula_sum              "I1 O3 Si10"
_cell_length_a       5.3598986674428355
_cell_length_b       6.581911371327503
_cell_length_c       6.9375224113464355
_cell_angle_alpha    68.48143695305743
_cell_angle_beta     69.94902162053617
_cell_angle_gamma    66.77781230928338

_space_group_name_H-M_alt    "P 1"
_space_group_IT_number       1

loop_
  _space_group_symop_operation_xyz
  'x, y, z'

loop_
  _atom_site_type_symbol
  _atom_site_label
  _atom_site_symmetry_multiplicity
  _atom_site_fract_x
  _atom_site_fract_y
  _atom_site_fract_z
  _atom_site_occupancy
  I   I1        1.0  0.1486697793006897  0.9896425604820251  0.29074299335479736  1.0000
  O   O1        1.0  0.6452091336250305  0.3185974955558777  0.6350420713424683  1.0000
  O   O2        1.0  0.5799816846847534  0.6066474914550781  0.015553450211882591  1.0000
  O   O3        1.0  0.19055987894535065  0.8462640643119812  0.6471908688545227  1.0000
  Si  Si1       1.0  0.9463040828704833  0.05876941978931427  0.12631899118423465  1.0000
  Si  Si2       1.0  0.6836517453193665  0.3175722360610962  0.3379170894622803  1.0000
  Si  Si3       1.0  0.7061007618904114  0.2806633710861206  0.7526081204414368  1.0000
  Si  Si4       1.0  0.01002001203596592  0.4078958332538605  0.8969079852104187  1.0000
  Si  Si5       1.0  0.41296258568763733  0.49473655223846436  0.14366298913955688  1.0000
  Si  Si6       1.0  0.9084473252296447  0.1478230059146881  0.567965030670166  1.0000
  Si  Si7       1.0  0.8882237672805785  0.8364521861076355  0.14362657070159912  1.0000
  Si  Si8       1.0  0.8133124709129333  0.24965900182724  0.7324808835983276  1.0000
  Si  Si9       1.0  0.18835508823394775  0.5435901880264282  0.9950226545333862  1.0000
  Si  Si10      1.0  0.16454331576824188  0.18472756445407867  0.5027435421943665  1.0000
