data_image0
_chemical_formula_structural       Ca3Mn3O3Si5
_chemical_formula_sum              "Ca3 Mn3 O3 Si5"
_cell_length_a       5.1388417031235
_cell_length_b       5.916481478943798
_cell_length_c       6.838330268859863
_cell_angle_alpha    91.83625290018266
_cell_angle_beta     90.71714023524765
_cell_angle_gamma    99.53072885277966

_space_group_name_H-M_alt    "P 1"
_space_group_IT_number       1

loop_
  _space_group_symop_operation_xyz
  'x, y, z'

loop_
  _atom_site_type_symbol
  _atom_site_label
  _atom_site_symmetry_multiplicity
  _atom_site_fract_x
  _atom_site_fract_y
  _atom_site_fract_z
  _atom_site_occupancy
  Ca  Ca1       1.0  0.10388067364692688  0.5451866388320923  0.29010090231895447  1.0000
  Ca  Ca2       1.0  0.6025440096855164  0.7743346691131592  0.29874011874198914  1.0000
  Ca  Ca3       1.0  0.643433153629303  0.9038805365562439  0.1592622548341751  1.0000
  Mn  Mn1       1.0  0.664692759513855  0.013483220711350441  0.8123790621757507  1.0000
  Mn  Mn2       1.0  0.16127899289131165  0.8696399331092834  0.32141029834747314  1.0000
  Mn  Mn3       1.0  0.10552364587783813  0.7618973255157471  0.8343809843063354  1.0000
  O   O1        1.0  0.9802623391151428  0.7801891565322876  0.5772920846939087  1.0000
  O   O2        1.0  0.43159663677215576  0.881534993648529  0.6842296719551086  1.0000
  O   O3        1.0  0.32920971512794495  0.9730278253555298  0.4044334292411804  1.0000
  Si  Si1       1.0  0.600728452205658  0.5495192408561707  0.310090035200119  1.0000
  Si  Si2       1.0  0.5911606550216675  0.2640646696090698  0.7774225473403931  1.0000
  Si  Si3       1.0  0.15863624215126038  0.18677851557731628  0.1848139613866806  1.0000
  Si  Si4       1.0  0.674746572971344  0.18604451417922974  0.14516429603099823  1.0000
  Si  Si5       1.0  0.02279779314994812  0.43689242005348206  0.3538471460342407  1.0000
