data_image0
_chemical_formula_structural       Co2SSb3Sm4
_chemical_formula_sum              "Co2 S1 Sb3 Sm4"
_cell_length_a       6.0305025292506755
_cell_length_b       7.515190030233325
_cell_length_c       8.178908348083496
_cell_angle_alpha    122.3584341348719
_cell_angle_beta     90.08658305727936
_cell_angle_gamma    87.79901578077381

_space_group_name_H-M_alt    "P 1"
_space_group_IT_number       1

loop_
  _space_group_symop_operation_xyz
  'x, y, z'

loop_
  _atom_site_type_symbol
  _atom_site_label
  _atom_site_symmetry_multiplicity
  _atom_site_fract_x
  _atom_site_fract_y
  _atom_site_fract_z
  _atom_site_occupancy
  Co  Co1       1.0  0.6993663907051086  0.14172068238258362  0.2947637438774109  1.0000
  Co  Co2       1.0  0.1996757984161377  0.6457475423812866  0.25760084390640253  1.0000
  S   S1        1.0  0.20096814632415771  0.39202880859375  0.7940172553062438  1.0000
  Sb  Sb1       1.0  0.19759155809879303  0.7498096823692322  0.03374643623828888  1.0000
  Sb  Sb2       1.0  0.20007121562957764  0.7763734459877014  0.8302657008171082  1.0000
  Sb  Sb3       1.0  0.7011024355888367  0.4385717213153839  0.3831009268760681  1.0000
  Sm  Sm1       1.0  0.6984663009643555  0.39506179094314575  0.4856014847755432  1.0000
  Sm  Sm2       1.0  0.7014675140380859  0.12645013630390167  0.4563848674297333  1.0000
  Sm  Sm3       1.0  0.20011192560195923  0.2676351070404053  0.6658809781074524  1.0000
  Sm  Sm4       1.0  0.7014815211296082  0.9123749136924744  0.4439421296119689  1.0000
