data_image0
_chemical_formula_structural       GeS2SbSm6
_chemical_formula_sum              "Ge1 S2 Sb1 Sm6"
_cell_length_a       6.10987345975383
_cell_length_b       6.624368330904906
_cell_length_c       10.83968448638916
_cell_angle_alpha    105.93253767462217
_cell_angle_beta     96.7411747130933
_cell_angle_gamma    110.97061050635905

_space_group_name_H-M_alt    "P 1"
_space_group_IT_number       1

loop_
  _space_group_symop_operation_xyz
  'x, y, z'

loop_
  _atom_site_type_symbol
  _atom_site_label
  _atom_site_symmetry_multiplicity
  _atom_site_fract_x
  _atom_site_fract_y
  _atom_site_fract_z
  _atom_site_occupancy
  Ge  Ge1       1.0  0.3461250364780426  0.016313085332512856  0.33955487608909607  1.0000
  S   S1        1.0  0.9064373970031737  0.3596901297569275  0.5450043082237244  1.0000
  S   S2        1.0  0.9038603901863097  0.3588186502456665  0.004837249871343374  1.0000
  Sb  Sb1       1.0  0.4078718721866607  0.3501925766468048  0.19130364060401917  1.0000
  Sm  Sm1       1.0  0.7360199689865112  0.956418514251709  0.6630034446716309  1.0000
  Sm  Sm2       1.0  0.22054834663867948  0.49251991510391235  0.8988864421844484  1.0000
  Sm  Sm3       1.0  0.897420048713684  0.26082590222358704  0.91877019405365  1.0000
  Sm  Sm4       1.0  0.39667299389839167  0.011252517811954021  0.9219423532485963  1.0000
  Sm  Sm5       1.0  0.9011878371238707  0.24566633999347687  0.53190678358078  1.0000
  Sm  Sm6       1.0  0.4054716825485229  0.7706530690193176  0.46076700091362005  1.0000
