data_image0
_chemical_formula_structural       S2Sm8
_chemical_formula_sum              "S2 Sm8"
_cell_length_a       5.164233076907212
_cell_length_b       5.083370966213594
_cell_length_c       9.564732551574707
_cell_angle_alpha    94.15272270335278
_cell_angle_beta     95.78232423049757
_cell_angle_gamma    89.75445265909704

_space_group_name_H-M_alt    "P 1"
_space_group_IT_number       1

loop_
  _space_group_symop_operation_xyz
  'x, y, z'

loop_
  _atom_site_type_symbol
  _atom_site_label
  _atom_site_symmetry_multiplicity
  _atom_site_fract_x
  _atom_site_fract_y
  _atom_site_fract_z
  _atom_site_occupancy
  S   S1        1.0  0.9855860471725464  0.36759477853775024  0.9796198606491089  1.0000
  S   S2        1.0  0.014734878204762936  0.9862731695175171  0.16672004759311676  1.0000
  Sm  Sm1       1.0  0.05196935310959816  0.7320775389671326  0.7507239580154419  1.0000
  Sm  Sm2       1.0  0.6195924878120422  0.8912224769592285  0.9346777200698853  1.0000
  Sm  Sm3       1.0  0.42080652713775635  0.4050254225730896  0.7285922765731812  1.0000
  Sm  Sm4       1.0  0.1192583218216896  0.765796959400177  0.39002570509910583  1.0000
  Sm  Sm5       1.0  0.6281355023384094  0.23262853920459747  0.9241880774497986  1.0000
  Sm  Sm6       1.0  0.4980163872241974  0.6554833650588989  0.7946345210075378  1.0000
  Sm  Sm7       1.0  0.6347505450248718  0.6510751247406006  0.2576337456703186  1.0000
  Sm  Sm8       1.0  0.12283064424991608  0.3431086838245392  0.33930081129074097  1.0000
