data_image0
_chemical_formula_structural       CoPb2SSm5Th
_chemical_formula_sum              "Co1 Pb2 S1 Sm5 Th1"
_cell_length_a       5.053343810796678
_cell_length_b       8.50962920936399
_cell_length_c       9.24953556060791
_cell_angle_alpha    120.90656698467929
_cell_angle_beta     90.03589324377835
_cell_angle_gamma    90.20183832812025

_space_group_name_H-M_alt    "P 1"
_space_group_IT_number       1

loop_
  _space_group_symop_operation_xyz
  'x, y, z'

loop_
  _atom_site_type_symbol
  _atom_site_label
  _atom_site_symmetry_multiplicity
  _atom_site_fract_x
  _atom_site_fract_y
  _atom_site_fract_z
  _atom_site_occupancy
  Co  Co1       1.0  0.1863580048084259  0.7287628054618835  0.3887615501880645  1.0000
  Pb  Pb1       1.0  0.1829698383808136  0.8780576586723328  0.9291081428527832  1.0000
  Pb  Pb2       1.0  0.4220832288265228  0.9449157118797301  0.8169806003570557  1.0000
  S   S1        1.0  0.18034332990646362  0.90366131067276  0.24358685314655304  1.0000
  Sm  Sm1       1.0  0.6868775486946106  0.9021297693252563  0.2942159473896026  1.0000
  Sm  Sm2       1.0  0.1836009919643402  0.4121783673763275  0.14828912913799286  1.0000
  Sm  Sm3       1.0  0.6879448294639587  0.8851122856140137  0.3694027066230774  1.0000
  Sm  Sm4       1.0  0.6860523819923401  0.7098138332366943  0.11381570994853978  1.0000
  Sm  Sm5       1.0  0.6870443820953369  0.2228882759809494  0.7191572785377502  1.0000
  Th  Th1       1.0  0.6866475939750671  0.24376477301120755  0.4175589680671692  1.0000
