data_image0
_chemical_formula_structural       CdP2SSm5Ti
_chemical_formula_sum              "Cd1 P2 S1 Sm5 Ti1"
_cell_length_a       5.607077842360906
_cell_length_b       7.057645973793807
_cell_length_c       7.254119396209717
_cell_angle_alpha    124.10797667570607
_cell_angle_beta     89.03942410673623
_cell_angle_gamma    89.52842695372044

_space_group_name_H-M_alt    "P 1"
_space_group_IT_number       1

loop_
  _space_group_symop_operation_xyz
  'x, y, z'

loop_
  _atom_site_type_symbol
  _atom_site_label
  _atom_site_symmetry_multiplicity
  _atom_site_fract_x
  _atom_site_fract_y
  _atom_site_fract_z
  _atom_site_occupancy
  Cd  Cd1       1.0  0.838754951953888  0.7698470950126648  0.1651178300380707  1.0000
  P   P1        1.0  0.33750584721565247  0.04999838024377823  0.7174494266510011  1.0000
  P   P2        1.0  0.8323530554771423  0.7390374541282654  0.7730571627616883  1.0000
  S   S1        1.0  0.3383127748966217  0.45402255654335016  0.6496959924697877  1.0000
  Sm  Sm1       1.0  0.8291853666305542  0.6389195919036865  0.8007555603981019  1.0000
  Sm  Sm2       1.0  0.335336834192276  0.33560457825660706  0.5533460974693298  1.0000
  Sm  Sm3       1.0  0.3178577721118927  0.42276424169540405  0.8887745738029481  1.0000
  Sm  Sm4       1.0  0.8248249888420105  0.21810850501060486  0.767487943172455  1.0000
  Sm  Sm5       1.0  0.3296208381652832  0.7376803159713745  0.03991638496518136  1.0000
  Ti  Ti1       1.0  0.8341644406318666  0.9060336351394652  0.28604361414909363  1.0000
