data_image0
_chemical_formula_structural       SSm9
_chemical_formula_sum              "S1 Sm9"
_cell_length_a       5.443263938252667
_cell_length_b       5.1508703882996905
_cell_length_c       7.592696666717529
_cell_angle_alpha    107.65189646371206
_cell_angle_beta     88.45912196515445
_cell_angle_gamma    90.71095518926849

_space_group_name_H-M_alt    "P 1"
_space_group_IT_number       1

loop_
  _space_group_symop_operation_xyz
  'x, y, z'

loop_
  _atom_site_type_symbol
  _atom_site_label
  _atom_site_symmetry_multiplicity
  _atom_site_fract_x
  _atom_site_fract_y
  _atom_site_fract_z
  _atom_site_occupancy
  S   S1        1.0  0.03865882754325867  0.675875723361969  0.5839420557022094  1.0000
  Sm  Sm1       1.0  0.5444427728652954  0.7925779223442078  0.6173149943351744  1.0000
  Sm  Sm2       1.0  0.5509243011474609  0.377438485622406  0.5132513046264648  1.0000
  Sm  Sm3       1.0  0.7838817238807678  0.6412588953971863  0.5197921991348267  1.0000
  Sm  Sm4       1.0  0.5585756301879883  0.4323539733886719  0.94528329372406  1.0000
  Sm  Sm5       1.0  0.045160405337810516  0.1390889286994934  0.5997207760810851  1.0000
  Sm  Sm6       1.0  0.04827745631337166  0.12277808040380478  0.7460074424743651  1.0000
  Sm  Sm7       1.0  0.04940230771899223  0.12991963326931  0.018950795754790303  1.0000
  Sm  Sm8       1.0  0.5580620765686035  0.46819525957107544  0.1929473280906677  1.0000
  Sm  Sm9       1.0  0.05031038448214531  0.2113446742296219  0.5259813666343689  1.0000
