data_image0
_chemical_formula_structural       AsEu4O2Zn3
_chemical_formula_sum              "As1 Eu4 O2 Zn3"
_cell_length_a       6.0842738165797146
_cell_length_b       6.2239150018736105
_cell_length_c       8.558168411254883
_cell_angle_alpha    107.09155951469936
_cell_angle_beta     104.75782551235669
_cell_angle_gamma    111.37775979929735

_space_group_name_H-M_alt    "P 1"
_space_group_IT_number       1

loop_
  _space_group_symop_operation_xyz
  'x, y, z'

loop_
  _atom_site_type_symbol
  _atom_site_label
  _atom_site_symmetry_multiplicity
  _atom_site_fract_x
  _atom_site_fract_y
  _atom_site_fract_z
  _atom_site_occupancy
  As  As1       1.0  0.0640423521399498  0.6677167415618896  0.2865021526813507  1.0000
  Eu  Eu1       1.0  0.04605056717991829  0.30025696754455566  0.18101762235164642  1.0000
  Eu  Eu2       1.0  0.5381476283073425  0.009502166882157326  0.2226944863796234  1.0000
  Eu  Eu3       1.0  0.06458083540201187  0.5917665362358093  0.24134083092212677  1.0000
  Eu  Eu4       1.0  0.5385881662368774  0.24763385951519012  0.666922390460968  1.0000
  O   O1        1.0  0.5627275109291077  0.6288221478462219  0.46535205841064453  1.0000
  O   O2        1.0  0.04973272234201431  0.49559253454208374  0.7618804574012756  1.0000
  Zn  Zn1       1.0  0.5406138896942139  0.41061529517173767  0.8746010065078735  1.0000
  Zn  Zn2       1.0  0.035146746784448624  0.8546131253242493  0.9295439720153809  1.0000
  Zn  Zn3       1.0  0.5318049192428589  0.33420345187187195  0.13576655089855194  1.0000
