data_image0
_chemical_formula_structural       Eu5FeILuZn2
_chemical_formula_sum              "Eu5 Fe1 I1 Lu1 Zn2"
_cell_length_a       5.8266183113862695
_cell_length_b       6.057990184482828
_cell_length_c       10.805956840515137
_cell_angle_alpha    90.20680349125703
_cell_angle_beta     89.69933289120848
_cell_angle_gamma    110.7462570811465

_space_group_name_H-M_alt    "P 1"
_space_group_IT_number       1

loop_
  _space_group_symop_operation_xyz
  'x, y, z'

loop_
  _atom_site_type_symbol
  _atom_site_label
  _atom_site_symmetry_multiplicity
  _atom_site_fract_x
  _atom_site_fract_y
  _atom_site_fract_z
  _atom_site_occupancy
  Eu  Eu1       1.0  0.8900358080863953  0.5086844563484192  0.38315635919570923  1.0000
  Eu  Eu2       1.0  0.6642202138900757  0.03451725095510483  0.05504363402724266  1.0000
  Eu  Eu3       1.0  0.3874654173851013  0.31905731558799744  0.6043018698692322  1.0000
  Eu  Eu4       1.0  0.1394847184419632  0.4536551833152771  0.8415600061416626  1.0000
  Eu  Eu5       1.0  0.38305962085723877  0.894478440284729  0.35640385746955877  1.0000
  Fe  Fe1       1.0  0.89570152759552  0.1798994094133377  0.8758100271224976  1.0000
  I   I1        1.0  0.38163089752197266  0.3077201843261719  0.6788897514343262  1.0000
  Lu  Lu1       1.0  0.36871039867401123  0.014858240261673927  0.5317607522010803  1.0000
  Zn  Zn1       1.0  0.8855288624763489  0.08411750197410583  0.21025574207305908  1.0000
  Zn  Zn2       1.0  0.8784405589103699  0.5553610324859619  0.44870898127555847  1.0000
