data_image0
_chemical_formula_structural       Eu2O5W3
_chemical_formula_sum              "Eu2 O5 W3"
_cell_length_a       4.149959718640146
_cell_length_b       6.9098578517110205
_cell_length_c       5.897161483764648
_cell_angle_alpha    121.67173605815559
_cell_angle_beta     85.27514425844493
_cell_angle_gamma    88.68032406487383

_space_group_name_H-M_alt    "P 1"
_space_group_IT_number       1

loop_
  _space_group_symop_operation_xyz
  'x, y, z'

loop_
  _atom_site_type_symbol
  _atom_site_label
  _atom_site_symmetry_multiplicity
  _atom_site_fract_x
  _atom_site_fract_y
  _atom_site_fract_z
  _atom_site_occupancy
  Eu  Eu1       1.0  0.3901408016681671  0.39742913842201233  0.8678037524223328  1.0000
  Eu  Eu2       1.0  0.38898006081581116  0.9064911007881165  0.8236966729164124  1.0000
  O   O1        1.0  0.39686319231987  0.3438015282154083  0.8002465963363647  1.0000
  O   O2        1.0  0.8954982757568359  0.3363179564476013  0.5644609332084656  1.0000
  O   O3        1.0  0.3974233865737915  0.3348628580570221  0.9593488574028015  1.0000
  O   O4        1.0  0.8971998691558838  0.43736889958381653  0.3702024817466736  1.0000
  O   O5        1.0  0.8953897953033447  0.34754398465156555  0.15425491333007812  1.0000
  W   W1        1.0  0.893450915813446  0.5468108057975769  0.8499558568000793  1.0000
  W   W2        1.0  0.8834912776947021  0.7187374830245972  0.05601271614432335  1.0000
  W   W3        1.0  0.8931784629821777  0.5972228646278381  0.8642295598983765  1.0000
