data_image0
_chemical_formula_structural       Eu2GaO2PbZn3Zr
_chemical_formula_sum              "Eu2 Ga1 O2 Pb1 Zn3 Zr1"
_cell_length_a       5.801072798343318
_cell_length_b       7.107174996112259
_cell_length_c       8.271516799926758
_cell_angle_alpha    119.54270707947144
_cell_angle_beta     89.71319174493625
_cell_angle_gamma    90.00144312893785

_space_group_name_H-M_alt    "P 1"
_space_group_IT_number       1

loop_
  _space_group_symop_operation_xyz
  'x, y, z'

loop_
  _atom_site_type_symbol
  _atom_site_label
  _atom_site_symmetry_multiplicity
  _atom_site_fract_x
  _atom_site_fract_y
  _atom_site_fract_z
  _atom_site_occupancy
  Eu  Eu1       1.0  0.395342618227005  0.9644222855567932  0.4855302572250366  1.0000
  Eu  Eu2       1.0  0.895743727684021  0.13672718405723572  0.9080527424812317  1.0000
  Ga  Ga1       1.0  0.8957156538963318  0.19538961350917816  0.8562788367271423  1.0000
  O   O1        1.0  0.39698177576065063  0.6343522667884827  0.9887164831161499  1.0000
  O   O2        1.0  0.9008188247680664  0.5498853325843811  0.09217052161693573  1.0000
  Pb  Pb1       1.0  0.8959164023399353  0.6904875040054321  0.5120611190795898  1.0000
  Zn  Zn1       1.0  0.8976812958717346  0.1580182909965515  0.8470847010612488  1.0000
  Zn  Zn2       1.0  0.39707276225090027  0.7318519353866577  0.5133612155914307  1.0000
  Zn  Zn3       1.0  0.3946968615055084  0.028661511838436127  0.8989543914794922  1.0000
  Zr  Zr1       1.0  0.398779958486557  0.058445509523153305  0.693225085735321  1.0000
