data_image0
_chemical_formula_structural       O3UW6
_chemical_formula_sum              "O3 U1 W6"
_cell_length_a       4.421028560642567
_cell_length_b       5.581501712492542
_cell_length_c       5.167845726013184
_cell_angle_alpha    122.84097593013465
_cell_angle_beta     85.16708688342192
_cell_angle_gamma    92.62988044976814

_space_group_name_H-M_alt    "P 1"
_space_group_IT_number       1

loop_
  _space_group_symop_operation_xyz
  'x, y, z'

loop_
  _atom_site_type_symbol
  _atom_site_label
  _atom_site_symmetry_multiplicity
  _atom_site_fract_x
  _atom_site_fract_y
  _atom_site_fract_z
  _atom_site_occupancy
  O   O1        1.0  0.4619631767272949  0.6980997323989868  0.043532080948352814  1.0000
  O   O2        1.0  0.9449270367622375  0.35774022340774536  0.4222572445869446  1.0000
  O   O3        1.0  0.684430718421936  0.4714144468307495  0.45862510800361633  1.0000
  U   U1        1.0  0.7139829397201538  0.0562218576669693  0.025039467960596078  1.0000
  W   W1        1.0  0.2110840380191803  0.6420458555221558  0.04821920394897457  1.0000
  W   W2        1.0  0.20982758700847626  0.019601082429289818  0.20818711817264557  1.0000
  W   W3        1.0  0.20924730598926544  0.7192854881286621  0.929958701133728  1.0000
  W   W4        1.0  0.7118237614631653  0.9362896680831909  0.5543850660324096  1.0000
  W   W5        1.0  0.7115426063537598  0.6973429322242737  0.1334592998027801  1.0000
  W   W6        1.0  0.45666787028312683  0.754309356212616  0.7475720047950745  1.0000
