data_image0
_chemical_formula_structural       As2EuLiLuMgOP2Zn
_chemical_formula_sum              "As2 Eu1 Li1 Lu1 Mg1 O1 P2 Zn1"
_cell_length_a       4.543311087957979
_cell_length_b       4.107159366695266
_cell_length_c       9.12155818939209
_cell_angle_alpha    82.31389958386977
_cell_angle_beta     77.65393657803507
_cell_angle_gamma    49.80099749856248

_space_group_name_H-M_alt    "P 1"
_space_group_IT_number       1

loop_
  _space_group_symop_operation_xyz
  'x, y, z'

loop_
  _atom_site_type_symbol
  _atom_site_label
  _atom_site_symmetry_multiplicity
  _atom_site_fract_x
  _atom_site_fract_y
  _atom_site_fract_z
  _atom_site_occupancy
  As  As1       1.0  0.017404772341251373  0.040363114327192307  0.39555540680885315  1.0000
  As  As2       1.0  0.9006771445274353  0.6324872970581055  0.3862900137901306  1.0000
  Eu  Eu1       1.0  0.06048060953617096  0.4256921112537384  0.46519339084625244  1.0000
  Li  Li1       1.0  0.5556261539459229  0.03911874443292618  0.41254401206970215  1.0000
  Lu  Lu1       1.0  0.31021225452423096  0.02424590103328228  0.0653667077422142  1.0000
  Mg  Mg1       1.0  0.7357109785079956  0.21771809458732605  0.31355175375938416  1.0000
  O   O1        1.0  0.1626097857952118  0.4216938614845276  0.008403353393077857  1.0000
  P   P1        1.0  0.44512978196144104  0.24932284653186798  0.34253188967704773  1.0000
  P   P2        1.0  0.5863544940948486  0.0926380306482315  0.6513058543205261  1.0000
  Zn  Zn1       1.0  0.7729630470275879  0.11447437107563019  0.5613232254981995  1.0000
