data_image0
_chemical_formula_structural       Ca3GeHf2Hg3
_chemical_formula_sum              "Ca3 Ge1 Hf2 Hg3"
_cell_length_a       5.62349446579274
_cell_length_b       8.872911742061202
_cell_length_c       9.000320434570312
_cell_angle_alpha    120.95762692385473
_cell_angle_beta     91.49765758828515
_cell_angle_gamma    89.64345755208515

_space_group_name_H-M_alt    "P 1"
_space_group_IT_number       1

loop_
  _space_group_symop_operation_xyz
  'x, y, z'

loop_
  _atom_site_type_symbol
  _atom_site_label
  _atom_site_symmetry_multiplicity
  _atom_site_fract_x
  _atom_site_fract_y
  _atom_site_fract_z
  _atom_site_occupancy
  Ca  Ca1       1.0  0.9724941253662109  0.9706430435180663  0.738307774066925  1.0000
  Ca  Ca2       1.0  0.9672735929489136  0.907626450061798  0.4470059275627136  1.0000
  Ca  Ca3       1.0  0.4713563024997711  0.898822247982025  0.5419729351997374  1.0000
  Ge  Ge1       1.0  0.9690072536468506  0.3064712882041931  0.24893079698085785  1.0000
  Hf  Hf1       1.0  0.47302350401878357  0.05794831737875938  0.6984590888023376  1.0000
  Hf  Hf2       1.0  0.4651775062084198  0.3541274964809417  0.2832835018634796  1.0000
  Hg  Hg1       1.0  0.9663063883781433  0.5819234848022461  0.13878829777240753  1.0000
  Hg  Hg2       1.0  0.46649855375289917  0.5777703523635864  0.127353236079216  1.0000
  Hg  Hg3       1.0  0.46578678488731384  0.8606465458869933  0.5276764035224915  1.0000
