data_image0
_chemical_formula_structural       Ca4GeHHg3
_chemical_formula_sum              "Ca4 Ge1 H1 Hg3"
_cell_length_a       4.52694630457576
_cell_length_b       5.560743927609272
_cell_length_c       11.742740631103516
_cell_angle_alpha    105.59281624451428
_cell_angle_beta     99.27890172693981
_cell_angle_gamma    84.9626652365524

_space_group_name_H-M_alt    "P 1"
_space_group_IT_number       1

loop_
  _space_group_symop_operation_xyz
  'x, y, z'

loop_
  _atom_site_type_symbol
  _atom_site_label
  _atom_site_symmetry_multiplicity
  _atom_site_fract_x
  _atom_site_fract_y
  _atom_site_fract_z
  _atom_site_occupancy
  Ca  Ca1       1.0  0.712242603302002  0.6148281097412109  0.7757387757301331  1.0000
  Ca  Ca2       1.0  0.21039852499961853  0.797469973564148  0.4798811376094818  1.0000
  Ca  Ca3       1.0  0.8924864530563353  0.07694702595472336  0.8781922459602356  1.0000
  Ca  Ca4       1.0  0.5019999742507935  0.32618725299835205  0.04960224777460098  1.0000
  Ge  Ge1       1.0  0.6867659091949463  0.8573525547981262  0.5144403576850891  1.0000
  H   H1        1.0  0.23619620501995087  0.014049535617232323  0.455882728099823  1.0000
  Hg  Hg1       1.0  0.5094404220581055  0.9887029528617859  0.09846015274524689  1.0000
  Hg  Hg2       1.0  0.015720531344413757  0.32972702383995056  0.11691310256719589  1.0000
  Hg  Hg3       1.0  0.890119731426239  0.32158511877059937  0.4520410895347595  1.0000
