data_image0
_chemical_formula_structural       Ba2Ca3Hg3Mg
_chemical_formula_sum              "Ba2 Ca3 Hg3 Mg1"
_cell_length_a       5.533918223454602
_cell_length_b       8.193778741209584
_cell_length_c       7.519224166870117
_cell_angle_alpha    124.84522532620903
_cell_angle_beta     87.18846848067999
_cell_angle_gamma    91.69233251863065

_space_group_name_H-M_alt    "P 1"
_space_group_IT_number       1

loop_
  _space_group_symop_operation_xyz
  'x, y, z'

loop_
  _atom_site_type_symbol
  _atom_site_label
  _atom_site_symmetry_multiplicity
  _atom_site_fract_x
  _atom_site_fract_y
  _atom_site_fract_z
  _atom_site_occupancy
  Ba  Ba1       1.0  0.2897365689277649  0.3604281544685364  0.13647969067096707  1.0000
  Ba  Ba2       1.0  0.2843654751777649  0.6504056453704834  0.21353709697723383  1.0000
  Ca  Ca1       1.0  0.7804836630821228  0.29664283990859985  0.4752976596355438  1.0000
  Ca  Ca2       1.0  0.27793097496032715  0.29006287455558777  0.9975754022598267  1.0000
  Ca  Ca3       1.0  0.2883044481277466  0.48969700932502747  0.218985915184021  1.0000
  Hg  Hg1       1.0  0.28253278136253357  0.6737775802612305  0.7585484981536865  1.0000
  Hg  Hg2       1.0  0.7798430919647217  0.8922801613807678  0.3605301976203918  1.0000
  Hg  Hg3       1.0  0.7779639363288879  0.8407745957374573  0.7405081987380981  1.0000
  Mg  Mg1       1.0  0.7824968099594116  0.16350719332695007  0.4664875566959381  1.0000
