data_image0
_chemical_formula_structural       B2Ca3GeHg3
_chemical_formula_sum              "B2 Ca3 Ge1 Hg3"
_cell_length_a       4.606195723171997
_cell_length_b       5.942972641307335
_cell_length_c       11.613277435302734
_cell_angle_alpha    108.52421333632343
_cell_angle_beta     89.64966876857665
_cell_angle_gamma    88.75223539784606

_space_group_name_H-M_alt    "P 1"
_space_group_IT_number       1

loop_
  _space_group_symop_operation_xyz
  'x, y, z'

loop_
  _atom_site_type_symbol
  _atom_site_label
  _atom_site_symmetry_multiplicity
  _atom_site_fract_x
  _atom_site_fract_y
  _atom_site_fract_z
  _atom_site_occupancy
  B   B1        1.0  0.7490823864936829  0.48262056708335876  0.049351029098033905  1.0000
  B   B2        1.0  0.24518856406211853  0.4873810410499573  0.349902480840683  1.0000
  Ca  Ca1       1.0  0.7341521382331848  0.9647915959358215  0.15153640508651733  1.0000
  Ca  Ca2       1.0  0.7554927468299866  0.7767748832702637  0.12102979421615603  1.0000
  Ca  Ca3       1.0  0.24321171641349792  0.9819968938827515  0.053891263902187334  1.0000
  Ge  Ge1       1.0  0.9412987232208252  0.7956882119178772  0.7942292094230652  1.0000
  Hg  Hg1       1.0  0.7505736947059631  0.9948889017105103  0.6479736566543579  1.0000
  Hg  Hg2       1.0  0.25802406668663025  0.1496398001909256  0.6248313188552856  1.0000
  Hg  Hg3       1.0  0.25306862592697144  0.4905506670475006  0.9552921056747438  1.0000
