data_image0
_chemical_formula_structural       AsCa5Hg3
_chemical_formula_sum              "As1 Ca5 Hg3"
_cell_length_a       6.0717713544515775
_cell_length_b       7.303629174344421
_cell_length_c       7.1232008934021
_cell_angle_alpha    132.657314954782
_cell_angle_beta     89.08394399198562
_cell_angle_gamma    89.25975952831459

_space_group_name_H-M_alt    "P 1"
_space_group_IT_number       1

loop_
  _space_group_symop_operation_xyz
  'x, y, z'

loop_
  _atom_site_type_symbol
  _atom_site_label
  _atom_site_symmetry_multiplicity
  _atom_site_fract_x
  _atom_site_fract_y
  _atom_site_fract_z
  _atom_site_occupancy
  As  As1       1.0  0.6125871539115906  0.996728777885437  0.5387943983078004  1.0000
  Ca  Ca1       1.0  0.10425227135419846  0.6259210109710693  0.7095617651939392  1.0000
  Ca  Ca2       1.0  0.6085628271102905  0.96941739320755  0.2010093629360199  1.0000
  Ca  Ca3       1.0  0.11054176092147827  0.48465031385421753  0.18160244822502136  1.0000
  Ca  Ca4       1.0  0.61861252784729  0.5153900980949402  0.9565828442573547  1.0000
  Ca  Ca5       1.0  0.6129806041717529  0.2776053547859192  0.91312175989151  1.0000
  Hg  Hg1       1.0  0.11397656053304672  0.7759073972702026  0.730552613735199  1.0000
  Hg  Hg2       1.0  0.10693293809890747  0.7717309594154358  0.868950605392456  1.0000
  Hg  Hg3       1.0  0.6041651964187622  0.2782936990261078  0.1957983672618866  1.0000
