data_image0
_chemical_formula_structural       CaI5La4
_chemical_formula_sum              "Ca1 I5 La4"
_cell_length_a       7.00021620897629
_cell_length_b       6.946561830983111
_cell_length_c       8.486690521240234
_cell_angle_alpha    105.03795058345045
_cell_angle_beta     101.32416643642883
_cell_angle_gamma    111.68489878672116

_space_group_name_H-M_alt    "P 1"
_space_group_IT_number       1

loop_
  _space_group_symop_operation_xyz
  'x, y, z'

loop_
  _atom_site_type_symbol
  _atom_site_label
  _atom_site_symmetry_multiplicity
  _atom_site_fract_x
  _atom_site_fract_y
  _atom_site_fract_z
  _atom_site_occupancy
  Ca  Ca1       1.0  0.9084460735321045  0.18536517024040222  0.2308637946844101  1.0000
  I   I1        1.0  0.24134986102581024  0.801892876625061  0.1802283525466919  1.0000
  I   I2        1.0  0.2338770478963852  0.6158939003944397  0.05663713812828061  1.0000
  I   I3        1.0  0.7942203283309937  0.6261336803436279  0.9634905457496643  1.0000
  I   I4        1.0  0.14733801782131195  0.5722569227218628  0.8137697577476501  1.0000
  I   I5        1.0  0.7719738483428955  0.3937435746192932  0.580024778842926  1.0000
  La  La1       1.0  0.7469462156295776  0.09388404339551926  0.3201204240322113  1.0000
  La  La2       1.0  0.48868247866630554  0.7686863541603088  0.7580296397209167  1.0000
  La  La3       1.0  0.1283029466867447  0.132286936044693  0.07759048044681549  1.0000
  La  La4       1.0  0.5571022629737854  0.3810219168663025  0.30831244587898254  1.0000
