data_image0
_chemical_formula_structural       CaCoHI6Se
_chemical_formula_sum              "Ca1 Co1 H1 I6 Se1"
_cell_length_a       6.873417529457628
_cell_length_b       7.3799738415200435
_cell_length_c       10.473946571350098
_cell_angle_alpha    97.54273272112836
_cell_angle_beta     102.39275128949511
_cell_angle_gamma    109.29750716260658

_space_group_name_H-M_alt    "P 1"
_space_group_IT_number       1

loop_
  _space_group_symop_operation_xyz
  'x, y, z'

loop_
  _atom_site_type_symbol
  _atom_site_label
  _atom_site_symmetry_multiplicity
  _atom_site_fract_x
  _atom_site_fract_y
  _atom_site_fract_z
  _atom_site_occupancy
  Ca  Ca1       1.0  0.6155619621276855  0.8863113522529602  0.833609938621521  1.0000
  Co  Co1       1.0  0.10566100478172302  0.6220815777778625  0.9953246116638184  1.0000
  H   H1        1.0  0.41372916102409363  0.6165841221809387  0.8689364790916443  1.0000
  I   I1        1.0  0.10933849215507507  0.36991772055625916  0.7809591889381409  1.0000
  I   I2        1.0  0.6053867936134338  0.4008715748786926  0.8005717992782593  1.0000
  I   I3        1.0  0.6577509045600891  0.13679376244544983  0.6920467615127563  1.0000
  I   I4        1.0  0.12496403604745865  0.11756806075572968  0.17285694181919098  1.0000
  I   I5        1.0  0.12154342234134674  0.4207840859889984  0.37179675698280334  1.0000
  I   I6        1.0  0.10326314717531204  0.5795232057571411  0.1117960661649704  1.0000
  Se  Se1       1.0  0.47942423820495605  0.19654522836208344  0.11136993020772934  1.0000
