data_image0
_chemical_formula_structural       I7La2P
_chemical_formula_sum              "I7 La2 P1"
_cell_length_a       7.493343433367743
_cell_length_b       7.312764202951705
_cell_length_c       7.897933483123779
_cell_angle_alpha    114.00755682395366
_cell_angle_beta     116.55446080444104
_cell_angle_gamma    98.48106126930975

_space_group_name_H-M_alt    "P 1"
_space_group_IT_number       1

loop_
  _space_group_symop_operation_xyz
  'x, y, z'

loop_
  _atom_site_type_symbol
  _atom_site_label
  _atom_site_symmetry_multiplicity
  _atom_site_fract_x
  _atom_site_fract_y
  _atom_site_fract_z
  _atom_site_occupancy
  I   I1        1.0  0.0739269480109215  0.4042674601078034  0.5294503569602966  1.0000
  I   I2        1.0  0.9208357334136962  0.8336997628211976  0.9954919219017029  1.0000
  I   I3        1.0  0.42282760143280024  0.23641699552536014  0.6169918179512024  1.0000
  I   I4        1.0  0.4272529184818267  0.24898640811443332  0.8623039722442627  1.0000
  I   I5        1.0  0.4147945046424865  0.7776703238487244  0.40184041857719427  1.0000
  I   I6        1.0  0.9176595211029052  0.8972389101982118  0.5490757822990417  1.0000
  I   I7        1.0  0.9208720326423644  0.35405591130256653  0.32756030559539795  1.0000
  La  La1       1.0  0.6399028897285461  0.3071712553501129  0.5566667914390564  1.0000
  La  La2       1.0  0.6771988272666931  0.9458390474319459  0.0677165538072586  1.0000
  P   P1        1.0  0.08652591705322266  0.5429635643959045  0.1785761564970017  1.0000
