data_image0
_chemical_formula_structural       ILa7Pb2
_chemical_formula_sum              "I1 La7 Pb2"
_cell_length_a       9.511586722901612
_cell_length_b       8.536810353576007
_cell_length_c       10.859942436218262
_cell_angle_alpha    110.38319647837389
_cell_angle_beta     111.42309066461482
_cell_angle_gamma    114.91796564618845

_space_group_name_H-M_alt    "P 1"
_space_group_IT_number       1

loop_
  _space_group_symop_operation_xyz
  'x, y, z'

loop_
  _atom_site_type_symbol
  _atom_site_label
  _atom_site_symmetry_multiplicity
  _atom_site_fract_x
  _atom_site_fract_y
  _atom_site_fract_z
  _atom_site_occupancy
  I   I1        1.0  0.8767310380935669  0.9961197972297668  0.2841496765613556  1.0000
  La  La1       1.0  0.6831364035606384  0.22357766330242157  0.20940586924552917  1.0000
  La  La2       1.0  0.18879364430904388  0.6369611620903015  0.38280752301216125  1.0000
  La  La3       1.0  0.6429484486579895  0.5350059866905212  0.5548812747001648  1.0000
  La  La4       1.0  0.16558782756328583  0.7596421241760254  0.6587013006210327  1.0000
  La  La5       1.0  0.2676169276237488  0.5935523509979248  0.9267146587371826  1.0000
  La  La6       1.0  0.6747618913650513  0.9412221312522888  0.3544182777404785  1.0000
  La  La7       1.0  0.6739962697029114  0.1694241464138031  0.08693947643041611  1.0000
  Pb  Pb1       1.0  0.5270677208900452  0.04608171060681343  0.35240688920021057  1.0000
  Pb  Pb2       1.0  0.19571475684642792  0.6351861357688904  0.8761781454086304  1.0000
