data_image0
_chemical_formula_structural       I5LaPPb2V
_chemical_formula_sum              "I5 La1 P1 Pb2 V1"
_cell_length_a       7.151836851966785
_cell_length_b       7.752299307730008
_cell_length_c       8.722977638244629
_cell_angle_alpha    120.90434839639231
_cell_angle_beta     102.86357090209559
_cell_angle_gamma    89.24856076937785

_space_group_name_H-M_alt    "P 1"
_space_group_IT_number       1

loop_
  _space_group_symop_operation_xyz
  'x, y, z'

loop_
  _atom_site_type_symbol
  _atom_site_label
  _atom_site_symmetry_multiplicity
  _atom_site_fract_x
  _atom_site_fract_y
  _atom_site_fract_z
  _atom_site_occupancy
  I   I1        1.0  0.6492051482200623  0.4944985806941986  0.3348822593688965  1.0000
  I   I2        1.0  0.44184416532516474  0.06051645427942276  0.746242105960846  1.0000
  I   I3        1.0  0.1673513650894165  0.8603278398513794  0.2950667440891266  1.0000
  I   I4        1.0  0.12491959333419798  0.8569366931915283  0.9205869436264038  1.0000
  I   I5        1.0  0.8575803637504577  0.4292283058166504  0.39598459005355835  1.0000
  La  La1       1.0  0.15684255957603455  0.9531645178794861  0.09460608661174774  1.0000
  P   P1        1.0  0.6430748701095581  0.0804084837436676  0.3152692914009094  1.0000
  Pb  Pb1       1.0  0.1712704449892044  0.6138649582862854  0.8878015875816345  1.0000
  Pb  Pb2       1.0  0.12875179946422577  0.47634103894233704  0.37192463874816895  1.0000
  V   V1        1.0  0.06993736326694489  0.9709370136260986  0.886498749256134  1.0000
