data_image0
_chemical_formula_structural       ILa8Pb
_chemical_formula_sum              "I1 La8 Pb1"
_cell_length_a       6.919705235949425
_cell_length_b       5.812345207069231
_cell_length_c       8.936161041259766
_cell_angle_alpha    112.34767001531777
_cell_angle_beta     109.65768943064323
_cell_angle_gamma    108.54997188679982

_space_group_name_H-M_alt    "P 1"
_space_group_IT_number       1

loop_
  _space_group_symop_operation_xyz
  'x, y, z'

loop_
  _atom_site_type_symbol
  _atom_site_label
  _atom_site_symmetry_multiplicity
  _atom_site_fract_x
  _atom_site_fract_y
  _atom_site_fract_z
  _atom_site_occupancy
  I   I1        1.0  0.060690250247716904  0.27759307622909546  0.6313915848731995  1.0000
  La  La1       1.0  0.6067882776260376  0.7806262969970703  0.07994928956031805  1.0000
  La  La2       1.0  0.14203402400016785  0.7739542722702026  0.3068964779376984  1.0000
  La  La3       1.0  0.11747003346681595  0.9378409385681152  0.2920790016651154  1.0000
  La  La4       1.0  0.9184168577194214  0.7393497228622437  0.18579469621181488  1.0000
  La  La5       1.0  0.4120030403137207  0.1678188294172287  0.881512463092804  1.0000
  La  La6       1.0  0.9328756928443909  0.5987247228622437  0.6465129852294922  1.0000
  La  La7       1.0  0.1664063036441803  0.31461185216903687  0.5485484600067139  1.0000
  La  La8       1.0  0.9077795743942261  0.6884942650794983  0.9468891620635986  1.0000
  Pb  Pb1       1.0  0.5581145882606506  0.9447062015533447  0.4221998155117035  1.0000
