data_image0
_chemical_formula_structural       Y4Zn4
_chemical_formula_sum              "Y4 Zn4"
_cell_length_a       4.212067706736815
_cell_length_b       5.916973841983236
_cell_length_c       8.076142311096191
_cell_angle_alpha    101.13870273991205
_cell_angle_beta     89.96994476915859
_cell_angle_gamma    110.99595668254757

_space_group_name_H-M_alt    "P 1"
_space_group_IT_number       1

loop_
  _space_group_symop_operation_xyz
  'x, y, z'

loop_
  _atom_site_type_symbol
  _atom_site_label
  _atom_site_symmetry_multiplicity
  _atom_site_fract_x
  _atom_site_fract_y
  _atom_site_fract_z
  _atom_site_occupancy
  Y   Y1        1.0  0.5897940993309021  0.050180088728666306  0.756758153438568  1.0000
  Y   Y2        1.0  0.15029817819595337  0.1642370969057083  0.3867712914943695  1.0000
  Y   Y3        1.0  0.8761407136917114  0.6145456433296204  0.5767001509666443  1.0000
  Y   Y4        1.0  0.8834055066108704  0.6308585405349731  0.058745399117469774  1.0000
  Zn  Zn1       1.0  0.2994458079338074  0.4571433961391449  0.7804813385009766  1.0000
  Zn  Zn2       1.0  0.5841855406761169  0.037442803382873535  0.12550868093967438  1.0000
  Zn  Zn3       1.0  0.18450456857681274  0.22601495683193207  0.028910800814628605  1.0000
  Zn  Zn4       1.0  0.4420357346534729  0.7523440718650818  0.3545036315917969  1.0000
