data_image0
_chemical_formula_structural       Dy2OY3Zn2
_chemical_formula_sum              "Dy2 O1 Y3 Zn2"
_cell_length_a       3.964354550258443
_cell_length_b       6.147749080592728
_cell_length_c       7.878474235534668
_cell_angle_alpha    101.47129772554841
_cell_angle_beta     90.00763337039544
_cell_angle_gamma    108.89315122163434

_space_group_name_H-M_alt    "P 1"
_space_group_IT_number       1

loop_
  _space_group_symop_operation_xyz
  'x, y, z'

loop_
  _atom_site_type_symbol
  _atom_site_label
  _atom_site_symmetry_multiplicity
  _atom_site_fract_x
  _atom_site_fract_y
  _atom_site_fract_z
  _atom_site_occupancy
  Dy  Dy1       1.0  0.22456713020801544  0.32513588666915894  0.03801867738366128  1.0000
  Dy  Dy2       1.0  0.5245165228843689  0.9036312103271484  0.8225775957107544  1.0000
  O   O1        1.0  0.08783790469169617  0.06467009335756302  0.7497507333755494  1.0000
  Y   Y1        1.0  0.5258032083511353  0.9050891995429993  0.30559104681015015  1.0000
  Y   Y2        1.0  0.23429183661937714  0.3333815336227417  0.5715286731719971  1.0000
  Y   Y3        1.0  0.9130063652992249  0.6987907290458679  0.04020835086703302  1.0000
  Zn  Zn1       1.0  0.9331397414207458  0.7497730255126953  0.5488386154174805  1.0000
  Zn  Zn2       1.0  0.7845507860183716  0.411761075258255  0.30977848172187805  1.0000
