data_image0
_chemical_formula_structural       DyFGeHNiPrWY
_chemical_formula_sum              "Dy1 F1 Ge1 H1 Ni1 Pr1 W1 Y1"
_cell_length_a       4.027742994387579
_cell_length_b       4.045540525301372
_cell_length_c       10.748525619506836
_cell_angle_alpha    79.44568396697372
_cell_angle_beta     79.25003695259993
_cell_angle_gamma    60.01297617203755

_space_group_name_H-M_alt    "P 1"
_space_group_IT_number       1

loop_
  _space_group_symop_operation_xyz
  'x, y, z'

loop_
  _atom_site_type_symbol
  _atom_site_label
  _atom_site_symmetry_multiplicity
  _atom_site_fract_x
  _atom_site_fract_y
  _atom_site_fract_z
  _atom_site_occupancy
  Dy  Dy1       1.0  0.26361197233200073  0.6479646563529968  0.4631788432598114  1.0000
  F   F1        1.0  0.623421311378479  0.023222044110298157  0.35483548045158386  1.0000
  Ge  Ge1       1.0  0.8766247034072876  0.2537507116794586  0.6172563433647156  1.0000
  H   H1        1.0  0.3534506857395172  0.7399258017539978  0.18127083778381348  1.0000
  Ni  Ni1       1.0  0.09481722861528397  0.4735719561576843  0.9640823006629944  1.0000
  Pr  Pr1       1.0  0.4806046783924103  0.8623579740524292  0.7994292378425598  1.0000
  W   W1        1.0  0.9919486045837402  0.37903931736946106  0.26887351274490356  1.0000
  Y   Y1        1.0  0.7198954224586487  0.08885498344898224  0.10474792867898941  1.0000
