data_image0
_chemical_formula_structural       Ga2Ir2Pb2Tc3
_chemical_formula_sum              "Ga2 Ir2 Pb2 Tc3"
_cell_length_a       4.629961709007511
_cell_length_b       6.082383434951081
_cell_length_c       6.272953987121582
_cell_angle_alpha    112.66833613751108
_cell_angle_beta     90.04076825694786
_cell_angle_gamma    90.05183372131985

_space_group_name_H-M_alt    "P 1"
_space_group_IT_number       1

loop_
  _space_group_symop_operation_xyz
  'x, y, z'

loop_
  _atom_site_type_symbol
  _atom_site_label
  _atom_site_symmetry_multiplicity
  _atom_site_fract_x
  _atom_site_fract_y
  _atom_site_fract_z
  _atom_site_occupancy
  Ga  Ga1       1.0  0.9717046022415161  0.15993593633174896  0.27595770359039307  1.0000
  Ga  Ga2       1.0  0.9739459156990051  0.3477969467639923  0.04935244470834734  1.0000
  Ir  Ir1       1.0  0.9731407761573792  0.7770139575004578  0.06591399759054184  1.0000
  Ir  Ir2       1.0  0.9748132824897766  0.3539571762084961  0.6529970765113831  1.0000
  Pb  Pb1       1.0  0.4736268222332001  0.5431609749794006  0.8857616782188417  1.0000
  Pb  Pb2       1.0  0.9736655950546265  0.8347933292388916  0.6008549928665162  1.0000
  Tc  Tc1       1.0  0.47590869665145874  0.46887484192848206  0.3808974325656891  1.0000
  Tc  Tc2       1.0  0.4731810986995697  0.008507923223078251  0.3989141881465912  1.0000
  Tc  Tc3       1.0  0.4722984731197357  0.053985413163900375  0.9669913053512573  1.0000
