data_image0
_chemical_formula_structural       Ga2IrPb3Tc3
_chemical_formula_sum              "Ga2 Ir1 Pb3 Tc3"
_cell_length_a       4.175925507761793
_cell_length_b       7.182324741753264
_cell_length_c       7.188014507293701
_cell_angle_alpha    119.66172073042321
_cell_angle_beta     90.3116253525933
_cell_angle_gamma    90.07315466589317

_space_group_name_H-M_alt    "P 1"
_space_group_IT_number       1

loop_
  _space_group_symop_operation_xyz
  'x, y, z'

loop_
  _atom_site_type_symbol
  _atom_site_label
  _atom_site_symmetry_multiplicity
  _atom_site_fract_x
  _atom_site_fract_y
  _atom_site_fract_z
  _atom_site_occupancy
  Ga  Ga1       1.0  0.26463863253593445  0.15318569540977478  0.8735976815223694  1.0000
  Ga  Ga2       1.0  0.7649987936019897  0.9466503858566284  0.5841915607452393  1.0000
  Ir  Ir1       1.0  0.26479825377464294  0.7999861240386963  0.3069121837615967  1.0000
  Pb  Pb1       1.0  0.2629562318325043  0.2061714082956314  0.3715067505836487  1.0000
  Pb  Pb2       1.0  0.26588907837867737  0.6341436505317688  0.8868572115898132  1.0000
  Pb  Pb3       1.0  0.7648846507072449  0.4771713316440582  0.19933921098709106  1.0000
  Tc  Tc1       1.0  0.7649855613708496  0.9728010892868042  0.991085410118103  1.0000
  Tc  Tc2       1.0  0.2670179307460785  0.7634847164154053  0.6030614376068115  1.0000
  Tc  Tc3       1.0  0.7656686902046204  0.3287777602672577  0.7258521914482117  1.0000
