data_image0
_chemical_formula_structural       GeIrPbSbScSeSiWY
_chemical_formula_sum              "Ge1 Ir1 Pb1 Sb1 Sc1 Se1 Si1 W1 Y1"
_cell_length_a       5.888622794891249
_cell_length_b       5.8743277552464015
_cell_length_c       5.8210859298706055
_cell_angle_alpha    90.27887470287395
_cell_angle_beta     90.10330143194591
_cell_angle_gamma    90.18884866140557

_space_group_name_H-M_alt    "P 1"
_space_group_IT_number       1

loop_
  _space_group_symop_operation_xyz
  'x, y, z'

loop_
  _atom_site_type_symbol
  _atom_site_label
  _atom_site_symmetry_multiplicity
  _atom_site_fract_x
  _atom_site_fract_y
  _atom_site_fract_z
  _atom_site_occupancy
  Ge  Ge1       1.0  0.4098157286643982  0.029348349198698997  0.4719324111938477  1.0000
  Ir  Ir1       1.0  0.17064440250396729  0.2342202067375183  0.7748054265975953  1.0000
  Pb  Pb1       1.0  0.15916140377521515  0.7398543953895569  0.9663282632827758  1.0000
  Sb  Sb1       1.0  0.6470450758934021  0.739120364189148  0.15461206436157227  1.0000
  Sc  Sc1       1.0  0.9108717441558838  0.9775691032409668  0.4690689146518707  1.0000
  Se  Se1       1.0  0.8859337568283081  0.4623525142669678  0.5502538084983826  1.0000
  Si  Si1       1.0  0.1705530434846878  0.23665717244148254  0.1750514954328537  1.0000
  W   W1        1.0  0.4147559106349945  0.47593584656715393  0.465943306684494  1.0000
  Y   Y1        1.0  0.6595061421394348  0.23423895239830017  0.9676305651664734  1.0000
