data_image0
_chemical_formula_structural       Ge3PbSbTaTcWY
_chemical_formula_sum              "Ge3 Pb1 Sb1 Ta1 Tc1 W1 Y1"
_cell_length_a       6.300756611733528
_cell_length_b       6.275915797625727
_cell_length_c       6.300138473510742
_cell_angle_alpha    63.34094744806991
_cell_angle_beta     63.45577546763699
_cell_angle_gamma    63.15485043007854

_space_group_name_H-M_alt    "P 1"
_space_group_IT_number       1

loop_
  _space_group_symop_operation_xyz
  'x, y, z'

loop_
  _atom_site_type_symbol
  _atom_site_label
  _atom_site_symmetry_multiplicity
  _atom_site_fract_x
  _atom_site_fract_y
  _atom_site_fract_z
  _atom_site_occupancy
  Ge  Ge1       1.0  0.4968683123588562  0.8129732608795166  0.5156769156455993  1.0000
  Ge  Ge2       1.0  0.9244232177734375  0.2621373236179352  0.00013764796312893112  1.0000
  Ge  Ge3       1.0  0.4019152820110321  0.7565261721611023  0.9786065816879272  1.0000
  Pb  Pb1       1.0  0.932970404624939  0.7885236144065857  0.803409218788147  1.0000
  Sb  Sb1       1.0  0.9852158427238464  0.34368038177490234  0.5001926422119141  1.0000
  Ta  Ta1       1.0  0.9302545785903931  0.8234736919403076  0.28506156802177424  1.0000
  Tc  Tc1       1.0  0.5405478477478027  0.3658331334590912  0.8712561130523682  1.0000
  W   W1        1.0  0.27422481775283813  0.08051156997680664  0.1808844357728958  1.0000
  Y   Y1        1.0  0.5130472183227539  0.3538282811641693  0.4004649221897125  1.0000
