data_image0
_chemical_formula_structural       Al2INb4
_chemical_formula_sum              "Al2 I1 Nb4"
_cell_length_a       4.7779274304437225
_cell_length_b       4.718103087798128
_cell_length_c       5.473050594329834
_cell_angle_alpha    68.02614331475199
_cell_angle_beta     101.54382294045651
_cell_angle_gamma    83.10679897164455

_space_group_name_H-M_alt    "P 1"
_space_group_IT_number       1

loop_
  _space_group_symop_operation_xyz
  'x, y, z'

loop_
  _atom_site_type_symbol
  _atom_site_label
  _atom_site_symmetry_multiplicity
  _atom_site_fract_x
  _atom_site_fract_y
  _atom_site_fract_z
  _atom_site_occupancy
  Al  Al1       1.0  0.781999409198761  0.15508446097373962  0.2998676300048828  1.0000
  Al  Al2       1.0  0.9264541864395142  0.2323223054409027  0.17620708048343658  1.0000
  I   I1        1.0  0.969186007976532  0.11084404587745667  0.9058256745338441  1.0000
  Nb  Nb1       1.0  0.4833342432975769  0.15411219000816345  0.48640075325965887  1.0000
  Nb  Nb2       1.0  0.2976386249065399  0.4651699662208557  0.1568882167339325  1.0000
  Nb  Nb3       1.0  0.9824842810630798  0.195169597864151  0.5648660659790039  1.0000
  Nb  Nb4       1.0  0.6781752109527588  0.743137776851654  0.12871165573596954  1.0000
