data_image0
_chemical_formula_structural       Fe2NSi4Ta3
_chemical_formula_sum              "Fe2 N1 Si4 Ta3"
_cell_length_a       4.359222235546233
_cell_length_b       5.387113117542408
_cell_length_c       6.050716400146484
_cell_angle_alpha    72.03354280920254
_cell_angle_beta     66.40837277126357
_cell_angle_gamma    66.84823215673057

_space_group_name_H-M_alt    "P 1"
_space_group_IT_number       1

loop_
  _space_group_symop_operation_xyz
  'x, y, z'

loop_
  _atom_site_type_symbol
  _atom_site_label
  _atom_site_symmetry_multiplicity
  _atom_site_fract_x
  _atom_site_fract_y
  _atom_site_fract_z
  _atom_site_occupancy
  Fe  Fe1       1.0  0.8469892740249635  0.7965765595436096  0.06074158847332001  1.0000
  Fe  Fe2       1.0  0.8326672911643983  0.8089609146118164  0.34495916962623596  1.0000
  N   N1        1.0  0.9363895654678346  0.5337459444999695  0.8086119890213013  1.0000
  Si  Si1       1.0  0.8721342086791993  0.8237400650978088  0.027060946449637413  1.0000
  Si  Si2       1.0  0.36330842971801763  0.29905572533607483  0.8357113003730774  1.0000
  Si  Si3       1.0  0.9280737042427064  0.38742148876190186  0.7922590970993042  1.0000
  Si  Si4       1.0  0.21408443152904513  0.8585751056671143  0.5403373837471008  1.0000
  Ta  Ta1       1.0  0.8802533745765687  0.6111333966255188  0.7424941062927246  1.0000
  Ta  Ta2       1.0  0.35245934128761297  0.34760844707489014  0.13210123777389526  1.0000
  Ta  Ta3       1.0  0.4514563083648682  0.7968801259994507  0.838135302066803  1.0000
