data_image0
_chemical_formula_structural       Fe3N2Si2Ta3
_chemical_formula_sum              "Fe3 N2 Si2 Ta3"
_cell_length_a       4.625770174336571
_cell_length_b       5.266079198823485
_cell_length_c       5.666391849517822
_cell_angle_alpha    70.15628373471978
_cell_angle_beta     64.46640138499937
_cell_angle_gamma    64.18798759932037

_space_group_name_H-M_alt    "P 1"
_space_group_IT_number       1

loop_
  _space_group_symop_operation_xyz
  'x, y, z'

loop_
  _atom_site_type_symbol
  _atom_site_label
  _atom_site_symmetry_multiplicity
  _atom_site_fract_x
  _atom_site_fract_y
  _atom_site_fract_z
  _atom_site_occupancy
  Fe  Fe1       1.0  0.8380007743835449  0.7599647045135498  0.6369190216064453  1.0000
  Fe  Fe2       1.0  0.5245692729949951  0.38301950693130493  0.4755808413028717  1.0000
  Fe  Fe3       1.0  0.7819508910179138  0.6289945244789124  0.16125386953353882  1.0000
  N   N1        1.0  0.7895224690437317  0.8311554789543152  0.6036900877952576  1.0000
  N   N2        1.0  0.7356061935424805  0.24546420574188232  0.18656215071678162  1.0000
  Si  Si1       1.0  0.5640744566917419  0.9737228155136108  0.9613924622535706  1.0000
  Si  Si2       1.0  0.9505905508995056  0.9868766069412231  0.8237113356590271  1.0000
  Ta  Ta1       1.0  0.4089403450489044  0.8038873672485352  0.8536875247955322  1.0000
  Ta  Ta2       1.0  0.20458127558231354  0.17602117359638214  0.6673901677131653  1.0000
  Ta  Ta3       1.0  0.15142197906970978  0.5373237729072571  0.28370437026023865  1.0000
