data_image0
_chemical_formula_structural       Fe3N3Ta4
_chemical_formula_sum              "Fe3 N3 Ta4"
_cell_length_a       3.8479967662572623
_cell_length_b       4.194972339706922
_cell_length_c       4.7039995193481445
_cell_angle_alpha    68.87432589088371
_cell_angle_beta     56.71067359330871
_cell_angle_gamma    63.35375917814564

_space_group_name_H-M_alt    "P 1"
_space_group_IT_number       1

loop_
  _space_group_symop_operation_xyz
  'x, y, z'

loop_
  _atom_site_type_symbol
  _atom_site_label
  _atom_site_symmetry_multiplicity
  _atom_site_fract_x
  _atom_site_fract_y
  _atom_site_fract_z
  _atom_site_occupancy
  Fe  Fe1       1.0  0.6171176433563232  0.20762526988983154  0.400824636220932  1.0000
  Fe  Fe2       1.0  0.17083898186683655  0.27658843994140625  0.909718930721283  1.0000
  Fe  Fe3       1.0  0.526960015296936  0.6612898111343384  0.5930172801017761  1.0000
  N   N1        1.0  0.005142892245203257  0.6729550361633301  0.3526068925857544  1.0000
  N   N2        1.0  0.8905640244483948  0.8705851435661316  0.6194286942481996  1.0000
  N   N3        1.0  0.3627595901489258  0.4094046652317047  0.8627784848213196  1.0000
  Ta  Ta1       1.0  0.39793920516967773  0.8992764949798584  0.37185293436050415  1.0000
  Ta  Ta2       1.0  0.32592710852622986  0.024808522313833237  0.870181679725647  1.0000
  Ta  Ta3       1.0  0.8561988472938538  0.5295358896255493  0.13563819229602814  1.0000
  Ta  Ta4       1.0  0.7959228754043579  0.06180010363459587  0.8179397583007812  1.0000
