data_image0
_chemical_formula_structural       FeN4Ta5
_chemical_formula_sum              "Fe1 N4 Ta5"
_cell_length_a       3.993054598075052
_cell_length_b       5.64360021365013
_cell_length_c       5.012600898742676
_cell_angle_alpha    84.25815778960256
_cell_angle_beta     60.4870245093961
_cell_angle_gamma    74.95305782346384

_space_group_name_H-M_alt    "P 1"
_space_group_IT_number       1

loop_
  _space_group_symop_operation_xyz
  'x, y, z'

loop_
  _atom_site_type_symbol
  _atom_site_label
  _atom_site_symmetry_multiplicity
  _atom_site_fract_x
  _atom_site_fract_y
  _atom_site_fract_z
  _atom_site_occupancy
  Fe  Fe1       1.0  0.4200834035873413  0.5524016618728638  0.34324976801872253  1.0000
  N   N1        1.0  0.9482905268669128  0.8181670904159546  0.3173202872276306  1.0000
  N   N2        1.0  0.9495713710784912  0.7628114819526672  0.8810489177703857  1.0000
  N   N3        1.0  0.5579361915588379  0.044085726141929626  0.05070885270833969  1.0000
  N   N4        1.0  0.0021361790131777364  0.8492164015769958  0.9554851651191711  1.0000
  Ta  Ta1       1.0  0.549013078212738  0.15213054418563843  0.08457710593938828  1.0000
  Ta  Ta2       1.0  0.42919543385505676  0.23273657262325287  0.939224898815155  1.0000
  Ta  Ta3       1.0  0.9526448249816895  0.865196943283081  0.7203608751296997  1.0000
  Ta  Ta4       1.0  0.9914698004722595  0.4529784619808197  0.41574388742446894  1.0000
  Ta  Ta5       1.0  0.45358091592788696  0.3701713979244232  0.5218320488929749  1.0000
