data_image0
_chemical_formula_structural       Fe2MnN2Si2Ta3
_chemical_formula_sum              "Fe2 Mn1 N2 Si2 Ta3"
_cell_length_a       4.377976716826822
_cell_length_b       5.200265175228379
_cell_length_c       6.215372085571289
_cell_angle_alpha    73.23434605122802
_cell_angle_beta     67.52812863598888
_cell_angle_gamma    67.13470337466896

_space_group_name_H-M_alt    "P 1"
_space_group_IT_number       1

loop_
  _space_group_symop_operation_xyz
  'x, y, z'

loop_
  _atom_site_type_symbol
  _atom_site_label
  _atom_site_symmetry_multiplicity
  _atom_site_fract_x
  _atom_site_fract_y
  _atom_site_fract_z
  _atom_site_occupancy
  Fe  Fe1       1.0  0.4326817989349365  0.7271826863288879  0.5262390375137329  1.0000
  Fe  Fe2       1.0  0.023637259379029274  0.16726580262184143  0.04203974828124046  1.0000
  Mn  Mn1       1.0  0.7184052467346191  0.39819464087486267  0.7674610614776611  1.0000
  N   N1        1.0  0.4171430766582489  0.12571561336517334  0.48405495285987854  1.0000
  N   N2        1.0  0.9985910654067993  0.20504595339298248  0.33904704451560974  1.0000
  Si  Si1       1.0  0.23225954174995422  0.41624078154563904  0.7768769264221191  1.0000
  Si  Si2       1.0  0.7228262424468994  0.7406816482543945  0.9229832291603088  1.0000
  Ta  Ta1       1.0  0.7327826023101807  0.8824555277824402  0.3247990310192108  1.0000
  Ta  Ta2       1.0  0.17909102141857147  0.40360045433044434  0.6559547185897827  1.0000
  Ta  Ta3       1.0  0.15746864676475525  0.7103651165962219  0.5998027324676514  1.0000
