data_image0
_chemical_formula_structural       Fe2N3Si2Ta3
_chemical_formula_sum              "Fe2 N3 Si2 Ta3"
_cell_length_a       4.227853645511502
_cell_length_b       4.951035615453574
_cell_length_c       5.403177738189697
_cell_angle_alpha    73.14234686659215
_cell_angle_beta     65.59158215116143
_cell_angle_gamma    66.03839056714371

_space_group_name_H-M_alt    "P 1"
_space_group_IT_number       1

loop_
  _space_group_symop_operation_xyz
  'x, y, z'

loop_
  _atom_site_type_symbol
  _atom_site_label
  _atom_site_symmetry_multiplicity
  _atom_site_fract_x
  _atom_site_fract_y
  _atom_site_fract_z
  _atom_site_occupancy
  Fe  Fe1       1.0  0.8577761054039  0.47299879789352417  0.16060811281204224  1.0000
  Fe  Fe2       1.0  0.460783302783966  0.9880999326705933  0.8204051852226257  1.0000
  N   N1        1.0  0.014232398942112921  0.8624940514564514  0.28632396459579473  1.0000
  N   N2        1.0  0.5951363444328308  0.3834306001663208  0.4250088632106781  1.0000
  N   N3        1.0  0.5948591828346252  0.8605384826660156  0.9576919674873352  1.0000
  Si  Si1       1.0  0.541185200214386  0.0805298238992691  0.18837791681289673  1.0000
  Si  Si2       1.0  0.6125832796096802  0.705817699432373  0.6761496663093567  1.0000
  Ta  Ta1       1.0  0.04071154072880745  0.551502525806427  0.827427089214325  1.0000
  Ta  Ta2       1.0  0.5915329456329346  0.7479510307312012  0.43717217445373535  1.0000
  Ta  Ta3       1.0  0.11815050989389418  0.24706873297691345  0.8097745776176453  1.0000
