data_image0
_chemical_formula_structural       Ge4I2
_chemical_formula_sum              "Ge4 I2"
_cell_length_a       5.392641486346505
_cell_length_b       5.038754977799786
_cell_length_c       6.3884968757629395
_cell_angle_alpha    100.59757147842602
_cell_angle_beta     96.64937110966085
_cell_angle_gamma    101.3116049960373

_space_group_name_H-M_alt    "P 1"
_space_group_IT_number       1

loop_
  _space_group_symop_operation_xyz
  'x, y, z'

loop_
  _atom_site_type_symbol
  _atom_site_label
  _atom_site_symmetry_multiplicity
  _atom_site_fract_x
  _atom_site_fract_y
  _atom_site_fract_z
  _atom_site_occupancy
  Ge  Ge1       1.0  0.08202990889549255  0.5504335761070251  0.8217482566833496  1.0000
  Ge  Ge2       1.0  0.5790066719055176  0.048002392053604126  0.9908477067947388  1.0000
  Ge  Ge3       1.0  0.5695255994796753  0.789010226726532  0.18909108638763428  1.0000
  Ge  Ge4       1.0  0.7661630511283875  0.8141127824783325  0.8032869100570679  1.0000
  I   I1        1.0  0.08482811599969864  0.8754218220710754  0.07888058573007585  1.0000
  I   I2        1.0  0.5785491466522217  0.5909509658813477  0.39259418845176697  1.0000
