data_image0
_chemical_formula_structural       Ge4TeTl
_chemical_formula_sum              "Ge4 Te1 Tl1"
_cell_length_a       5.372859316228614
_cell_length_b       5.607654620162954
_cell_length_c       8.072105407714844
_cell_angle_alpha    88.19314186036428
_cell_angle_beta     91.94244731593695
_cell_angle_gamma    92.35001923913306

_space_group_name_H-M_alt    "P 1"
_space_group_IT_number       1

loop_
  _space_group_symop_operation_xyz
  'x, y, z'

loop_
  _atom_site_type_symbol
  _atom_site_label
  _atom_site_symmetry_multiplicity
  _atom_site_fract_x
  _atom_site_fract_y
  _atom_site_fract_z
  _atom_site_occupancy
  Ge  Ge1       1.0  0.7328415513038635  0.6170098185539246  0.0715235024690628  1.0000
  Ge  Ge2       1.0  0.9385361671447754  0.7060126662254333  0.3545975685119629  1.0000
  Ge  Ge3       1.0  0.7816298007965088  0.008578446693718433  0.3696046471595764  1.0000
  Ge  Ge4       1.0  0.2944355309009552  0.9335934519767761  0.24215829372406006  1.0000
  Te  Te1       1.0  0.830295979976654  0.04782457277178764  0.19337952136993408  1.0000
  Tl  Tl1       1.0  0.3669106960296631  0.06453555822372437  0.2937959134578705  1.0000
