data_image0
_chemical_formula_structural       Ge3Te3
_chemical_formula_sum              "Ge3 Te3"
_cell_length_a       8.250510204131393
_cell_length_b       7.659218439536722
_cell_length_c       7.650338172912598
_cell_angle_alpha    109.47210498742533
_cell_angle_beta     109.98162618395573
_cell_angle_gamma    113.57105205761289

_space_group_name_H-M_alt    "P 1"
_space_group_IT_number       1

loop_
  _space_group_symop_operation_xyz
  'x, y, z'

loop_
  _atom_site_type_symbol
  _atom_site_label
  _atom_site_symmetry_multiplicity
  _atom_site_fract_x
  _atom_site_fract_y
  _atom_site_fract_z
  _atom_site_occupancy
  Ge  Ge1       1.0  0.10617148131132126  0.3658955991268158  0.6743879318237305  1.0000
  Ge  Ge2       1.0  0.17666612565517426  0.7446438670158386  0.7973487377166748  1.0000
  Ge  Ge3       1.0  0.6273569464683533  0.07986347377300262  0.04773676022887233  1.0000
  Te  Te1       1.0  0.6503010392189026  0.13059952855110168  0.9324917793273926  1.0000
  Te  Te2       1.0  0.11585912853479385  0.5518272519111633  0.41791975498199463  1.0000
  Te  Te3       1.0  0.6230993866920471  0.31931766867637634  0.5670387148857117  1.0000
