data_image0
_chemical_formula_structural       Ge4Te2
_chemical_formula_sum              "Ge4 Te2"
_cell_length_a       5.685430203509797
_cell_length_b       5.49287650189734
_cell_length_c       5.378234386444092
_cell_angle_alpha    105.75129694526477
_cell_angle_beta     113.00234755280712
_cell_angle_gamma    121.54704300904008

_space_group_name_H-M_alt    "P 1"
_space_group_IT_number       1

loop_
  _space_group_symop_operation_xyz
  'x, y, z'

loop_
  _atom_site_type_symbol
  _atom_site_label
  _atom_site_symmetry_multiplicity
  _atom_site_fract_x
  _atom_site_fract_y
  _atom_site_fract_z
  _atom_site_occupancy
  Ge  Ge1       1.0  0.3486646115779876  0.4319848418235778  0.8248936533927917  1.0000
  Ge  Ge2       1.0  0.9859936833381653  0.5692538022994995  0.9112776517868042  1.0000
  Ge  Ge3       1.0  0.8878031969070435  0.6664739251136779  0.1336715668439865  1.0000
  Ge  Ge4       1.0  0.30361777544021595  0.8387362957000731  0.5206815600395203  1.0000
  Te  Te1       1.0  0.854221761226654  0.7539039850234984  0.5765785574913025  1.0000
  Te  Te2       1.0  0.31337806582450867  0.11015421152114867  0.6060521006584167  1.0000
