data_image0
_chemical_formula_structural       DyGe5
_chemical_formula_sum              "Dy1 Ge5"
_cell_length_a       4.668502261543769
_cell_length_b       5.482316987294722
_cell_length_c       6.2102155685424805
_cell_angle_alpha    86.45550675540012
_cell_angle_beta     89.844937179239
_cell_angle_gamma    92.39898472356984

_space_group_name_H-M_alt    "P 1"
_space_group_IT_number       1

loop_
  _space_group_symop_operation_xyz
  'x, y, z'

loop_
  _atom_site_type_symbol
  _atom_site_label
  _atom_site_symmetry_multiplicity
  _atom_site_fract_x
  _atom_site_fract_y
  _atom_site_fract_z
  _atom_site_occupancy
  Dy  Dy1       1.0  0.9342503547668457  0.19344563782215118  0.5848309397697449  1.0000
  Ge  Ge1       1.0  0.2511937618255615  0.1441180557012558  0.9443660378456116  1.0000
  Ge  Ge2       1.0  0.48656901717185974  0.9219592213630676  0.7379055619239807  1.0000
  Ge  Ge3       1.0  0.41118770837783813  0.5228872299194336  0.17000551521778107  1.0000
  Ge  Ge4       1.0  0.7787271738052368  0.2864105701446533  0.07095535844564438  1.0000
  Ge  Ge5       1.0  0.9584833383560181  0.23090477287769318  0.7851423025131226  1.0000
