data_image0
_chemical_formula_structural       GeI3Mo5Sb2
_chemical_formula_sum              "Ge1 I3 Mo5 Sb2"
_cell_length_a       6.812003296375721
_cell_length_b       8.12173084429308
_cell_length_c       8.358969688415527
_cell_angle_alpha    124.55599014807991
_cell_angle_beta     91.09342789842101
_cell_angle_gamma    91.33631654766408

_space_group_name_H-M_alt    "P 1"
_space_group_IT_number       1

loop_
  _space_group_symop_operation_xyz
  'x, y, z'

loop_
  _atom_site_type_symbol
  _atom_site_label
  _atom_site_symmetry_multiplicity
  _atom_site_fract_x
  _atom_site_fract_y
  _atom_site_fract_z
  _atom_site_occupancy
  Ge  Ge1       1.0  0.22936592996120456  0.9182312488555908  0.2531183063983917  1.0000
  I   I1        1.0  0.9539762139320375  0.29499170184135437  0.7796116471290588  1.0000
  I   I2        1.0  0.711129903793335  0.8317643404006958  0.1840883493423462  1.0000
  I   I3        1.0  0.45373347401618963  0.9579547643661499  0.03462301567196846  1.0000
  Mo  Mo1       1.0  0.4552203714847565  0.4169411063194275  0.8604939579963684  1.0000
  Mo  Mo2       1.0  0.9570851922035218  0.487863153219223  0.09627296775579453  1.0000
  Mo  Mo3       1.0  0.20686163008213043  0.8002544641494751  0.6222588419914246  1.0000
  Mo  Mo4       1.0  0.4541907906532288  0.6745997071266174  0.2499842494726181  1.0000
  Mo  Mo5       1.0  0.45534551143646246  0.495196670293808  0.2815220952033997  1.0000
  Sb  Sb1       1.0  0.7473043203353882  0.8599553108215332  0.47119337320327764  1.0000
  Sb  Sb2       1.0  0.7031547427177429  0.32659706473350525  0.22466690838336947  1.0000
