data_image0
_chemical_formula_structural       CoILaMo6SeV
_chemical_formula_sum              "Co1 I1 La1 Mo6 Se1 V1"
_cell_length_a       5.501481032382758
_cell_length_b       4.993381088332317
_cell_length_c       6.23389196395874
_cell_angle_alpha    134.34681721992501
_cell_angle_beta     103.31479520854518
_cell_angle_gamma    121.77390905350781

_space_group_name_H-M_alt    "P 1"
_space_group_IT_number       1

loop_
  _space_group_symop_operation_xyz
  'x, y, z'

loop_
  _atom_site_type_symbol
  _atom_site_label
  _atom_site_symmetry_multiplicity
  _atom_site_fract_x
  _atom_site_fract_y
  _atom_site_fract_z
  _atom_site_occupancy
  Co  Co1       1.0  0.20271076261997215  0.7673375010490416  0.3819965720176696  1.0000
  I   I1        1.0  0.4225330650806427  0.04948664829134936  0.464506447315216  1.0000
  La  La1       1.0  0.9973525404930115  0.029331738129258187  0.8930016756057739  1.0000
  Mo  Mo1       1.0  0.8182620406150818  0.4103712439537048  0.24849446117877957  1.0000
  Mo  Mo2       1.0  0.36849784851074213  0.33396381139755243  0.865213930606842  1.0000
  Mo  Mo3       1.0  0.9946061968803405  0.49821522831916787  0.7921749353408812  1.0000
  Mo  Mo4       1.0  0.569438874721527  0.9608446359634398  0.058415181934833436  1.0000
  Mo  Mo5       1.0  0.9851403832435608  0.7790247201919555  0.3697108626365661  1.0000
  Mo  Mo6       1.0  0.16132642328739158  0.647238790988922  0.566449224948883  1.0000
  Se  Se1       1.0  0.26207405328750605  0.9112702608108519  0.7850939035415648  1.0000
  V   V1        1.0  0.879918873310089  0.4648918509483336  0.758902072906494  1.0000
