data_image0
_chemical_formula_structural       Mo9Se2
_chemical_formula_sum              "Mo9 Se2"
_cell_length_a       5.480387546185502
_cell_length_b       6.8340660550457955
_cell_length_c       5.673029899597168
_cell_angle_alpha    135.33738360804853
_cell_angle_beta     88.30065800123833
_cell_angle_gamma    88.89962663260745

_space_group_name_H-M_alt    "P 1"
_space_group_IT_number       1

loop_
  _space_group_symop_operation_xyz
  'x, y, z'

loop_
  _atom_site_type_symbol
  _atom_site_label
  _atom_site_symmetry_multiplicity
  _atom_site_fract_x
  _atom_site_fract_y
  _atom_site_fract_z
  _atom_site_occupancy
  Mo  Mo1       1.0  0.6970996856689453  0.9228044152259827  0.6288329362869264  1.0000
  Mo  Mo2       1.0  0.691214382648468  0.4587955474853516  0.022245943546295218  1.0000
  Mo  Mo3       1.0  0.689842939376831  0.8926096558570862  0.9179819822311401  1.0000
  Mo  Mo4       1.0  0.7297762036323547  0.5392158031463624  0.3574077486991883  1.0000
  Mo  Mo5       1.0  0.1411660611629486  0.09733775258064274  0.6812435388565063  1.0000
  Mo  Mo6       1.0  0.6915704011917114  0.7753713130950928  0.13899454474449155  1.0000
  Mo  Mo7       1.0  0.19480453431606293  0.7598976492881776  0.8086354732513429  1.0000
  Mo  Mo8       1.0  0.20132608711719513  0.12781269848346724  0.8234021663665771  1.0000
  Mo  Mo9       1.0  0.7602683305740356  0.8958732485771179  0.26129081845283514  1.0000
  Se  Se1       1.0  0.22291876375675201  0.7331582307815554  0.9293652176856996  1.0000
  Se  Se2       1.0  0.21325378119945526  0.7212662696838379  0.6644582748413086  1.0000
