data_image0
_chemical_formula_structural       Mo10Se
_chemical_formula_sum              "Mo10 Se1"
_cell_length_a       6.9167171907497895
_cell_length_b       7.295326115776984
_cell_length_c       7.353414058685303
_cell_angle_alpha    112.31379721274875
_cell_angle_beta     90.0489329212764
_cell_angle_gamma    86.61539337867734

_space_group_name_H-M_alt    "P 1"
_space_group_IT_number       1

loop_
  _space_group_symop_operation_xyz
  'x, y, z'

loop_
  _atom_site_type_symbol
  _atom_site_label
  _atom_site_symmetry_multiplicity
  _atom_site_fract_x
  _atom_site_fract_y
  _atom_site_fract_z
  _atom_site_occupancy
  Mo  Mo1       1.0  0.10427813231945038  0.7582606673240662  0.7079235315322876  1.0000
  Mo  Mo2       1.0  0.0650225505232811  0.04513329267501831  0.4914466738700867  1.0000
  Mo  Mo3       1.0  0.12625376880168915  0.7778248190879822  0.4113739132881165  1.0000
  Mo  Mo4       1.0  0.6493716239929199  0.23286226391792297  0.6661975979804993  1.0000
  Mo  Mo5       1.0  0.7091158628463745  0.09554529190063477  0.6315426230430603  1.0000
  Mo  Mo6       1.0  0.5978838801383972  0.6755682826042175  0.4904566407203675  1.0000
  Mo  Mo7       1.0  0.09372437745332718  0.6268432140350342  0.458493322134018  1.0000
  Mo  Mo8       1.0  0.6783807873725891  0.881582498550415  0.4530274569988251  1.0000
  Mo  Mo9       1.0  0.10372559726238251  0.04176463931798935  0.24550130963325503  1.0000
  Mo  Mo10      1.0  0.5839176774024963  0.022908275946974754  0.3482287526130676  1.0000
  Se  Se1       1.0  0.7123273611068726  0.7993174195289612  0.9354306459426881  1.0000
