data_image0
_chemical_formula_structural       Mo11
_chemical_formula_sum              "Mo11"
_cell_length_a       4.939059553770959
_cell_length_b       6.090946865827404
_cell_length_c       3.914484739303589
_cell_angle_alpha    168.44949290771171
_cell_angle_beta     72.7400032203492
_cell_angle_gamma    97.33802785383727

_space_group_name_H-M_alt    "P 1"
_space_group_IT_number       1

loop_
  _space_group_symop_operation_xyz
  'x, y, z'

loop_
  _atom_site_type_symbol
  _atom_site_label
  _atom_site_symmetry_multiplicity
  _atom_site_fract_x
  _atom_site_fract_y
  _atom_site_fract_z
  _atom_site_occupancy
  Mo  Mo1       1.0  0.3848273754119873  0.810254395008087  0.8675020337104795  1.0000
  Mo  Mo2       1.0  0.8183032870292664  0.05305718258023261  0.06671999394893643  1.0000
  Mo  Mo3       1.0  0.8455535769462585  0.6181357502937317  0.37711197137832636  1.0000
  Mo  Mo4       1.0  0.786495566368103  0.3414760529994964  0.7083898186683654  1.0000
  Mo  Mo5       1.0  0.20955632627010345  0.20073813199996948  0.37145394086837763  1.0000
  Mo  Mo6       1.0  0.6692990660667419  0.24051411449909207  0.9959254264831542  1.0000
  Mo  Mo7       1.0  0.8803942203521729  0.9888550639152527  0.11586116254329665  1.0000
  Mo  Mo8       1.0  0.39948534965515137  0.4380522072315216  0.11789660900831217  1.0000
  Mo  Mo9       1.0  0.7074716687202454  0.08114873617887486  0.6905582547187804  1.0000
  Mo  Mo10      1.0  0.174103781580925  0.5291306972503662  0.8411943316459655  1.0000
  Mo  Mo11      1.0  0.1959606409072876  0.5760631561279297  0.11499868333339684  1.0000
