data_image0
_chemical_formula_structural       CoHI3Mo4NaSe
_chemical_formula_sum              "Co1 H1 I3 Mo4 Na1 Se1"
_cell_length_a       5.172421512269278
_cell_length_b       7.2171381939827395
_cell_length_c       7.188344478607178
_cell_angle_alpha    128.44533600815723
_cell_angle_beta     90.93816794906438
_cell_angle_gamma    89.25353506824524

_space_group_name_H-M_alt    "P 1"
_space_group_IT_number       1

loop_
  _space_group_symop_operation_xyz
  'x, y, z'

loop_
  _atom_site_type_symbol
  _atom_site_label
  _atom_site_symmetry_multiplicity
  _atom_site_fract_x
  _atom_site_fract_y
  _atom_site_fract_z
  _atom_site_occupancy
  Co  Co1       1.0  0.5385491251945496  0.52677983045578  0.07476898282766337  1.0000
  H   H1        1.0  0.040567800402641296  0.5920108556747437  0.12590159475803375  1.0000
  I   I1        1.0  0.5290246605873108  0.09708178043365479  0.20451654493808746  1.0000
  I   I2        1.0  0.03926573321223259  0.34895771741867065  0.9928760528564453  1.0000
  I   I3        1.0  0.038492463529109955  0.7800966501235962  0.5885323286056519  1.0000
  Mo  Mo1       1.0  0.5392747521400452  0.8275105953216553  0.07475917786359787  1.0000
  Mo  Mo2       1.0  0.038068391382694244  0.6572856903076172  0.548848271369934  1.0000
  Mo  Mo3       1.0  0.5482473969459534  0.6743361353874207  0.006467140279710231  1.0000
  Mo  Mo4       1.0  0.04924381151795387  0.8010221123695374  0.1376285403966903  1.0000
  Na  Na1       1.0  0.042266566306352615  0.8267686367034912  0.42679315805435175  1.0000
  Se  Se1       1.0  0.034041594713926315  0.5783883333206177  0.004053760319948135  1.0000
