data_image0
_chemical_formula_structural       Ca2IMnO4Ta6
_chemical_formula_sum              "Ca2 I1 Mn1 O4 Ta6"
_cell_length_a       5.28856123731248
_cell_length_b       6.403244396260615
_cell_length_c       8.878232955932617
_cell_angle_alpha    100.89912478056473
_cell_angle_beta     89.45989242537449
_cell_angle_gamma    111.6893696704158

_space_group_name_H-M_alt    "P 1"
_space_group_IT_number       1

loop_
  _space_group_symop_operation_xyz
  'x, y, z'

loop_
  _atom_site_type_symbol
  _atom_site_label
  _atom_site_symmetry_multiplicity
  _atom_site_fract_x
  _atom_site_fract_y
  _atom_site_fract_z
  _atom_site_occupancy
  Ca  Ca1       1.0  0.2129523754119873  0.4012167453765869  0.25377631187438965  1.0000
  Ca  Ca2       1.0  0.6542717814445496  0.029426226392388344  0.8756493926048279  1.0000
  I   I1        1.0  0.14072272181510925  0.5364909172058105  0.5520703196525574  1.0000
  Mn  Mn1       1.0  0.6406258344650269  0.3488766849040985  0.980163037776947  1.0000
  O   O1        1.0  0.2779780626296997  0.6790220737457275  0.1024850308895111  1.0000
  O   O2        1.0  0.005357584450393915  0.9017781615257263  0.8962352871894836  1.0000
  O   O3        1.0  0.949359655380249  0.8199074268341064  0.39372438192367554  1.0000
  O   O4        1.0  0.5166019201278687  0.4280281066894531  0.4134933650493622  1.0000
  Ta  Ta1       1.0  0.632472038269043  0.36532437801361084  0.775963544845581  1.0000
  Ta  Ta2       1.0  0.9089070558547974  0.8211899995803833  0.5685320496559143  1.0000
  Ta  Ta3       1.0  0.6334995627403259  0.024545270949602127  0.2767758369445801  1.0000
  Ta  Ta4       1.0  0.6752080321311951  0.2539532780647278  0.4882851839065552  1.0000
  Ta  Ta5       1.0  0.2718450725078583  0.9189218878746033  0.06970055401325223  1.0000
  Ta  Ta6       1.0  0.15848135948181152  0.37149906158447266  0.5968315005302429  1.0000
