data_image0
_chemical_formula_structural       Ca3Mn2O3Ta5Tb
_chemical_formula_sum              "Ca3 Mn2 O3 Ta5 Tb1"
_cell_length_a       4.992612989046364
_cell_length_b       7.224346023976817
_cell_length_c       7.917856693267822
_cell_angle_alpha    118.64560622106426
_cell_angle_beta     97.95518394033229
_cell_angle_gamma    88.18015133326435

_space_group_name_H-M_alt    "P 1"
_space_group_IT_number       1

loop_
  _space_group_symop_operation_xyz
  'x, y, z'

loop_
  _atom_site_type_symbol
  _atom_site_label
  _atom_site_symmetry_multiplicity
  _atom_site_fract_x
  _atom_site_fract_y
  _atom_site_fract_z
  _atom_site_occupancy
  Ca  Ca1       1.0  0.13289955258369446  0.3962113559246063  0.44126567244529724  1.0000
  Ca  Ca2       1.0  0.504051923751831  0.4988400936126709  0.128867045044899  1.0000
  Ca  Ca3       1.0  0.6066123247146606  0.271465539932251  0.08319368958473206  1.0000
  Mn  Mn1       1.0  0.11834051460027693  0.767825186252594  0.8461906909942627  1.0000
  Mn  Mn2       1.0  0.07904358953237534  0.2989121973514557  0.031088989228010178  1.0000
  O   O1        1.0  0.8175480961799622  0.6834673285484314  0.8364586234092712  1.0000
  O   O2        1.0  0.6082468628883362  0.4384813606739044  0.04163523390889168  1.0000
  O   O3        1.0  0.3321007490158081  0.0668807327747345  0.8773481249809265  1.0000
  Ta  Ta1       1.0  0.8350330591201782  0.05158112570643425  0.6850461959838867  1.0000
  Ta  Ta2       1.0  0.38528746366500854  0.07509065419435501  0.6347543597221375  1.0000
  Ta  Ta3       1.0  0.6223146915435791  0.5454341769218445  0.36489588022232056  1.0000
  Ta  Ta4       1.0  0.1578340232372284  0.8230552077293396  0.3130301237106323  1.0000
  Ta  Ta5       1.0  0.08468863368034363  0.9344696998596191  0.0997429788112641  1.0000
  Tb  Tb1       1.0  0.7195965051651001  0.7904056906700134  0.06215530261397362  1.0000
