data_image0
_chemical_formula_structural       CaMn2O7Ta4
_chemical_formula_sum              "Ca1 Mn2 O7 Ta4"
_cell_length_a       4.675338613002031
_cell_length_b       4.704158491325896
_cell_length_c       7.763049602508545
_cell_angle_alpha    122.08912230018515
_cell_angle_beta     104.0798602173279
_cell_angle_gamma    90.52854333849929

_space_group_name_H-M_alt    "P 1"
_space_group_IT_number       1

loop_
  _space_group_symop_operation_xyz
  'x, y, z'

loop_
  _atom_site_type_symbol
  _atom_site_label
  _atom_site_symmetry_multiplicity
  _atom_site_fract_x
  _atom_site_fract_y
  _atom_site_fract_z
  _atom_site_occupancy
  Ca  Ca1       1.0  0.7336968779563904  0.013685047626495363  0.6314520835876465  1.0000
  Mn  Mn1       1.0  0.1325152963399887  0.010311116464436054  0.10799176245927809  1.0000
  Mn  Mn2       1.0  0.5255963206291199  0.9980241060256959  0.7098062634468078  1.0000
  O   O1        1.0  0.4320122301578522  0.7878457307815553  0.9172303676605223  1.0000
  O   O2        1.0  0.9314738512039185  0.8100783228874208  0.9033502340316771  1.0000
  O   O3        1.0  0.9865756630897522  0.6893767714500427  0.6478281617164611  1.0000
  O   O4        1.0  0.4576184153556824  0.18628355860710147  0.8150535225868224  1.0000
  O   O5        1.0  0.8468586802482605  0.25979557633399963  0.16964076459407804  1.0000
  O   O6        1.0  0.9395527243614197  0.7983741760253907  0.8237304687499999  1.0000
  O   O7        1.0  0.36974358558654785  0.6391981840133667  0.3142862319946289  1.0000
  Ta  Ta1       1.0  0.15970331430435183  0.8460467457771302  0.12553493678569794  1.0000
  Ta  Ta2       1.0  0.6374383568763733  0.26421403884887695  0.09921701252460478  1.0000
  Ta  Ta3       1.0  0.6037096977233887  0.7949329614639283  0.97843599319458  1.0000
  Ta  Ta4       1.0  0.653304934501648  0.44777131080627447  0.12001899629831313  1.0000
