data_image0
_chemical_formula_structural       CaMn2O9Ta2
_chemical_formula_sum              "Ca1 Mn2 O9 Ta2"
_cell_length_a       4.517818685091261
_cell_length_b       4.954782816941099
_cell_length_c       8.7687406539917
_cell_angle_alpha    106.5569613556508
_cell_angle_beta     102.35838606260056
_cell_angle_gamma    89.51519504276716

_space_group_name_H-M_alt    "P 1"
_space_group_IT_number       1

loop_
  _space_group_symop_operation_xyz
  'x, y, z'

loop_
  _atom_site_type_symbol
  _atom_site_label
  _atom_site_symmetry_multiplicity
  _atom_site_fract_x
  _atom_site_fract_y
  _atom_site_fract_z
  _atom_site_occupancy
  Ca  Ca1       1.0  0.613839328289032  0.10902561992406845  0.32321038842201233  1.0000
  Mn  Mn1       1.0  0.9901097416877747  0.05569729208946228  0.21321827173233032  1.0000
  Mn  Mn2       1.0  0.03450332209467888  0.34357136487960815  0.17463518679141998  1.0000
  O   O1        1.0  0.4399207532405853  0.35693997144699097  0.6757805943489075  1.0000
  O   O2        1.0  0.7766849994659424  0.8131780624389648  0.6379881501197815  1.0000
  O   O3        1.0  0.5043126940727234  0.8827317357063293  0.1621006578207016  1.0000
  O   O4        1.0  0.5231005549430847  0.28177860379219055  0.14614714682102203  1.0000
  O   O5        1.0  0.3792567253112793  0.8644779920578003  0.28589093685150146  1.0000
  O   O6        1.0  0.1591995507478714  0.07764872163534164  0.40574750304222107  1.0000
  O   O7        1.0  0.2937464118003845  0.5760760307312012  0.6481798887252808  1.0000
  O   O8        1.0  0.8404509425163269  0.5967707633972168  0.7020038962364197  1.0000
  O   O9        1.0  0.9976096153259277  0.015825573354959488  0.24034641683101654  1.0000
  Ta  Ta1       1.0  0.03946041688323021  0.45704272389411926  0.08561727404594421  1.0000
  Ta  Ta2       1.0  0.23366326093673706  0.03528285399079323  0.5509475469589233  1.0000
