data_image0
_chemical_formula_structural       Ca2Mn2O3Ta7
_chemical_formula_sum              "Ca2 Mn2 O3 Ta7"
_cell_length_a       4.903315957183802
_cell_length_b       5.214720644991484
_cell_length_c       10.362071990966797
_cell_angle_alpha    88.72025966917889
_cell_angle_beta     89.2795727349978
_cell_angle_gamma    114.46134572199117

_space_group_name_H-M_alt    "P 1"
_space_group_IT_number       1

loop_
  _space_group_symop_operation_xyz
  'x, y, z'

loop_
  _atom_site_type_symbol
  _atom_site_label
  _atom_site_symmetry_multiplicity
  _atom_site_fract_x
  _atom_site_fract_y
  _atom_site_fract_z
  _atom_site_occupancy
  Ca  Ca1       1.0  0.857043981552124  0.2701514959335327  0.18197034299373627  1.0000
  Ca  Ca2       1.0  0.47738316655158997  0.9731142520904541  0.9336677193641663  1.0000
  Mn  Mn1       1.0  0.8943025469779968  0.28270381689071655  0.6752662658691406  1.0000
  Mn  Mn2       1.0  0.4878386855125427  0.9638414978981018  0.23320764303207397  1.0000
  O   O1        1.0  0.4081578254699707  0.2643671929836273  0.662402331829071  1.0000
  O   O2        1.0  0.7068077921867371  0.9471175670623779  0.0219409316778183  1.0000
  O   O3        1.0  0.26473310589790344  0.3262496292591095  0.31928616762161255  1.0000
  Ta  Ta1       1.0  0.875737190246582  0.22560307383537292  0.7252892255783081  1.0000
  Ta  Ta2       1.0  0.41207706928253174  0.7768607139587402  0.8847635388374329  1.0000
  Ta  Ta3       1.0  0.36819592118263245  0.7456668019294739  0.3685537576675415  1.0000
  Ta  Ta4       1.0  0.9974273443222046  0.9711952209472656  0.7629597187042236  1.0000
  Ta  Ta5       1.0  0.19181177020072937  0.9515889883041382  0.21651382744312286  1.0000
  Ta  Ta6       1.0  0.4130389392375946  0.5034204125404358  0.506431519985199  1.0000
  Ta  Ta7       1.0  0.9096734523773193  0.22818569839000702  0.8855617046356201  1.0000
