data_image0
_chemical_formula_structural       Ca2Mn2O4Ta6
_chemical_formula_sum              "Ca2 Mn2 O4 Ta6"
_cell_length_a       4.643486165543154
_cell_length_b       6.011079029154296
_cell_length_c       8.574047088623047
_cell_angle_alpha    90.90285845736466
_cell_angle_beta     87.85172177804321
_cell_angle_gamma    89.6459542510644

_space_group_name_H-M_alt    "P 1"
_space_group_IT_number       1

loop_
  _space_group_symop_operation_xyz
  'x, y, z'

loop_
  _atom_site_type_symbol
  _atom_site_label
  _atom_site_symmetry_multiplicity
  _atom_site_fract_x
  _atom_site_fract_y
  _atom_site_fract_z
  _atom_site_occupancy
  Ca  Ca1       1.0  0.7872536778450012  0.9192434549331665  0.5671175122261047  1.0000
  Ca  Ca2       1.0  0.28345397114753723  0.07762191444635391  0.3533245623111725  1.0000
  Mn  Mn1       1.0  0.29252415895462036  0.028092794120311737  0.7203859686851501  1.0000
  Mn  Mn2       1.0  0.3605594038963318  0.05748431757092476  0.3383161127567291  1.0000
  O   O1        1.0  0.8785483241081238  0.5768858194351196  0.3240666389465332  1.0000
  O   O2        1.0  0.07811562716960907  0.05728818476200104  0.8709034323692322  1.0000
  O   O3        1.0  0.04009338468313217  0.12590157985687256  0.9501057863235474  1.0000
  O   O4        1.0  0.4352802634239197  0.866523802280426  0.35211366415023804  1.0000
  Ta  Ta1       1.0  0.7765898108482361  0.9123852849006653  0.43965843319892883  1.0000
  Ta  Ta2       1.0  0.28945624828338623  0.9175400137901306  0.25746846199035645  1.0000
  Ta  Ta3       1.0  0.7885692715644836  0.5726149082183838  0.4539463520050049  1.0000
  Ta  Ta4       1.0  0.7904096841812134  0.5691170692443848  0.07559867203235626  1.0000
  Ta  Ta5       1.0  0.7814372181892395  0.5434113144874573  0.9618090391159058  1.0000
  Ta  Ta6       1.0  0.85493004322052  0.4025847911834717  0.5837211012840271  1.0000
