data_image0
_chemical_formula_structural       U9
_chemical_formula_sum              "U9"
_cell_length_a       4.299848103336626
_cell_length_b       5.328364589121537
_cell_length_c       6.246246814727783
_cell_angle_alpha    129.2494942457948
_cell_angle_beta     98.70442722517447
_cell_angle_gamma    107.62955199920557

_space_group_name_H-M_alt    "P 1"
_space_group_IT_number       1

loop_
  _space_group_symop_operation_xyz
  'x, y, z'

loop_
  _atom_site_type_symbol
  _atom_site_label
  _atom_site_symmetry_multiplicity
  _atom_site_fract_x
  _atom_site_fract_y
  _atom_site_fract_z
  _atom_site_occupancy
  U   U1        1.0  0.7399159669876099  0.5244893431663513  0.23768001794815066  1.0000
  U   U2        1.0  0.7544846534729004  0.9024516344070435  0.5329446792602539  1.0000
  U   U3        1.0  0.7358253598213196  0.4493031203746795  0.41342663764953613  1.0000
  U   U4        1.0  0.23225417733192438  0.8248615860939025  0.5790537595748901  1.0000
  U   U5        1.0  0.24184493720531464  0.2991485595703125  0.06269981712102891  1.0000
  U   U6        1.0  0.7431415915489197  0.28747829794883734  0.0938980355858803  1.0000
  U   U7        1.0  0.2332478016614915  0.5922480225563052  0.5609256029129029  1.0000
  U   U8        1.0  0.7276152968406677  0.38196909427642817  0.8804381489753723  1.0000
  U   U9        1.0  0.24940581619739532  0.16914527118206021  0.03198859840631485  1.0000
