data_image0
_chemical_formula_structural       GeI2PrScU4
_chemical_formula_sum              "Ge1 I2 Pr1 Sc1 U4"
_cell_length_a       4.468157705162166
_cell_length_b       4.515503866671998
_cell_length_c       7.155348300933838
_cell_angle_alpha    100.65279633887361
_cell_angle_beta     92.94601139652463
_cell_angle_gamma    154.16711205234938

_space_group_name_H-M_alt    "P 1"
_space_group_IT_number       1

loop_
  _space_group_symop_operation_xyz
  'x, y, z'

loop_
  _atom_site_type_symbol
  _atom_site_label
  _atom_site_symmetry_multiplicity
  _atom_site_fract_x
  _atom_site_fract_y
  _atom_site_fract_z
  _atom_site_occupancy
  Ge  Ge1       1.0  0.3753351867198944  0.8139545917510986  0.6015308499336243  1.0000
  I   I1        1.0  0.16178999841213226  0.5120195746421814  0.9187347292900085  1.0000
  I   I2        1.0  0.17347124218940735  0.7256037592887878  0.3164815604686737  1.0000
  Pr  Pr1       1.0  0.6781254410743713  0.6833263635635376  0.0006570674595423004  1.0000
  Sc  Sc1       1.0  0.9297045469284058  0.85373455286026  0.9670321345329285  1.0000
  U   U1        1.0  0.17000934481620789  0.27394476532936096  0.6571600437164307  1.0000
  U   U2        1.0  0.14918382465839386  0.048933833837509155  0.9382781982421875  1.0000
  U   U3        1.0  0.47638437151908875  0.10718957334756851  0.5184565186500549  1.0000
  U   U4        1.0  0.9354603886604309  0.5663356781005859  0.9121999740600586  1.0000
