data_image0
_chemical_formula_structural       GeIU7
_chemical_formula_sum              "Ge1 I1 U7"
_cell_length_a       4.8645582085103465
_cell_length_b       5.246976924426908
_cell_length_c       6.519705295562744
_cell_angle_alpha    90.07245311822378
_cell_angle_beta     90.9713362983653
_cell_angle_gamma    94.63657261403966

_space_group_name_H-M_alt    "P 1"
_space_group_IT_number       1

loop_
  _space_group_symop_operation_xyz
  'x, y, z'

loop_
  _atom_site_type_symbol
  _atom_site_label
  _atom_site_symmetry_multiplicity
  _atom_site_fract_x
  _atom_site_fract_y
  _atom_site_fract_z
  _atom_site_occupancy
  Ge  Ge1       1.0  0.680705189704895  0.7698683738708496  0.8700766563415527  1.0000
  I   I1        1.0  0.6751134395599365  0.10184953361749649  0.2523232698440552  1.0000
  U   U1        1.0  0.18015405535697937  0.7240203022956848  0.1763918101787567  1.0000
  U   U2        1.0  0.18278104066848755  0.16139012575149536  0.7888602614402771  1.0000
  U   U3        1.0  0.6758570671081543  0.8263694643974304  0.43218865990638733  1.0000
  U   U4        1.0  0.1801634579896927  0.8832153081893921  0.5654816031455994  1.0000
  U   U5        1.0  0.682837724685669  0.7225886583328247  0.5792648196220398  1.0000
  U   U6        1.0  0.1787717342376709  0.9454047083854675  0.4676196277141571  1.0000
  U   U7        1.0  0.18050509691238403  0.42397230863571167  0.0771624818444252  1.0000
