data_image0
_chemical_formula_structural       U9
_chemical_formula_sum              "U9"
_cell_length_a       5.110026051161897
_cell_length_b       3.025504597115729
_cell_length_c       5.0434064865112305
_cell_angle_alpha    40.71298287939051
_cell_angle_beta     59.94359532583891
_cell_angle_gamma    19.856148623267718

_space_group_name_H-M_alt    "P 1"
_space_group_IT_number       1

loop_
  _space_group_symop_operation_xyz
  'x, y, z'

loop_
  _atom_site_type_symbol
  _atom_site_label
  _atom_site_symmetry_multiplicity
  _atom_site_fract_x
  _atom_site_fract_y
  _atom_site_fract_z
  _atom_site_occupancy
  U   U1        1.0  0.5020174980163573  0.9968028068542483  0.7585511803627014  1.0000
  U   U2        1.0  0.18811070919036854  0.06548462063074133  0.36330789327621454  1.0000
  U   U3        1.0  0.7960059642791748  0.5740342140197754  0.40572842955589294  1.0000
  U   U4        1.0  0.9994120597839355  0.7994063496589661  0.10829707980155946  1.0000
  U   U5        1.0  0.5550178289413452  0.9204677343368529  0.8084707856178285  1.0000
  U   U6        1.0  0.5407683849334717  0.5765677094459533  0.06622271984815596  1.0000
  U   U7        1.0  0.12449244409799576  0.9981424808502197  0.23531249165534973  1.0000
  U   U8        1.0  0.027805753052234296  0.33275014162063676  0.9414430260658263  1.0000
  U   U9        1.0  0.24219879508018494  0.7899669408798218  0.1306959688663483  1.0000
