data_image0
_chemical_formula_structural       IOTe2U5
_chemical_formula_sum              "I1 O1 Te2 U5"
_cell_length_a       4.61824267853071
_cell_length_b       6.321601478926024
_cell_length_c       6.45477294921875
_cell_angle_alpha    122.9315985584174
_cell_angle_beta     91.17278652520234
_cell_angle_gamma    89.24005756428295

_space_group_name_H-M_alt    "P 1"
_space_group_IT_number       1

loop_
  _space_group_symop_operation_xyz
  'x, y, z'

loop_
  _atom_site_type_symbol
  _atom_site_label
  _atom_site_symmetry_multiplicity
  _atom_site_fract_x
  _atom_site_fract_y
  _atom_site_fract_z
  _atom_site_occupancy
  I   I1        1.0  0.10958883166313171  0.8344085812568665  0.8445926308631897  1.0000
  O   O1        1.0  0.6221380233764648  0.1519770473241806  0.7424776554107666  1.0000
  Te  Te1       1.0  0.6247194409370422  0.8703711032867432  0.5566429495811462  1.0000
  Te  Te2       1.0  0.13406209647655487  0.07940589636564255  0.6401148438453674  1.0000
  U   U1        1.0  0.11546400189399719  0.7761543989181519  0.35083684325218195  1.0000
  U   U2        1.0  0.633148729801178  0.1366298496723175  0.4002537131309509  1.0000
  U   U3        1.0  0.13050034642219543  0.09638349711894989  0.22583992779254913  1.0000
  U   U4        1.0  0.1310497224330902  0.10727086663246155  0.6105339527130127  1.0000
  U   U5        1.0  0.6185322403907776  0.31251153349876404  0.3406577706336975  1.0000
