data_image0
_chemical_formula_structural       Te2U7
_chemical_formula_sum              "Te2 U7"
_cell_length_a       5.451035003382275
_cell_length_b       5.676797397941914
_cell_length_c       7.3111958503723145
_cell_angle_alpha    103.05333968029711
_cell_angle_beta     100.17335217369548
_cell_angle_gamma    111.75824435574356

_space_group_name_H-M_alt    "P 1"
_space_group_IT_number       1

loop_
  _space_group_symop_operation_xyz
  'x, y, z'

loop_
  _atom_site_type_symbol
  _atom_site_label
  _atom_site_symmetry_multiplicity
  _atom_site_fract_x
  _atom_site_fract_y
  _atom_site_fract_z
  _atom_site_occupancy
  Te  Te1       1.0  0.11167704313993454  0.7417808175086975  0.403126060962677  1.0000
  Te  Te2       1.0  0.59517103433609  0.93316912651062  0.8455517292022705  1.0000
  U   U1        1.0  0.10367519408464432  0.037457969039678574  0.05976596102118492  1.0000
  U   U2        1.0  0.5982414484024048  0.25736096501350403  0.901977002620697  1.0000
  U   U3        1.0  0.09892423450946808  0.43453818559646606  0.35586419701576233  1.0000
  U   U4        1.0  0.5969962477684021  0.8343444466590881  0.09630949050188065  1.0000
  U   U5        1.0  0.09933684021234512  0.8098934888839722  0.8804037570953369  1.0000
  U   U6        1.0  0.6092119216918945  0.4811373651027679  0.49943551421165466  1.0000
  U   U7        1.0  0.8496640920639038  0.18978527188301086  0.6606987714767456  1.0000
