data_image0
_chemical_formula_structural       F3NaNiO6S4
_chemical_formula_sum              "F3 Na1 Ni1 O6 S4"
_cell_length_a       6.032398459138174
_cell_length_b       6.976649491121898
_cell_length_c       7.510303497314453
_cell_angle_alpha    116.94239604648641
_cell_angle_beta     106.91430147645042
_cell_angle_gamma    89.37174740956854

_space_group_name_H-M_alt    "P 1"
_space_group_IT_number       1

loop_
  _space_group_symop_operation_xyz
  'x, y, z'

loop_
  _atom_site_type_symbol
  _atom_site_label
  _atom_site_symmetry_multiplicity
  _atom_site_fract_x
  _atom_site_fract_y
  _atom_site_fract_z
  _atom_site_occupancy
  F   F1        1.0  0.636614203453064  0.8887071609497069  0.35744556784629816  1.0000
  F   F2        1.0  0.6361582279205322  0.9092971086502074  0.8597352504730225  1.0000
  F   F3        1.0  0.19305960834026337  0.1586206555366516  0.3462487459182739  1.0000
  Na  Na1       1.0  0.2930058240890503  0.5620790123939514  0.5078983902931213  1.0000
  Ni  Ni1       1.0  0.7802056074142456  0.5415167212486267  0.06466044485569  1.0000
  O   O1        1.0  0.9783692955970764  0.2683020234107971  0.5918481349945068  1.0000
  O   O2        1.0  0.11449714750051497  0.8663781881332396  0.3394791185855865  1.0000
  O   O3        1.0  0.6833289861679077  0.09447477757930756  0.5787738561630249  1.0000
  O   O4        1.0  0.7690844535827637  0.6721438765525818  0.8513065576553345  1.0000
  O   O5        1.0  0.5534890294075012  0.29615211486816406  0.10988409072160721  1.0000
  O   O6        1.0  0.5924476981163025  0.34723785519599915  0.3496232330799103  1.0000
  S   S1        1.0  0.038693398237228394  0.3480949401855469  0.3984180986881256  1.0000
  S   S2        1.0  0.9083265662193298  0.25207290053367615  0.24197526276111603  1.0000
  S   S3        1.0  0.5217522978782654  0.8913297653198241  0.7091850638389587  1.0000
  S   S4        1.0  0.3512323498725891  0.5708571076393127  0.8466586470603943  1.0000
