data_image0
_chemical_formula_structural       F2Na4O7STm
_chemical_formula_sum              "F2 Na4 O7 S1 Tm1"
_cell_length_a       5.910047953180115
_cell_length_b       6.074316735018747
_cell_length_c       6.607916355133057
_cell_angle_alpha    68.30378658005476
_cell_angle_beta     65.32756471467424
_cell_angle_gamma    64.65453219759186

_space_group_name_H-M_alt    "P 1"
_space_group_IT_number       1

loop_
  _space_group_symop_operation_xyz
  'x, y, z'

loop_
  _atom_site_type_symbol
  _atom_site_label
  _atom_site_symmetry_multiplicity
  _atom_site_fract_x
  _atom_site_fract_y
  _atom_site_fract_z
  _atom_site_occupancy
  F   F1        1.0  0.5252445936203003  0.7916100025177002  0.5738515853881835  1.0000
  F   F2        1.0  0.05368611961603165  0.8320130705833435  0.24419283866882321  1.0000
  Na  Na1       1.0  0.2483152598142624  0.4812060296535492  0.20368613302707667  1.0000
  Na  Na2       1.0  0.2699289619922638  0.9773133993148804  0.8484777212142944  1.0000
  Na  Na3       1.0  0.7534064054489136  0.4600505828857422  0.9475677013397217  1.0000
  Na  Na4       1.0  0.8118693828582764  0.9767521619796753  0.05018790811300278  1.0000
  O   O1        1.0  0.4641880393028259  0.6517152190208435  0.11359956115484238  1.0000
  O   O2        1.0  0.8363490104675293  0.9528728723526001  0.05700381100177765  1.0000
  O   O3        1.0  0.9544610977172852  0.6448664665222168  0.3659840226173401  1.0000
  O   O4        1.0  0.3009878098964691  0.9876188039779663  0.5556384325027466  1.0000
  O   O5        1.0  0.2617497146129608  0.9592514038085938  0.7444732189178467  1.0000
  O   O6        1.0  0.894406795501709  0.573586642742157  0.26339644193649286  1.0000
  O   O7        1.0  0.901535153388977  0.2990136444568634  0.10594480484724045  1.0000
  S   S1        1.0  0.10014721751213074  0.8306114077568054  0.8563425540924072  1.0000
  Tm  Tm1       1.0  0.7752527594566345  0.48898422718048096  0.5796402096748352  1.0000
