data_image0
_chemical_formula_structural       F4GdNaO5S3Tm
_chemical_formula_sum              "F4 Gd1 Na1 O5 S3 Tm1"
_cell_length_a       6.127271431276756
_cell_length_b       6.557977940861214
_cell_length_c       6.625913143157959
_cell_angle_alpha    71.65524054314575
_cell_angle_beta     65.39157250204738
_cell_angle_gamma    62.960867485943716

_space_group_name_H-M_alt    "P 1"
_space_group_IT_number       1

loop_
  _space_group_symop_operation_xyz
  'x, y, z'

loop_
  _atom_site_type_symbol
  _atom_site_label
  _atom_site_symmetry_multiplicity
  _atom_site_fract_x
  _atom_site_fract_y
  _atom_site_fract_z
  _atom_site_occupancy
  F   F1        1.0  0.6325200796127319  0.3839614689350128  0.8881252408027649  1.0000
  F   F2        1.0  0.7300231456756592  0.20969101786613464  0.2688543200492859  1.0000
  F   F3        1.0  0.01016007736325264  0.6443439722061157  0.9081277251243591  1.0000
  F   F4        1.0  0.9846403002738953  0.9011600613594056  0.42841601371765137  1.0000
  Gd  Gd1       1.0  0.36876451969146723  0.9139682650566102  0.968127429485321  1.0000
  Na  Na1       1.0  0.5165674686431885  0.7590749859809875  0.41157281398773193  1.0000
  O   O1        1.0  0.3298170268535614  0.5783424973487854  0.19161456823349  1.0000
  O   O2        1.0  0.6956433653831482  0.8684797883033752  0.030541282147169113  1.0000
  O   O3        1.0  0.06663550436496735  0.6502602100372314  0.6349872946739197  1.0000
  O   O4        1.0  0.7567705512046814  0.10291608422994614  0.21398840844631195  1.0000
  O   O5        1.0  0.2762289345264435  0.1532999724149704  0.7069382667541504  1.0000
  S   S1        1.0  0.5751067996025085  0.1631012111902237  0.6107795834541321  1.0000
  S   S2        1.0  0.5611031651496887  0.35248973965644836  0.6764228940010071  1.0000
  S   S3        1.0  0.0626235082745552  0.406860888004303  0.07883559912443161  1.0000
  Tm  Tm1       1.0  0.874762237071991  0.40360039472579956  0.2286420315504074  1.0000
