data_image0
_chemical_formula_structural       BF4Na3O6S
_chemical_formula_sum              "B1 F4 Na3 O6 S1"
_cell_length_a       6.25982711751412
_cell_length_b       6.462684044061746
_cell_length_c       6.513499736785889
_cell_angle_alpha    68.67547895307055
_cell_angle_beta     66.45018855979299
_cell_angle_gamma    65.91306307309134

_space_group_name_H-M_alt    "P 1"
_space_group_IT_number       1

loop_
  _space_group_symop_operation_xyz
  'x, y, z'

loop_
  _atom_site_type_symbol
  _atom_site_label
  _atom_site_symmetry_multiplicity
  _atom_site_fract_x
  _atom_site_fract_y
  _atom_site_fract_z
  _atom_site_occupancy
  B   B1        1.0  0.008115658536553383  0.012125204317271708  0.24593286216259003  1.0000
  F   F1        1.0  0.9582989811897278  0.9213384985923766  0.49607932567596436  1.0000
  F   F2        1.0  0.7734059691429138  0.32096755504608154  0.9881156086921692  1.0000
  F   F3        1.0  0.46656155586242676  0.4216985404491424  0.9951465725898743  1.0000
  F   F4        1.0  0.38701364398002625  0.7034264206886292  0.0872552543878556  1.0000
  Na  Na1       1.0  0.3869791626930237  0.646230161190033  0.6024236083030701  1.0000
  Na  Na2       1.0  0.07416432350873947  0.07684196531772614  0.1807081699371338  1.0000
  Na  Na3       1.0  0.9976494312286377  0.5159260034561157  0.82313072681427  1.0000
  O   O1        1.0  0.09086129814386368  0.6569547653198242  0.3040705621242523  1.0000
  O   O2        1.0  0.6509670615196228  0.4731354117393493  0.6343257427215576  1.0000
  O   O3        1.0  0.5095198750495911  0.13737784326076508  0.8989169597625732  1.0000
  O   O4        1.0  0.03409696370363236  0.22393272817134854  0.29403093457221985  1.0000
  O   O5        1.0  0.5056235194206238  0.11822560429573058  0.19349034130573275  1.0000
  O   O6        1.0  0.48673215508461  0.8047605752944945  0.7272157073020935  1.0000
  S   S1        1.0  0.6641372442245483  0.6419157981872559  0.21327938139438635  1.0000
