data_image0
_chemical_formula_structural       F4In2Na3O4RhS
_chemical_formula_sum              "F4 In2 Na3 O4 Rh1 S1"
_cell_length_a       4.866232216906684
_cell_length_b       7.0923840094458726
_cell_length_c       7.085945129394531
_cell_angle_alpha    119.24543407025679
_cell_angle_beta     95.11713712733383
_cell_angle_gamma    89.33488437524517

_space_group_name_H-M_alt    "P 1"
_space_group_IT_number       1

loop_
  _space_group_symop_operation_xyz
  'x, y, z'

loop_
  _atom_site_type_symbol
  _atom_site_label
  _atom_site_symmetry_multiplicity
  _atom_site_fract_x
  _atom_site_fract_y
  _atom_site_fract_z
  _atom_site_occupancy
  F   F1        1.0  0.037492960691452026  0.6662598252296448  0.8868121504783629  1.0000
  F   F2        1.0  0.030656589195132256  0.02472163736820221  0.9875738024711608  1.0000
  F   F3        1.0  0.5367704629898071  0.9072155952453613  0.2627421617507935  1.0000
  F   F4        1.0  0.04186956584453583  0.656517744064331  0.16433478891849523  1.0000
  In  In1       1.0  0.04160350188612938  0.6825825572013855  0.06670823693275457  1.0000
  In  In2       1.0  0.5411345362663269  0.33542534708976746  0.4657051265239715  1.0000
  Na  Na1       1.0  0.05439498648047447  0.3332974910736084  0.5529655814170837  1.0000
  Na  Na2       1.0  0.5424706935882568  0.5980390906333923  0.34611442685127264  1.0000
  Na  Na3       1.0  0.8116393089294434  0.36168739199638367  0.03927496075630188  1.0000
  O   O1        1.0  0.34030452370643616  0.12309685349464417  0.5581716895103455  1.0000
  O   O2        1.0  0.8988047242164612  0.03257128596305847  0.6888061761856079  1.0000
  O   O3        1.0  0.823055624961853  0.3861508369445801  0.9692096710205077  1.0000
  O   O4        1.0  0.8557151556015015  0.17850710451602936  0.7395634055137633  1.0000
  Rh  Rh1       1.0  0.523283839225769  0.033477533608675  0.7000364065170288  1.0000
  S   S1        1.0  0.3360842764377594  0.1883947253227234  0.9170910120010375  1.0000
