data_image0
_chemical_formula_structural       F4InNa3O5RhS
_chemical_formula_sum              "F4 In1 Na3 O5 Rh1 S1"
_cell_length_a       5.713551605851658
_cell_length_b       6.133598956033903
_cell_length_c       5.979094982147217
_cell_angle_alpha    108.41646473352947
_cell_angle_beta     107.72260614156227
_cell_angle_gamma    109.49254463768054

_space_group_name_H-M_alt    "P 1"
_space_group_IT_number       1

loop_
  _space_group_symop_operation_xyz
  'x, y, z'

loop_
  _atom_site_type_symbol
  _atom_site_label
  _atom_site_symmetry_multiplicity
  _atom_site_fract_x
  _atom_site_fract_y
  _atom_site_fract_z
  _atom_site_occupancy
  F   F1        1.0  0.34464767575263977  0.7654869556427002  0.6702589988708496  1.0000
  F   F2        1.0  0.8288843035697937  0.4423253536224365  0.1067800521850586  1.0000
  F   F3        1.0  0.8251656293869019  0.6595941185951233  0.7357390522956848  1.0000
  F   F4        1.0  0.2947770059108734  0.735325276851654  0.9980431795120239  1.0000
  In  In1       1.0  0.8366124629974365  0.7658674120903015  0.8800313472747803  1.0000
  Na  Na1       1.0  0.42518672347068787  0.08311562985181808  0.9877060055732727  1.0000
  Na  Na2       1.0  0.8259342312812805  0.41326117515563965  0.25347644090652466  1.0000
  Na  Na3       1.0  0.06431180983781815  0.10947912186384201  0.5074739456176758  1.0000
  O   O1        1.0  0.17758890986442566  0.4069325029850006  0.5018249154090881  1.0000
  O   O2        1.0  0.8292425870895386  0.08107136189937592  0.9950076937675476  1.0000
  O   O3        1.0  0.4400738477706909  0.3973170518875122  0.30876195430755615  1.0000
  O   O4        1.0  0.0992286279797554  0.24515484273433685  0.16445572674274445  1.0000
  O   O5        1.0  0.349875807762146  0.9692273139953613  0.000466244237031783  1.0000
  Rh  Rh1       1.0  0.7865385413169861  0.210471972823143  0.49774792790412903  1.0000
  S   S1        1.0  0.34011968970298767  0.14615781605243683  0.24069522321224213  1.0000
