data_image0
_chemical_formula_structural       Mg5V2
_chemical_formula_sum              "Mg5 V2"
_cell_length_a       3.9522271683841472
_cell_length_b       4.401044464238746
_cell_length_c       9.186725616455078
_cell_angle_alpha    91.4407974812036
_cell_angle_beta     91.0895638223535
_cell_angle_gamma    90.85212185307573

_space_group_name_H-M_alt    "P 1"
_space_group_IT_number       1

loop_
  _space_group_symop_operation_xyz
  'x, y, z'

loop_
  _atom_site_type_symbol
  _atom_site_label
  _atom_site_symmetry_multiplicity
  _atom_site_fract_x
  _atom_site_fract_y
  _atom_site_fract_z
  _atom_site_occupancy
  Mg  Mg1       1.0  0.2624843716621399  0.7188687920570374  0.2801875174045563  1.0000
  Mg  Mg2       1.0  0.7826732993125916  0.00018870830535888672  0.9066327214241028  1.0000
  Mg  Mg3       1.0  0.781987190246582  0.9720624089241028  0.3276718854904175  1.0000
  Mg  Mg4       1.0  0.27316343784332275  0.009473019279539585  0.27215775847435  1.0000
  Mg  Mg5       1.0  0.7762228846549988  0.7970418334007263  0.12123236805200577  1.0000
  V   V1        1.0  0.7715094685554504  0.6808505654335022  0.857280433177948  1.0000
  V   V2        1.0  0.7834514379501343  0.595221757888794  0.35191333293914795  1.0000
