data_image0
_chemical_formula_structural       Ba4Cd3DySSb5
_chemical_formula_sum              "Ba4 Cd3 Dy1 S1 Sb5"
_cell_length_a       6.817467728033186
_cell_length_b       8.748729639864699
_cell_length_c       12.10590648651123
_cell_angle_alpha    89.34334567536165
_cell_angle_beta     89.33703919895817
_cell_angle_gamma    108.62716869290993

_space_group_name_H-M_alt    "P 1"
_space_group_IT_number       1

loop_
  _space_group_symop_operation_xyz
  'x, y, z'

loop_
  _atom_site_type_symbol
  _atom_site_label
  _atom_site_symmetry_multiplicity
  _atom_site_fract_x
  _atom_site_fract_y
  _atom_site_fract_z
  _atom_site_occupancy
  Ba  Ba1       1.0  0.512912392616272  0.7379133701324463  0.12810686230659485  1.0000
  Ba  Ba2       1.0  0.644906222820282  0.08704017102718353  0.3960689306259155  1.0000
  Ba  Ba3       1.0  0.04196187108755112  0.8984801173210144  0.8753740787506102  1.0000
  Ba  Ba4       1.0  0.567128598690033  0.2603757679462433  0.009519986808300018  1.0000
  Cd  Cd1       1.0  0.29336729645729065  0.9928556084632874  0.8919660449028014  1.0000
  Cd  Cd2       1.0  0.2985159456729889  0.24961784482002258  0.4664634466171264  1.0000
  Cd  Cd3       1.0  0.21185868978500366  0.00046400618157349527  0.2092674225568771  1.0000
  Dy  Dy1       1.0  0.19214744865894318  0.32866933941841125  0.8693918585777282  1.0000
  S   S1        1.0  0.43975427746772766  0.8118883967399597  0.6933915019035339  1.0000
  Sb  Sb1       1.0  0.7603409886360168  0.5617474913597107  0.4389109015464782  1.0000
  Sb  Sb2       1.0  0.5221896171569824  0.7472072839736938  0.04274369403719902  1.0000
  Sb  Sb3       1.0  0.7447999715805054  0.5522249341011047  0.6045990586280823  1.0000
  Sb  Sb4       1.0  0.7297623753547668  0.5884453058242798  0.985391855239868  1.0000
  Sb  Sb5       1.0  0.8324708342552185  0.24638216197490692  0.5387733578681946  1.0000
