data_image0
_chemical_formula_structural       Ba3CdPSb8Si
_chemical_formula_sum              "Ba3 Cd1 P1 Sb8 Si1"
_cell_length_a       6.700181082104227
_cell_length_b       7.961018575246973
_cell_length_c       12.043895721435547
_cell_angle_alpha    89.19824251728276
_cell_angle_beta     89.77209832943032
_cell_angle_gamma    110.91255095110911

_space_group_name_H-M_alt    "P 1"
_space_group_IT_number       1

loop_
  _space_group_symop_operation_xyz
  'x, y, z'

loop_
  _atom_site_type_symbol
  _atom_site_label
  _atom_site_symmetry_multiplicity
  _atom_site_fract_x
  _atom_site_fract_y
  _atom_site_fract_z
  _atom_site_occupancy
  Ba  Ba1       1.0  0.31999701261520386  0.11968439072370529  0.6323226690292358  1.0000
  Ba  Ba2       1.0  0.2729296386241913  0.42914000153541565  0.4677457809448242  1.0000
  Ba  Ba3       1.0  0.5922104120254517  0.03321363404393196  0.4734364449977875  1.0000
  Cd  Cd1       1.0  0.5414237380027771  0.41610971093177795  0.4389618933200836  1.0000
  P   P1        1.0  0.09019093215465546  0.1893654465675354  0.13670802116394043  1.0000
  Sb  Sb1       1.0  0.7562965750694275  0.9220798015594482  0.911799967288971  1.0000
  Sb  Sb2       1.0  0.23040029406547546  0.40524864196777344  0.9283626675605774  1.0000
  Sb  Sb3       1.0  0.7708947658538818  0.416304349899292  0.9724259376525879  1.0000
  Sb  Sb4       1.0  0.32145074009895325  0.6203998923301697  0.6377404928207397  1.0000
  Sb  Sb5       1.0  0.21035565435886383  0.9132124781608582  0.43849602341651917  1.0000
  Sb  Sb6       1.0  0.21945340931415558  0.9170659780502319  0.9415464997291565  1.0000
  Sb  Sb7       1.0  0.7503166198730469  0.9230738878250122  0.4315392076969147  1.0000
  Sb  Sb8       1.0  0.8906380534172058  0.7336529493331909  0.4321829080581665  1.0000
  Si  Si1       1.0  0.06525638699531555  0.6176499128341675  0.38879129290580755  1.0000
