data_image0
_chemical_formula_structural       Cd10FPdSbTe
_chemical_formula_sum              "Cd10 F1 Pd1 Sb1 Te1"
_cell_length_a       6.820039785662325
_cell_length_b       8.47452644919399
_cell_length_c       11.659144401550293
_cell_angle_alpha    88.97280937183015
_cell_angle_beta     86.49654144961644
_cell_angle_gamma    109.99909488345256

_space_group_name_H-M_alt    "P 1"
_space_group_IT_number       1

loop_
  _space_group_symop_operation_xyz
  'x, y, z'

loop_
  _atom_site_type_symbol
  _atom_site_label
  _atom_site_symmetry_multiplicity
  _atom_site_fract_x
  _atom_site_fract_y
  _atom_site_fract_z
  _atom_site_occupancy
  Cd  Cd1       1.0  0.7415806651115417  0.525791347026825  0.5563589930534363  1.0000
  Cd  Cd2       1.0  0.23111654818058014  0.6256006956100464  0.8105592727661133  1.0000
  Cd  Cd3       1.0  0.8765137791633606  0.8744499087333678  0.1531347930431366  1.0000
  Cd  Cd4       1.0  0.010970908217132092  0.7493684887886047  0.3377468883991241  1.0000
  Cd  Cd5       1.0  0.7335230112075806  0.5748745799064636  0.8536068797111511  1.0000
  Cd  Cd6       1.0  0.5117399096488953  0.7195159196853638  0.06778301298618317  1.0000
  Cd  Cd7       1.0  0.8714771866798401  0.8746202588081359  0.7458464503288269  1.0000
  Cd  Cd8       1.0  0.7442700266838074  0.0394693985581398  0.5716605186462402  1.0000
  Cd  Cd9       1.0  0.5126661658287048  0.24847415089607236  0.33956038951873785  1.0000
  Cd  Cd10      1.0  0.38193008303642273  0.5242283940315247  0.06795333325862885  1.0000
  F   F1        1.0  0.388868123292923  0.02318382076919079  0.07220619916915894  1.0000
  Pd  Pd1       1.0  0.13843412697315216  0.03774352744221687  0.7488283514976501  1.0000
  Sb  Sb1       1.0  0.47531580924987793  0.08198455721139908  0.7769226431846619  1.0000
  Te  Te1       1.0  0.523522138595581  0.2189659774303436  0.31983813643455505  1.0000
