data_image0
_chemical_formula_structural       BaCd3ClLa2Sb7
_chemical_formula_sum              "Ba1 Cd3 Cl1 La2 Sb7"
_cell_length_a       6.278822900250684
_cell_length_b       9.100337293000514
_cell_length_c       12.482467651367188
_cell_angle_alpha    89.44043306969851
_cell_angle_beta     89.03695743486577
_cell_angle_gamma    107.28458708109045

_space_group_name_H-M_alt    "P 1"
_space_group_IT_number       1

loop_
  _space_group_symop_operation_xyz
  'x, y, z'

loop_
  _atom_site_type_symbol
  _atom_site_label
  _atom_site_symmetry_multiplicity
  _atom_site_fract_x
  _atom_site_fract_y
  _atom_site_fract_z
  _atom_site_occupancy
  Ba  Ba1       1.0  0.40687546133995056  0.8111630082130432  0.6907602548599243  1.0000
  Cd  Cd1       1.0  0.04259193316102028  0.06735225766897202  0.5679389238357544  1.0000
  Cd  Cd2       1.0  0.5490737557411194  0.5352133512496948  0.06368819624185562  1.0000
  Cd  Cd3       1.0  0.7693387269973755  0.07311540842056274  0.32371532917022705  1.0000
  Cl  Cl1       1.0  0.7446689009666443  0.5400338172912598  0.9548332095146179  1.0000
  La  La1       1.0  0.5078907608985901  0.5341756939888  0.1756405234336853  1.0000
  La  La2       1.0  0.5695242881774902  0.5203437805175781  0.33002498745918274  1.0000
  Sb  Sb1       1.0  0.7206199765205383  0.31864768266677856  0.06519785523414612  1.0000
  Sb  Sb2       1.0  0.38986843824386597  0.290298730134964  0.09805825352668762  1.0000
  Sb  Sb3       1.0  0.46152669191360474  0.5710189938545227  0.8004603385925293  1.0000
  Sb  Sb4       1.0  0.5062260031700134  0.06475137174129486  0.19235171377658844  1.0000
  Sb  Sb5       1.0  0.7749826908111572  0.062210094183683395  0.8305138945579529  1.0000
  Sb  Sb6       1.0  0.7288834452629089  0.8185181021690369  0.20542609691619873  1.0000
  Sb  Sb7       1.0  0.7207208871841431  0.8260669112205505  0.10096220672130585  1.0000
