data_image0
_chemical_formula_structural       Cd9La3PdTe
_chemical_formula_sum              "Cd9 La3 Pd1 Te1"
_cell_length_a       7.376909729222772
_cell_length_b       8.691999868991351
_cell_length_c       11.48561954498291
_cell_angle_alpha    88.44157377480322
_cell_angle_beta     87.80831854594126
_cell_angle_gamma    109.95400269489599

_space_group_name_H-M_alt    "P 1"
_space_group_IT_number       1

loop_
  _space_group_symop_operation_xyz
  'x, y, z'

loop_
  _atom_site_type_symbol
  _atom_site_label
  _atom_site_symmetry_multiplicity
  _atom_site_fract_x
  _atom_site_fract_y
  _atom_site_fract_z
  _atom_site_occupancy
  Cd  Cd1       1.0  0.9966418743133544  0.9200373888015747  0.8605569601058959  1.0000
  Cd  Cd2       1.0  0.7412961125373839  0.6823563575744629  0.5725745558738708  1.0000
  Cd  Cd3       1.0  0.21093079447746274  0.4255334138870239  0.2855573892593384  1.0000
  Cd  Cd4       1.0  0.21411545574665067  0.4202754497528076  0.3733089864253998  1.0000
  Cd  Cd5       1.0  0.6986490488052367  0.9267356991767883  0.12502965331077576  1.0000
  Cd  Cd6       1.0  0.8307452797889708  0.253639280796051  0.7835295796394348  1.0000
  Cd  Cd7       1.0  0.2158941030502319  0.4331803619861603  0.3007611930370331  1.0000
  Cd  Cd8       1.0  0.21470168232917783  0.9223108887672424  0.21156124770641327  1.0000
  Cd  Cd9       1.0  0.016245204955339432  0.6933593153953552  0.47456651926040644  1.0000
  La  La1       1.0  0.5364538431167603  0.7435755729675293  0.4701715409755706  1.0000
  La  La2       1.0  0.7536062002182006  0.2068975418806076  0.9811168313026427  1.0000
  La  La3       1.0  0.005889534950256347  0.204461470246315  0.9565333127975463  1.0000
  Pd  Pd1       1.0  0.15180443227291104  0.6955623030662537  0.1443101167678833  1.0000
  Te  Te1       1.0  0.5556946992874146  0.43513715267181396  0.686356246471405  1.0000
