data_image0
_chemical_formula_structural       AgBa2Cd2FLaSb7
_chemical_formula_sum              "Ag1 Ba2 Cd2 F1 La1 Sb7"
_cell_length_a       6.469230748894721
_cell_length_b       8.908400662664027
_cell_length_c       9.876399993896484
_cell_angle_alpha    77.63914370494318
_cell_angle_beta     71.73316067983193
_cell_angle_gamma    70.09820718324781

_space_group_name_H-M_alt    "P 1"
_space_group_IT_number       1

loop_
  _space_group_symop_operation_xyz
  'x, y, z'

loop_
  _atom_site_type_symbol
  _atom_site_label
  _atom_site_symmetry_multiplicity
  _atom_site_fract_x
  _atom_site_fract_y
  _atom_site_fract_z
  _atom_site_occupancy
  Ag  Ag1       1.0  0.2167932540178299  0.581699550151825  0.004671064671128988  1.0000
  Ba  Ba1       1.0  0.776962399482727  0.4470260739326477  0.6611106395721436  1.0000
  Ba  Ba2       1.0  0.7525328993797302  0.5722700357437134  0.7886895537376404  1.0000
  Cd  Cd1       1.0  0.6997044682502747  0.9789546132087708  0.8582322001457214  1.0000
  Cd  Cd2       1.0  0.2130771428346634  0.5839690566062927  0.5089392066001892  1.0000
  F   F1        1.0  0.6960413455963135  0.737495481967926  0.8849573731422424  1.0000
  La  La1       1.0  0.24316266179084778  0.9320805072784424  0.07104960083961487  1.0000
  Sb  Sb1       1.0  0.3688563406467438  0.7144074440002441  0.5509186387062073  1.0000
  Sb  Sb2       1.0  0.23458978533744812  0.5828086733818054  0.7487589120864868  1.0000
  Sb  Sb3       1.0  0.19763797521591187  0.32716843485832214  0.9562745094299316  1.0000
  Sb  Sb4       1.0  0.8590647578239441  0.22214733064174652  0.08203472197055817  1.0000
  Sb  Sb5       1.0  0.23751793801784515  0.07689524441957474  0.19533823430538177  1.0000
  Sb  Sb6       1.0  0.8743911981582642  0.7142423391342163  0.5097032785415649  1.0000
  Sb  Sb7       1.0  0.4844152629375458  0.44439321756362915  0.18325360119342804  1.0000
