data_image0
_chemical_formula_structural       CeDyGeI3Sb3Tb2
_chemical_formula_sum              "Ce1 Dy1 Ge1 I3 Sb3 Tb2"
_cell_length_a       6.26710541866231
_cell_length_b       7.35716939150484
_cell_length_c       7.791139125823975
_cell_angle_alpha    103.97494879957655
_cell_angle_beta     107.50368457264545
_cell_angle_gamma    92.77571358699393

_space_group_name_H-M_alt    "P 1"
_space_group_IT_number       1

loop_
  _space_group_symop_operation_xyz
  'x, y, z'

loop_
  _atom_site_type_symbol
  _atom_site_label
  _atom_site_symmetry_multiplicity
  _atom_site_fract_x
  _atom_site_fract_y
  _atom_site_fract_z
  _atom_site_occupancy
  Ce  Ce1       1.0  0.5804510712623596  0.8258301019668578  0.9337130188941957  1.0000
  Dy  Dy1       1.0  0.07295426726341248  0.1371563971042633  0.6550098657608033  1.0000
  Ge  Ge1       1.0  0.5783459544181824  0.3189043998718261  0.8801065087318422  1.0000
  I   I1        1.0  0.07793017476797104  0.1944947242736816  0.19979615509510043  1.0000
  I   I2        1.0  0.5778268575668335  0.5822526812553406  0.09583142399787904  1.0000
  I   I3        1.0  0.07651478797197339  0.8888602852821349  0.7091322541236879  1.0000
  Sb  Sb1       1.0  0.5694334506988525  0.25608450174331665  0.0966639071702957  1.0000
  Sb  Sb2       1.0  0.5822865962982178  0.8150805234909057  0.21403408050537112  1.0000
  Sb  Sb3       1.0  0.5817604064941406  0.8033838272094725  0.7631591558456422  1.0000
  Tb  Tb1       1.0  0.5832096338272095  0.32027715444564814  0.5791684985160829  1.0000
  Tb  Tb2       1.0  0.07731757313013074  0.8091972470283507  0.6458240151405336  1.0000
