data_image0
_chemical_formula_structural       DyI2Sb3Tb3U2
_chemical_formula_sum              "Dy1 I2 Sb3 Tb3 U2"
_cell_length_a       6.231061123661502
_cell_length_b       8.317476553424472
_cell_length_c       8.950057983398438
_cell_angle_alpha    122.69902138304089
_cell_angle_beta     89.95929560943651
_cell_angle_gamma    90.02799616139339

_space_group_name_H-M_alt    "P 1"
_space_group_IT_number       1

loop_
  _space_group_symop_operation_xyz
  'x, y, z'

loop_
  _atom_site_type_symbol
  _atom_site_label
  _atom_site_symmetry_multiplicity
  _atom_site_fract_x
  _atom_site_fract_y
  _atom_site_fract_z
  _atom_site_occupancy
  Dy  Dy1       1.0  0.22501280903816223  0.49997779726982117  0.5943858623504639  1.0000
  I   I1        1.0  0.23531217873096466  0.4687148332595825  0.8343670964241028  1.0000
  I   I2        1.0  0.22474165260791779  0.2613082230091095  0.5442973971366882  1.0000
  Sb  Sb1       1.0  0.7310190796852112  0.34165292978286743  0.43260216712951666  1.0000
  Sb  Sb2       1.0  0.7297001481056213  0.6497167348861694  0.34182026982307434  1.0000
  Sb  Sb3       1.0  0.22863852977752686  0.6900829672813416  0.4865244925022125  1.0000
  Tb  Tb1       1.0  0.7401830554008484  0.8791034817695618  0.8172885775566101  1.0000
  Tb  Tb2       1.0  0.23113267123699188  0.6696910262107849  0.33861678838729853  1.0000
  Tb  Tb3       1.0  0.7269375920295715  0.7800015211105347  0.037918411195278216  1.0000
  U   U1        1.0  0.7426925897598267  0.8688245415687561  0.4802933633327484  1.0000
  U   U2        1.0  0.2354031652212143  0.6703333854675293  0.7080166339874268  1.0000
