data_image0
_chemical_formula_structural       Fe5SSb5
_chemical_formula_sum              "Fe5 S1 Sb5"
_cell_length_a       4.791603462633941
_cell_length_b       7.699372604130125
_cell_length_c       7.48551082611084
_cell_angle_alpha    118.52131565792938
_cell_angle_beta     88.92161855614445
_cell_angle_gamma    91.34843559442263

_space_group_name_H-M_alt    "P 1"
_space_group_IT_number       1

loop_
  _space_group_symop_operation_xyz
  'x, y, z'

loop_
  _atom_site_type_symbol
  _atom_site_label
  _atom_site_symmetry_multiplicity
  _atom_site_fract_x
  _atom_site_fract_y
  _atom_site_fract_z
  _atom_site_occupancy
  Fe  Fe1       1.0  0.4628381729125976  0.036926545202732086  0.2557559609413147  1.0000
  Fe  Fe2       1.0  0.46533736586570734  0.1410222053527832  0.4939023852348328  1.0000
  Fe  Fe3       1.0  0.9656035304069518  0.09493153542280199  0.9771233797073365  1.0000
  Fe  Fe4       1.0  0.4656808674335479  0.8286679983139039  0.24449597299098969  1.0000
  Fe  Fe5       1.0  0.9645785689353942  0.5310561656951904  0.03288522362709048  1.0000
  S   S1        1.0  0.4657354652881622  0.03146142140030861  0.8466986417770386  1.0000
  Sb  Sb1       1.0  0.9657374620437621  0.2962973415851593  0.2601514458656311  1.0000
  Sb  Sb2       1.0  0.9650160670280455  0.9887575507164003  0.10081345587968832  1.0000
  Sb  Sb3       1.0  0.9654438495635985  0.9915112257003785  0.598678708076477  1.0000
  Sb  Sb4       1.0  0.4633194506168366  0.4417003691196442  0.4812142848968506  1.0000
  Sb  Sb5       1.0  0.9655190706253051  0.021749796345829967  0.48847323656082153  1.0000
