data_image0
_chemical_formula_structural       Ce2Fe5HgSb3
_chemical_formula_sum              "Ce2 Fe5 Hg1 Sb3"
_cell_length_a       3.6773067141580382
_cell_length_b       3.1205898272617056
_cell_length_c       7.790066719055176
_cell_angle_alpha    135.2371550882259
_cell_angle_beta     86.02447555380563
_cell_angle_gamma    78.71126773626973

_space_group_name_H-M_alt    "P 1"
_space_group_IT_number       1

loop_
  _space_group_symop_operation_xyz
  'x, y, z'

loop_
  _atom_site_type_symbol
  _atom_site_label
  _atom_site_symmetry_multiplicity
  _atom_site_fract_x
  _atom_site_fract_y
  _atom_site_fract_z
  _atom_site_occupancy
  Ce  Ce1       1.0  0.6327927708625793  0.9126442670822147  0.5336098074913026  1.0000
  Ce  Ce2       1.0  0.6127946972846985  0.5230242013931274  0.1462555527687073  1.0000
  Fe  Fe1       1.0  0.11918564885854722  0.14158117771148676  0.5127595067024231  1.0000
  Fe  Fe2       1.0  0.37879383563995356  0.9856933355331424  0.7854800820350648  1.0000
  Fe  Fe3       1.0  0.6096200942993163  0.20312166213989316  0.98998498916626  1.0000
  Fe  Fe4       1.0  0.12269897758960718  0.9952670335769657  0.8961030244827272  1.0000
  Fe  Fe5       1.0  0.6160355210304259  0.34735983610153254  0.879029929637909  1.0000
  Hg  Hg1       1.0  0.21345125138759607  0.41727322340011624  0.9253773093223573  1.0000
  Sb  Sb1       1.0  0.6316177248954773  0.5681793093681335  0.5021610260009766  1.0000
  Sb  Sb2       1.0  0.1352125406265258  0.45743066072464034  0.7789636254310609  1.0000
  Sb  Sb3       1.0  0.9017166495323181  0.66729211807251  0.66961407661438  1.0000
