data_image0
_chemical_formula_structural       DyGeI2Sb4Tb2Zn
_chemical_formula_sum              "Dy1 Ge1 I2 Sb4 Tb2 Zn1"
_cell_length_a       6.660048623790332
_cell_length_b       6.626157953149204
_cell_length_c       8.411182403564453
_cell_angle_alpha    112.08694800790494
_cell_angle_beta     106.69158134803193
_cell_angle_gamma    112.87775318111126

_space_group_name_H-M_alt    "P 1"
_space_group_IT_number       1

loop_
  _space_group_symop_operation_xyz
  'x, y, z'

loop_
  _atom_site_type_symbol
  _atom_site_label
  _atom_site_symmetry_multiplicity
  _atom_site_fract_x
  _atom_site_fract_y
  _atom_site_fract_z
  _atom_site_occupancy
  Dy  Dy1       1.0  0.010462215170264244  0.6008272171020508  0.01757735386490822  1.0000
  Ge  Ge1       1.0  0.9701890349388124  0.8083248734474182  0.37743237614631653  1.0000
  I   I1        1.0  0.4658156037330628  0.4597732424736023  0.8755051493644714  1.0000
  I   I2        1.0  0.8303121924400331  0.016114898025989532  0.596083402633667  1.0000
  Sb  Sb1       1.0  0.08683404326438904  0.489809513092041  0.2520109713077545  1.0000
  Sb  Sb2       1.0  0.6079501509666443  0.7977370619773865  0.22790256142616266  1.0000
  Sb  Sb3       1.0  0.07791836559772491  0.740175724029541  0.1037531569600105  1.0000
  Sb  Sb4       1.0  0.2977997660636902  0.32080698013305664  0.534227192401886  1.0000
  Tb  Tb1       1.0  0.7694178819656373  0.5539389252662659  0.49129846692085266  1.0000
  Tb  Tb2       1.0  0.47623455524444586  0.11251066625118256  0.058740679174661636  1.0000
  Zn  Zn1       1.0  0.8300420045852662  0.6984050273895264  0.766979992389679  1.0000
