data_image0
_chemical_formula_structural       BaFeI4SbTb3Zr
_chemical_formula_sum              "Ba1 Fe1 I4 Sb1 Tb3 Zr1"
_cell_length_a       7.06861082677271
_cell_length_b       9.064249716695887
_cell_length_c       9.554945945739746
_cell_angle_alpha    124.16793839781126
_cell_angle_beta     90.68884325994006
_cell_angle_gamma    90.18801246018765

_space_group_name_H-M_alt    "P 1"
_space_group_IT_number       1

loop_
  _space_group_symop_operation_xyz
  'x, y, z'

loop_
  _atom_site_type_symbol
  _atom_site_label
  _atom_site_symmetry_multiplicity
  _atom_site_fract_x
  _atom_site_fract_y
  _atom_site_fract_z
  _atom_site_occupancy
  Ba  Ba1       1.0  0.5107495188713074  0.0961497947573662  0.8447628617286682  1.0000
  Fe  Fe1       1.0  0.011798744089901447  0.04530688002705575  0.33818426728248596  1.0000
  I   I1        1.0  0.5920593738555908  0.6362625956535339  0.06822117418050766  1.0000
  I   I2        1.0  0.009792795404791832  0.042180482298135764  0.31963685154914856  1.0000
  I   I3        1.0  0.006141066551208497  0.36592420935630804  0.4533831179141998  1.0000
  I   I4        1.0  0.009008582681417465  0.5941283702850342  0.7412734627723694  1.0000
  Sb  Sb1       1.0  0.011798718012869358  0.03592919558286667  0.38467827439308167  1.0000
  Tb  Tb1       1.0  0.003543734550476076  0.8147157430648805  0.19615951180458077  1.0000
  Tb  Tb2       1.0  0.5100898146629333  0.5037636756896973  0.2558539807796479  1.0000
  Tb  Tb3       1.0  0.5117031335830688  0.27485302090644836  0.5566860437393188  1.0000
  Zr  Zr1       1.0  0.5102592706680298  0.44046962261199957  0.2542156875133515  1.0000
