data_image0
_chemical_formula_structural       PW5
_chemical_formula_sum              "P1 W5"
_cell_length_a       3.2396818613363094
_cell_length_b       3.707887744778776
_cell_length_c       9.887528419494629
_cell_angle_alpha    93.30371501581071
_cell_angle_beta     89.73936443971832
_cell_angle_gamma    87.59017689271666

_space_group_name_H-M_alt    "P 1"
_space_group_IT_number       1

loop_
  _space_group_symop_operation_xyz
  'x, y, z'

loop_
  _atom_site_type_symbol
  _atom_site_label
  _atom_site_symmetry_multiplicity
  _atom_site_fract_x
  _atom_site_fract_y
  _atom_site_fract_z
  _atom_site_occupancy
  P   P1        1.0  0.8640415072441101  0.16280221939086914  0.21663957834243774  1.0000
  W   W1        1.0  0.35393255949020386  0.4048553705215454  0.37011444568634033  1.0000
  W   W2        1.0  0.3567104637622833  0.29585596919059753  0.7013711333274841  1.0000
  W   W3        1.0  0.8580436110496521  0.23324945569038388  0.7302027344703674  1.0000
  W   W4        1.0  0.8560733199119568  0.6387428641319275  0.10720203071832657  1.0000
  W   W5        1.0  0.8554188013076782  0.818882942199707  0.6013815402984619  1.0000
