data_image0
_chemical_formula_structural       P2W4
_chemical_formula_sum              "P2 W4"
_cell_length_a       3.378075023892702
_cell_length_b       3.5947981094552883
_cell_length_c       9.210932731628418
_cell_angle_alpha    94.30471648045113
_cell_angle_beta     90.19203875528402
_cell_angle_gamma    91.42755670572991

_space_group_name_H-M_alt    "P 1"
_space_group_IT_number       1

loop_
  _space_group_symop_operation_xyz
  'x, y, z'

loop_
  _atom_site_type_symbol
  _atom_site_label
  _atom_site_symmetry_multiplicity
  _atom_site_fract_x
  _atom_site_fract_y
  _atom_site_fract_z
  _atom_site_occupancy
  P   P1        1.0  0.19839268922805786  0.5423019528388977  0.4999682307243347  1.0000
  P   P2        1.0  0.712510883808136  0.32357463240623474  0.11530139297246933  1.0000
  W   W1        1.0  0.688615620136261  0.0008951092604547738  0.3994627296924591  1.0000
  W   W2        1.0  0.4390506446361542  0.863451063632965  0.7164755463600159  1.0000
  W   W3        1.0  0.6820352077484131  0.004384235944598913  0.39974963665008545  1.0000
  W   W4        1.0  0.17386871576309204  0.5767379999160767  0.8495985269546509  1.0000
