data_image0
_chemical_formula_structural       Ca6HIPPbV
_chemical_formula_sum              "Ca6 H1 I1 P1 Pb1 V1"
_cell_length_a       6.141157859223587
_cell_length_b       6.378060004897243
_cell_length_c       7.9216837882995605
_cell_angle_alpha    87.27462584916555
_cell_angle_beta     72.42025891343431
_cell_angle_gamma    72.16771733047793

_space_group_name_H-M_alt    "P 1"
_space_group_IT_number       1

loop_
  _space_group_symop_operation_xyz
  'x, y, z'

loop_
  _atom_site_type_symbol
  _atom_site_label
  _atom_site_symmetry_multiplicity
  _atom_site_fract_x
  _atom_site_fract_y
  _atom_site_fract_z
  _atom_site_occupancy
  Ca  Ca1       1.0  0.37215033173561096  0.7939936518669128  0.7614257335662842  1.0000
  Ca  Ca2       1.0  0.8788385987281799  0.17903628945350647  0.1684337705373764  1.0000
  Ca  Ca3       1.0  0.3780940771102905  0.06500557065010071  0.0416327528655529  1.0000
  Ca  Ca4       1.0  0.8755000233650208  0.007534838281571865  0.40227836370468145  1.0000
  Ca  Ca5       1.0  0.37743300199508667  0.8299587965011597  0.8227973580360413  1.0000
  Ca  Ca6       1.0  0.37141671776771545  0.7884885668754578  0.0862126499414444  1.0000
  H   H1        1.0  0.8692134022712708  0.3295835852622986  0.8440550565719604  1.0000
  I   I1        1.0  0.8796054124832153  0.8631858229637146  0.23688226938247686  1.0000
  P   P1        1.0  0.8859250545501709  0.906189501285553  0.6503603458404541  1.0000
  Pb  Pb1       1.0  0.14046227931976318  0.5187392234802246  0.05536945164203644  1.0000
  V   V1        1.0  0.8646921515464783  0.30467212200164795  0.008600814267992973  1.0000
