data_image0
_chemical_formula_structural       Ca8I2Pb
_chemical_formula_sum              "Ca8 I2 Pb1"
_cell_length_a       6.576307035392339
_cell_length_b       6.162373248535833
_cell_length_c       9.629172325134277
_cell_angle_alpha    82.20235505387366
_cell_angle_beta     68.22624107136153
_cell_angle_gamma    57.3237990393561

_space_group_name_H-M_alt    "P 1"
_space_group_IT_number       1

loop_
  _space_group_symop_operation_xyz
  'x, y, z'

loop_
  _atom_site_type_symbol
  _atom_site_label
  _atom_site_symmetry_multiplicity
  _atom_site_fract_x
  _atom_site_fract_y
  _atom_site_fract_z
  _atom_site_occupancy
  Ca  Ca1       1.0  0.9808514118194579  0.42860305309295654  0.6728115677833557  1.0000
  Ca  Ca2       1.0  0.5368608832359314  0.460837721824646  0.07993531227111816  1.0000
  Ca  Ca3       1.0  0.03398367762565613  0.444877564907074  0.09664344787597656  1.0000
  Ca  Ca4       1.0  0.5469902157783508  0.8067684769630432  0.4639679491519928  1.0000
  Ca  Ca5       1.0  0.5649710297584534  0.21051210165023804  0.7417287230491638  1.0000
  Ca  Ca6       1.0  0.299537718296051  0.8807755708694458  0.30104076862335205  1.0000
  Ca  Ca7       1.0  0.5695533752441406  0.3575906753540039  0.3920205533504486  1.0000
  Ca  Ca8       1.0  0.35779747366905207  0.7652071714401245  0.8089467883110046  1.0000
  I   I1        1.0  0.31345072388648987  0.8575151562690735  0.41980329155921936  1.0000
  I   I2        1.0  0.03451617434620857  0.4276060461997986  0.16887275874614716  1.0000
  Pb  Pb1       1.0  0.03354918584227562  0.16424186527729034  0.9337447881698608  1.0000
