data_image0
_chemical_formula_structural       Ca5F2OPb2Zn
_chemical_formula_sum              "Ca5 F2 O1 Pb2 Zn1"
_cell_length_a       5.934658486995553
_cell_length_b       5.6740008582415795
_cell_length_c       10.00452995300293
_cell_angle_alpha    91.62627546323984
_cell_angle_beta     89.13329553970736
_cell_angle_gamma    95.00224474087852

_space_group_name_H-M_alt    "P 1"
_space_group_IT_number       1

loop_
  _space_group_symop_operation_xyz
  'x, y, z'

loop_
  _atom_site_type_symbol
  _atom_site_label
  _atom_site_symmetry_multiplicity
  _atom_site_fract_x
  _atom_site_fract_y
  _atom_site_fract_z
  _atom_site_occupancy
  Ca  Ca1       1.0  0.29708072543144226  0.09858305752277374  0.5164228677749634  1.0000
  Ca  Ca2       1.0  0.7983631491661072  0.005688650067895651  0.09756047278642654  1.0000
  Ca  Ca3       1.0  0.7983637452125549  0.3117348849773407  0.3003273904323578  1.0000
  Ca  Ca4       1.0  0.7993207573890686  0.46958118677139277  0.1764722615480423  1.0000
  Ca  Ca5       1.0  0.29774850606918335  0.9989646077156066  0.42233261466026306  1.0000
  F   F1        1.0  0.29836949706077576  0.3587448298931122  0.8175985813140869  1.0000
  F   F2        1.0  0.3064381182193756  0.6578838229179382  0.7163615226745605  1.0000
  O   O1        1.0  0.5475782752037048  0.06788213551044464  0.8927205801010132  1.0000
  Pb  Pb1       1.0  0.8013836145401001  0.7904073596000671  0.10915742814540863  1.0000
  Pb  Pb2       1.0  0.3008261024951935  0.9972634911537169  0.015527940355241299  1.0000
  Zn  Zn1       1.0  0.29839882254600525  0.8541312217712401  0.9252536296844482  1.0000
