data_image0
_chemical_formula_structural       Ca5Mn3Sn3
_chemical_formula_sum              "Ca5 Mn3 Sn3"
_cell_length_a       5.247670749312413
_cell_length_b       5.210273488810732
_cell_length_c       10.79857063293457
_cell_angle_alpha    104.43587896940402
_cell_angle_beta     90.58986518764706
_cell_angle_gamma    87.59258846809416

_space_group_name_H-M_alt    "P 1"
_space_group_IT_number       1

loop_
  _space_group_symop_operation_xyz
  'x, y, z'

loop_
  _atom_site_type_symbol
  _atom_site_label
  _atom_site_symmetry_multiplicity
  _atom_site_fract_x
  _atom_site_fract_y
  _atom_site_fract_z
  _atom_site_occupancy
  Ca  Ca1       1.0  0.2866706848144531  0.8370457887649536  0.14499564468860626  1.0000
  Ca  Ca2       1.0  0.7832887172698975  0.49556577205657965  0.8201828002929688  1.0000
  Ca  Ca3       1.0  0.7832106351852417  0.4313130676746369  0.0023407076951116323  1.0000
  Ca  Ca4       1.0  0.7810822129249573  0.5409131646156311  0.41012635827064514  1.0000
  Ca  Ca5       1.0  0.7840009927749634  0.9512951970100404  0.6718463897705078  1.0000
  Mn  Mn1       1.0  0.2888958752155304  0.07174321264028549  0.7886951565742493  1.0000
  Mn  Mn2       1.0  0.09372469037771225  0.5871455669403076  0.6325266361236572  1.0000
  Mn  Mn3       1.0  0.7833653092384338  0.18024024367332458  0.3325102627277374  1.0000
  Sn  Sn1       1.0  0.28492793440818787  0.6149787306785583  0.8580580353736877  1.0000
  Sn  Sn2       1.0  0.2853550314903259  0.06906133890151978  0.1610889881849289  1.0000
  Sn  Sn3       1.0  0.5501773357391357  0.5617568492889404  0.17399361729621887  1.0000
