data_image0
_chemical_formula_structural       Ca4IOPPbPtTbZn
_chemical_formula_sum              "Ca4 I1 O1 P1 Pb1 Pt1 Tb1 Zn1"
_cell_length_a       5.704653014658642
_cell_length_b       6.302449766720999
_cell_length_c       9.557534217834473
_cell_angle_alpha    112.41230364871652
_cell_angle_beta     89.55336904551223
_cell_angle_gamma    92.89195630083981

_space_group_name_H-M_alt    "P 1"
_space_group_IT_number       1

loop_
  _space_group_symop_operation_xyz
  'x, y, z'

loop_
  _atom_site_type_symbol
  _atom_site_label
  _atom_site_symmetry_multiplicity
  _atom_site_fract_x
  _atom_site_fract_y
  _atom_site_fract_z
  _atom_site_occupancy
  Ca  Ca1       1.0  0.3682445287704468  0.8471966981887817  0.36463841795921326  1.0000
  Ca  Ca2       1.0  0.12208575010299681  0.24574068188667297  0.7013120651245117  1.0000
  Ca  Ca3       1.0  0.862525224685669  0.6877812743186951  0.17784728109836578  1.0000
  Ca  Ca4       1.0  0.11284846067428587  0.7459091544151306  0.842638373374939  1.0000
  I   I1        1.0  0.8606219291687012  0.5885000228881836  0.3232420086860657  1.0000
  O   O1        1.0  0.7532914280891418  0.8548681735992432  0.13811001181602478  1.0000
  P   P1        1.0  0.37465134263038635  0.26192936301231384  0.5437391996383667  1.0000
  Pb  Pb1       1.0  0.8803942799568176  0.2597584128379822  0.7624386548995972  1.0000
  Pt  Pt1       1.0  0.4959257543087005  0.6645678877830505  0.8945173621177673  1.0000
  Tb  Tb1       1.0  0.8577823638916016  0.7361682653427124  0.8752524852752686  1.0000
  Zn  Zn1       1.0  0.374210923910141  0.45874518156051636  0.7891655564308167  1.0000
