data_image0
_chemical_formula_structural       Ca4Mn3Sn4
_chemical_formula_sum              "Ca4 Mn3 Sn4"
_cell_length_a       5.099063320220467
_cell_length_b       4.8064738320357785
_cell_length_c       9.53782844543457
_cell_angle_alpha    88.93466807918108
_cell_angle_beta     87.96958087294047
_cell_angle_gamma    91.92872059607771

_space_group_name_H-M_alt    "P 1"
_space_group_IT_number       1

loop_
  _space_group_symop_operation_xyz
  'x, y, z'

loop_
  _atom_site_type_symbol
  _atom_site_label
  _atom_site_symmetry_multiplicity
  _atom_site_fract_x
  _atom_site_fract_y
  _atom_site_fract_z
  _atom_site_occupancy
  Ca  Ca1       1.0  0.45175895094871527  0.6933911442756653  0.35430991649627686  1.0000
  Ca  Ca2       1.0  0.9520637392997743  0.7709973454475403  0.5379248857498169  1.0000
  Ca  Ca3       1.0  0.4425915479660035  0.11144158244132996  0.9406198859214783  1.0000
  Ca  Ca4       1.0  0.9470819830894471  0.23798340559005737  0.36757081747055054  1.0000
  Mn  Mn1       1.0  0.9595822095870973  0.9899978041648865  0.05094446241855621  1.0000
  Mn  Mn2       1.0  0.9518776535987855  0.33552658557891846  0.02512390352785587  1.0000
  Mn  Mn3       1.0  0.4698662459850312  0.8254911303520203  0.6620556116104126  1.0000
  Sn  Sn1       1.0  0.9589867591857911  0.8603295683860779  0.7313300967216492  1.0000
  Sn  Sn2       1.0  0.4496362209320069  0.580437421798706  0.18763025104999542  1.0000
  Sn  Sn3       1.0  0.4585727155208588  0.34543827176094055  0.15288446843624115  1.0000
  Sn  Sn4       1.0  0.42431947588920593  0.22005148231983185  0.4793039560317993  1.0000
