data_image0
_chemical_formula_structural       BrGeO2SSbU
_chemical_formula_sum              "Br1 Ge1 O2 S1 Sb1 U1"
_cell_length_a       5.322689659001206
_cell_length_b       5.418719906868873
_cell_length_c       9.166692733764648
_cell_angle_alpha    112.83231986446845
_cell_angle_beta     89.66900465771805
_cell_angle_gamma    102.55403846651593

_space_group_name_H-M_alt    "P 1"
_space_group_IT_number       1

loop_
  _space_group_symop_operation_xyz
  'x, y, z'

loop_
  _atom_site_type_symbol
  _atom_site_label
  _atom_site_symmetry_multiplicity
  _atom_site_fract_x
  _atom_site_fract_y
  _atom_site_fract_z
  _atom_site_occupancy
  Br  Br1       1.0  0.6260339021682739  0.11710293591022491  0.8994120955467224  1.0000
  Ge  Ge1       1.0  0.12403350323438644  0.03480389714241028  0.8883002400398254  1.0000
  O   O1        1.0  0.6771721243858337  0.8400806784629822  0.7473788857460022  1.0000
  O   O2        1.0  0.18430927395820618  0.319094717502594  0.6331750750541686  1.0000
  S   S1        1.0  0.6789847612380981  0.635927140712738  0.6659682393074036  1.0000
  Sb  Sb1       1.0  0.12433931976556778  0.9446133971214294  0.0914783105254173  1.0000
  U   U1        1.0  0.12486021965742111  0.5529946684837341  0.1114869266748428  1.0000
