data_image0
_chemical_formula_structural       BrGe2OU3
_chemical_formula_sum              "Br1 Ge2 O1 U3"
_cell_length_a       4.826888738754092
_cell_length_b       5.574795398354802
_cell_length_c       6.673182010650635
_cell_angle_alpha    105.530706018195
_cell_angle_beta     88.65611336229843
_cell_angle_gamma    90.10094863191529

_space_group_name_H-M_alt    "P 1"
_space_group_IT_number       1

loop_
  _space_group_symop_operation_xyz
  'x, y, z'

loop_
  _atom_site_type_symbol
  _atom_site_label
  _atom_site_symmetry_multiplicity
  _atom_site_fract_x
  _atom_site_fract_y
  _atom_site_fract_z
  _atom_site_occupancy
  Br  Br1       1.0  0.5362486839294434  0.7898472547531128  0.8369566202163696  1.0000
  Ge  Ge1       1.0  0.5242391228675842  0.3891127407550812  0.5756555795669556  1.0000
  Ge  Ge2       1.0  0.05527369678020477  0.5337024927139282  0.6652066707611084  1.0000
  O   O1        1.0  0.02662820555269718  0.27761515974998474  0.8735628128051758  1.0000
  U   U1        1.0  0.05539344996213913  0.6031971573829651  0.8952897787094116  1.0000
  U   U2        1.0  0.6023026704788208  0.6510735750198364  0.13468198478221893  1.0000
  U   U3        1.0  0.5236536264419556  0.9490384459495544  0.7912665605545044  1.0000
