data_image0
_chemical_formula_structural       BrU6
_chemical_formula_sum              "Br1 U6"
_cell_length_a       5.449522479095253
_cell_length_b       6.148422062971891
_cell_length_c       7.481636047363281
_cell_angle_alpha    120.29135519847559
_cell_angle_beta     102.41133304610993
_cell_angle_gamma    105.80914998828229

_space_group_name_H-M_alt    "P 1"
_space_group_IT_number       1

loop_
  _space_group_symop_operation_xyz
  'x, y, z'

loop_
  _atom_site_type_symbol
  _atom_site_label
  _atom_site_symmetry_multiplicity
  _atom_site_fract_x
  _atom_site_fract_y
  _atom_site_fract_z
  _atom_site_occupancy
  Br  Br1       1.0  0.62000572681427  0.4183005392551422  0.26548388600349426  1.0000
  U   U1        1.0  0.6173060536384583  0.543387770652771  0.9956229329109191  1.0000
  U   U2        1.0  0.6198859214782715  0.8172900676727295  0.25475940108299255  1.0000
  U   U3        1.0  0.11511868238449095  0.34946298599243164  0.7354778647422789  1.0000
  U   U4        1.0  0.6323822140693665  0.7308501601219177  0.808577001094818  1.0000
  U   U5        1.0  0.3817407190799713  0.5150654911994934  0.7051421999931334  1.0000
  U   U6        1.0  0.11629465967416762  0.3844318091869354  0.24540983140468595  1.0000
