data_image0
_chemical_formula_structural       BrGeOSiU2Zn
_chemical_formula_sum              "Br1 Ge1 O1 Si1 U2 Zn1"
_cell_length_a       5.306281498935615
_cell_length_b       5.823738368041802
_cell_length_c       7.424437999725342
_cell_angle_alpha    112.97635395872683
_cell_angle_beta     102.02655872551988
_cell_angle_gamma    108.16853492378296

_space_group_name_H-M_alt    "P 1"
_space_group_IT_number       1

loop_
  _space_group_symop_operation_xyz
  'x, y, z'

loop_
  _atom_site_type_symbol
  _atom_site_label
  _atom_site_symmetry_multiplicity
  _atom_site_fract_x
  _atom_site_fract_y
  _atom_site_fract_z
  _atom_site_occupancy
  Br  Br1       1.0  0.5309035778045654  0.4865024387836456  0.473938524723053  1.0000
  Ge  Ge1       1.0  0.5631028413772583  0.5638100504875183  0.9075546860694885  1.0000
  O   O1        1.0  0.02002676948904991  0.7520095705986023  0.02011805772781369  1.0000
  Si  Si1       1.0  0.039836376905441284  0.5946078896522522  0.01595994457602495  1.0000
  U   U1        1.0  0.06643574684858322  0.07437776774168015  0.8686041235923767  1.0000
  U   U2        1.0  0.5300590395927429  0.4652014970779419  0.8111680746078491  1.0000
  Zn  Zn1       1.0  0.021388264372944832  0.28376317024230957  0.042050007730722413  1.0000
