data_image0
_chemical_formula_structural       AsGeIOU3
_chemical_formula_sum              "As1 Ge1 I1 O1 U3"
_cell_length_a       5.317860237689447
_cell_length_b       5.791874219028364
_cell_length_c       8.85848617553711
_cell_angle_alpha    113.67678765164821
_cell_angle_beta     91.88332232682411
_cell_angle_gamma    108.65573555317783

_space_group_name_H-M_alt    "P 1"
_space_group_IT_number       1

loop_
  _space_group_symop_operation_xyz
  'x, y, z'

loop_
  _atom_site_type_symbol
  _atom_site_label
  _atom_site_symmetry_multiplicity
  _atom_site_fract_x
  _atom_site_fract_y
  _atom_site_fract_z
  _atom_site_occupancy
  As  As1       1.0  0.7238945364952087  0.25952261686325073  0.525823712348938  1.0000
  Ge  Ge1       1.0  0.7454052567481995  0.28159698843955994  0.9612327814102173  1.0000
  I   I1        1.0  0.22367390990257263  0.4659199118614197  0.45757749676704407  1.0000
  O   O1        1.0  0.16804270446300507  0.025572948157787323  0.6049583554267883  1.0000
  U   U1        1.0  0.24124684929847717  0.9694292545318604  0.9504128098487854  1.0000
  U   U2        1.0  0.22580403089523315  0.9557806253433228  0.4966135323047638  1.0000
  U   U3        1.0  0.7248609066009521  0.9898087382316589  0.9521897435188293  1.0000
