data_image0
_chemical_formula_structural       GeLa7O3SbSeZn
_chemical_formula_sum              "Ge1 La7 O3 Sb1 Se1 Zn1"
_cell_length_a       6.144688645171547
_cell_length_b       9.045424750071998
_cell_length_c       9.525860786437988
_cell_angle_alpha    119.83311886231633
_cell_angle_beta     90.22581362013935
_cell_angle_gamma    95.75115141424969

_space_group_name_H-M_alt    "P 1"
_space_group_IT_number       1

loop_
  _space_group_symop_operation_xyz
  'x, y, z'

loop_
  _atom_site_type_symbol
  _atom_site_label
  _atom_site_symmetry_multiplicity
  _atom_site_fract_x
  _atom_site_fract_y
  _atom_site_fract_z
  _atom_site_occupancy
  Ge  Ge1       1.0  0.09330528229475021  0.1244114339351654  0.15666277706623077  1.0000
  La  La1       1.0  0.6161795258522034  0.41092967987060547  0.24341276288032532  1.0000
  La  La2       1.0  0.5047485828399658  0.27399972081184387  0.09964512288570404  1.0000
  La  La3       1.0  0.5624282956123352  0.15431898832321167  0.40616798400878906  1.0000
  La  La4       1.0  0.06802449375391006  0.22903534770011902  0.6330119371414185  1.0000
  La  La5       1.0  0.4855293333530426  0.24753227829933167  0.6828274726867676  1.0000
  La  La6       1.0  0.48510217666625977  0.9018773436546326  0.24311938881874076  1.0000
  La  La7       1.0  0.0033190823160111904  0.2429414987564087  0.9456762075424194  1.0000
  O   O1        1.0  0.12856830656528473  0.563218891620636  0.2546371519565582  1.0000
  O   O2        1.0  0.13523922860622406  0.853092610836029  0.11216741055250164  1.0000
  O   O3        1.0  0.6278306841850281  0.9428957104682922  0.36157283186912537  1.0000
  Sb  Sb1       1.0  0.08836831897497177  0.6405932903289795  0.7912761569023132  1.0000
  Se  Se1       1.0  0.4870440363883972  0.08644617348909378  0.7724329233169556  1.0000
  Zn  Zn1       1.0  0.5597144961357117  0.22967766225337982  0.43409422039985657  1.0000
