data_image0
_chemical_formula_structural       DyGe2La7O2Se2
_chemical_formula_sum              "Dy1 Ge2 La7 O2 Se2"
_cell_length_a       5.207017000282565
_cell_length_b       8.505924867980097
_cell_length_c       9.475508689880371
_cell_angle_alpha    116.61742727479344
_cell_angle_beta     90.37916954670143
_cell_angle_gamma    90.81657616401712

_space_group_name_H-M_alt    "P 1"
_space_group_IT_number       1

loop_
  _space_group_symop_operation_xyz
  'x, y, z'

loop_
  _atom_site_type_symbol
  _atom_site_label
  _atom_site_symmetry_multiplicity
  _atom_site_fract_x
  _atom_site_fract_y
  _atom_site_fract_z
  _atom_site_occupancy
  Dy  Dy1       1.0  0.41058897972106934  0.3748929500579834  0.3138713836669922  1.0000
  Ge  Ge1       1.0  0.9217955470085144  0.18594643473625183  0.22000721096992493  1.0000
  Ge  Ge2       1.0  0.41750282049179077  0.8370596170425416  0.774001955986023  1.0000
  La  La1       1.0  0.4156964421272278  0.20574380457401278  0.735697865486145  1.0000
  La  La2       1.0  0.423416405916214  0.7516587376594543  0.01329347304999833  1.0000
  La  La3       1.0  0.41877445578575134  0.3558387756347656  0.5767444372177124  1.0000
  La  La4       1.0  0.9188272953033447  0.2924704849720001  0.39632076025009155  1.0000
  La  La5       1.0  0.9236848950386047  0.2249693721532822  0.5424928665161133  1.0000
  La  La6       1.0  0.4166901111602783  0.2977338433265686  0.674821674823761  1.0000
  La  La7       1.0  0.9013268351554871  0.6396127343177795  0.5315581560134888  1.0000
  O   O1        1.0  0.4338696599006653  0.6829721927642822  0.44414693117141724  1.0000
  O   O2        1.0  0.9368888139724731  0.5056383013725281  0.6706646084785461  1.0000
  Se  Se1       1.0  0.9174840450286865  0.8390536308288575  0.42095127701759344  1.0000
  Se  Se2       1.0  0.3986678421497345  0.6224168539047241  0.6058152914047241  1.0000
