data_image0
_chemical_formula_structural       La10OSi3
_chemical_formula_sum              "La10 O1 Si3"
_cell_length_a       5.504165021747281
_cell_length_b       6.11350738408451
_cell_length_c       8.663894653320312
_cell_angle_alpha    88.99781948322037
_cell_angle_beta     89.87913356279263
_cell_angle_gamma    93.52410219085088

_space_group_name_H-M_alt    "P 1"
_space_group_IT_number       1

loop_
  _space_group_symop_operation_xyz
  'x, y, z'

loop_
  _atom_site_type_symbol
  _atom_site_label
  _atom_site_symmetry_multiplicity
  _atom_site_fract_x
  _atom_site_fract_y
  _atom_site_fract_z
  _atom_site_occupancy
  La  La1       1.0  0.006070749368518586  0.48409619927406305  0.6311633586883545  1.0000
  La  La2       1.0  0.5224142074584961  0.03852533921599388  0.20433175563812256  1.0000
  La  La3       1.0  0.15146507322788239  0.86338073015213  0.0027768260333687084  1.0000
  La  La4       1.0  0.03967193514108658  0.6666472554206848  0.12240622192621231  1.0000
  La  La5       1.0  0.5078964829444885  0.760451316833496  0.27167099714279175  1.0000
  La  La6       1.0  0.6835711002349854  0.3684008121490478  0.009912616573274136  1.0000
  La  La7       1.0  0.5335951447486877  0.6530863642692566  0.3036229908466339  1.0000
  La  La8       1.0  0.6479405164718628  0.5707105994224548  0.46261221170425415  1.0000
  La  La9       1.0  0.051034923642873764  0.23024274408817288  0.47710373997688293  1.0000
  La  La10      1.0  0.08518708497285843  0.21631109714508054  0.11892784386873245  1.0000
  O   O1        1.0  0.5050989985466003  0.41310629248619074  0.27501723170280457  1.0000
  Si  Si1       1.0  0.4533405900001526  0.3086208999156952  0.10524571686983109  1.0000
  Si  Si2       1.0  0.040440011769533143  0.9518462419509887  0.25479790568351746  1.0000
  Si  Si3       1.0  0.16046679019927979  0.23547317087650296  0.47701701521873474  1.0000
