data_image0
_chemical_formula_structural       DyGe2La8O2Se
_chemical_formula_sum              "Dy1 Ge2 La8 O2 Se1"
_cell_length_a       6.714082542150123
_cell_length_b       8.998397561744506
_cell_length_c       12.272502899169922
_cell_angle_alpha    113.58158906765966
_cell_angle_beta     96.2771963388127
_cell_angle_gamma    91.31980763480206

_space_group_name_H-M_alt    "P 1"
_space_group_IT_number       1

loop_
  _space_group_symop_operation_xyz
  'x, y, z'

loop_
  _atom_site_type_symbol
  _atom_site_label
  _atom_site_symmetry_multiplicity
  _atom_site_fract_x
  _atom_site_fract_y
  _atom_site_fract_z
  _atom_site_occupancy
  Dy  Dy1       1.0  0.7520585656166077  0.569388210773468  0.5729379653930664  1.0000
  Ge  Ge1       1.0  0.5720298290252686  0.8359425663948059  0.22735643386840823  1.0000
  Ge  Ge2       1.0  0.25475427508354187  0.09732957184314728  0.013702162541449072  1.0000
  La  La1       1.0  0.7509084939956665  0.2493920475244522  0.9382336139678956  1.0000
  La  La2       1.0  0.06480922549962997  0.49232497811317444  0.3258300721645355  1.0000
  La  La3       1.0  0.7498618364334106  0.5105454325675964  0.987879514694214  1.0000
  La  La4       1.0  0.25488099455833435  0.47990936040878296  0.1601428985595703  1.0000
  La  La5       1.0  0.7622062563896179  0.1720285564661026  0.4970348775386811  1.0000
  La  La6       1.0  0.25287872552871704  0.6414698958396912  0.6104828119277954  1.0000
  La  La7       1.0  0.7498844861984253  0.0361221507191658  0.22032395005226138  1.0000
  La  La8       1.0  0.2578003406524658  0.6658807396888733  0.6774745583534242  1.0000
  O   O1        1.0  0.551834225654602  0.9454461336135864  0.33237057924270635  1.0000
  O   O2        1.0  0.24503760039806366  0.5110434889793396  0.5566590428352356  1.0000
  Se  Se1       1.0  0.7176187634468079  0.7178685665130615  0.9852176904678346  1.0000
