data_image0
_chemical_formula_structural       La10O2SeSi
_chemical_formula_sum              "La10 O2 Se1 Si1"
_cell_length_a       5.338863003843162
_cell_length_b       5.659887438799266
_cell_length_c       14.720357894897461
_cell_angle_alpha    98.26608773155309
_cell_angle_beta     98.22224151425004
_cell_angle_gamma    88.33752706922016

_space_group_name_H-M_alt    "P 1"
_space_group_IT_number       1

loop_
  _space_group_symop_operation_xyz
  'x, y, z'

loop_
  _atom_site_type_symbol
  _atom_site_label
  _atom_site_symmetry_multiplicity
  _atom_site_fract_x
  _atom_site_fract_y
  _atom_site_fract_z
  _atom_site_occupancy
  La  La1       1.0  0.047597482800483704  0.37792733311653137  0.679861307144165  1.0000
  La  La2       1.0  0.03389903903007507  0.634239912033081  0.2059289664030075  1.0000
  La  La3       1.0  0.02976459264755249  0.4644251763820648  0.2524532973766327  1.0000
  La  La4       1.0  0.5395638942718506  0.7165093421936035  0.518879234790802  1.0000
  La  La5       1.0  0.530081570148468  0.4998848736286163  0.21446456015110016  1.0000
  La  La6       1.0  0.05696162208914757  0.6295408606529236  0.025101862847805023  1.0000
  La  La7       1.0  0.5319681763648987  0.012348342686891556  0.1275968700647354  1.0000
  La  La8       1.0  0.5139886140823364  0.6892971396446228  0.7886163592338562  1.0000
  La  La9       1.0  0.5321864485740662  0.5559593439102173  0.12448044121265411  1.0000
  La  La10      1.0  0.5447772145271301  0.30207812786102295  0.6945933699607849  1.0000
  O   O1        1.0  0.9006593227386475  0.31451746821403503  0.8370763659477234  1.0000
  O   O2        1.0  0.45823904871940613  0.4343087375164032  0.8640949726104736  1.0000
  Se  Se1       1.0  0.019922014325857162  0.2956943213939667  0.014445305801928043  1.0000
  Si  Si1       1.0  0.45308080315589905  0.1342763453722  0.4076993465423584  1.0000
