data_image0
_chemical_formula_structural       La10OSeSi2
_chemical_formula_sum              "La10 O1 Se1 Si2"
_cell_length_a       6.1126670450823255
_cell_length_b       5.995830733118452
_cell_length_c       11.77326774597168
_cell_angle_alpha    91.4999906827095
_cell_angle_beta     90.35489834875845
_cell_angle_gamma    116.54044150699929

_space_group_name_H-M_alt    "P 1"
_space_group_IT_number       1

loop_
  _space_group_symop_operation_xyz
  'x, y, z'

loop_
  _atom_site_type_symbol
  _atom_site_label
  _atom_site_symmetry_multiplicity
  _atom_site_fract_x
  _atom_site_fract_y
  _atom_site_fract_z
  _atom_site_occupancy
  La  La1       1.0  0.04389888793230057  0.6795116662979126  0.4843368232250213  1.0000
  La  La2       1.0  0.4182316958904267  0.9011706113815309  0.04640797153115272  1.0000
  La  La3       1.0  0.09037523716688156  0.3794736862182617  0.7269755601882933  1.0000
  La  La4       1.0  0.5297944545745851  0.9160962700843812  0.5646495819091797  1.0000
  La  La5       1.0  0.17109766602516177  0.48855185508728033  0.40624228119850153  1.0000
  La  La6       1.0  0.0019281867425888777  0.2739850580692291  0.385835975408554  1.0000
  La  La7       1.0  0.5169062614440918  0.26281869411468506  0.6373482346534729  1.0000
  La  La8       1.0  0.04441411420702941  0.9305924177169801  0.44576251506805414  1.0000
  La  La9       1.0  0.2612030804157257  0.7673536539077759  0.7149998545646667  1.0000
  La  La10      1.0  0.4264138340950012  0.5788785219192505  0.23603625595569608  1.0000
  O   O1        1.0  0.9369645118713379  0.2934781312942505  0.05582527443766593  1.0000
  Se  Se1       1.0  0.8791935443878174  0.3853602111339569  0.5630602240562439  1.0000
  Si  Si1       1.0  0.9229454398155212  0.8855609893798829  0.5951080322265625  1.0000
  Si  Si2       1.0  0.909775972366333  0.4568358957767487  0.7139166593551634  1.0000
