data_image0
_chemical_formula_structural       LiPd3S2TiU2
_chemical_formula_sum              "Li1 Pd3 S2 Ti1 U2"
_cell_length_a       4.794679092555025
_cell_length_b       4.837893340531301
_cell_length_c       4.99830436706543
_cell_angle_alpha    89.85246146951103
_cell_angle_beta     90.74580811118096
_cell_angle_gamma    92.04773973608475

_space_group_name_H-M_alt    "P 1"
_space_group_IT_number       1

loop_
  _space_group_symop_operation_xyz
  'x, y, z'

loop_
  _atom_site_type_symbol
  _atom_site_label
  _atom_site_symmetry_multiplicity
  _atom_site_fract_x
  _atom_site_fract_y
  _atom_site_fract_z
  _atom_site_occupancy
  Li  Li1       1.0  0.6123806238174438  0.6711182594299316  0.9988135695457458  1.0000
  Pd  Pd1       1.0  0.11898934841156006  0.7672622203826904  0.7532951831817627  1.0000
  Pd  Pd2       1.0  0.8251137733459473  0.47774115204811096  0.4233531057834625  1.0000
  Pd  Pd3       1.0  0.6113412976264954  0.07684168219566345  0.6992827653884888  1.0000
  S   S1        1.0  0.381439745426178  0.5007930994033813  0.5372706651687622  1.0000
  S   S2        1.0  0.6090454459190369  0.5437301993370056  0.7005718350410463  1.0000
  Ti  Ti1       1.0  0.6120932698249817  0.18955256044864655  0.20434778928756714  1.0000
  U   U1        1.0  0.15952183306217194  0.37964949011802673  0.4800768196582794  1.0000
  U   U2        1.0  0.12717676162719727  0.6603820323944092  0.10230378806591034  1.0000
