data_image0
_chemical_formula_structural       AuKPPd2SU3
_chemical_formula_sum              "Au1 K1 P1 Pd2 S1 U3"
_cell_length_a       4.6924016373411455
_cell_length_b       5.347562500405831
_cell_length_c       7.219682693481445
_cell_angle_alpha    88.76934790225046
_cell_angle_beta     91.76001802328413
_cell_angle_gamma    90.54996453463137

_space_group_name_H-M_alt    "P 1"
_space_group_IT_number       1

loop_
  _space_group_symop_operation_xyz
  'x, y, z'

loop_
  _atom_site_type_symbol
  _atom_site_label
  _atom_site_symmetry_multiplicity
  _atom_site_fract_x
  _atom_site_fract_y
  _atom_site_fract_z
  _atom_site_occupancy
  Au  Au1       1.0  0.5768076181411743  0.4586016535758972  0.5024438500404358  1.0000
  K   K1        1.0  0.844203770160675  0.9069486856460571  0.3239504098892212  1.0000
  P   P1        1.0  0.325935959815979  0.18171751499176025  0.6947005391120911  1.0000
  Pd  Pd1       1.0  0.3484085500240326  0.8539766073226929  0.17611579596996307  1.0000
  Pd  Pd2       1.0  0.8445577025413513  0.4452493190765381  0.6945868730545044  1.0000
  S   S1        1.0  0.5594928860664368  0.605720043182373  0.8676767945289612  1.0000
  U   U1        1.0  0.07483796775341034  0.029264919459819794  0.05545569211244583  1.0000
  U   U2        1.0  0.8517018556594849  0.9560089707374573  0.3863617479801178  1.0000
  U   U3        1.0  0.13042740523815155  0.8608269691467285  0.15281708538532257  1.0000
