data_image0
_chemical_formula_structural       Pd5S4
_chemical_formula_sum              "Pd5 S4"
_cell_length_a       4.965876364336907
_cell_length_b       5.387885735184597
_cell_length_c       7.87369441986084
_cell_angle_alpha    89.22728497753714
_cell_angle_beta     89.758447558281
_cell_angle_gamma    91.26189436687861

_space_group_name_H-M_alt    "P 1"
_space_group_IT_number       1

loop_
  _space_group_symop_operation_xyz
  'x, y, z'

loop_
  _atom_site_type_symbol
  _atom_site_label
  _atom_site_symmetry_multiplicity
  _atom_site_fract_x
  _atom_site_fract_y
  _atom_site_fract_z
  _atom_site_occupancy
  Pd  Pd1       1.0  0.7595395445823669  0.020017515867948532  0.054088816046714776  1.0000
  Pd  Pd2       1.0  0.5365088582038879  0.3303055465221405  0.9652774930000304  1.0000
  Pd  Pd3       1.0  0.7521283626556396  0.708031415939331  0.23746196925640103  1.0000
  Pd  Pd4       1.0  0.7528796195983887  0.6700523495674133  0.7777555584907531  1.0000
  Pd  Pd5       1.0  0.24976886808872223  0.6473541259765625  0.9094395041465758  1.0000
  S   S1        1.0  0.5569555163383484  0.8427687287330627  0.9122743010520934  1.0000
  S   S2        1.0  0.24572433531284332  0.9785912036895752  0.765128195285797  1.0000
  S   S3        1.0  0.898123562335968  0.24000871181488037  0.01698504015803337  1.0000
  S   S4        1.0  0.25313544273376465  0.6747374534606934  0.9118698239326476  1.0000
