data_image0
_chemical_formula_structural       InKSU6
_chemical_formula_sum              "In1 K1 S1 U6"
_cell_length_a       4.815008135155015
_cell_length_b       5.484931959424339
_cell_length_c       7.682517051696777
_cell_angle_alpha    87.36991566678253
_cell_angle_beta     85.34355536370323
_cell_angle_gamma    95.92821219337607

_space_group_name_H-M_alt    "P 1"
_space_group_IT_number       1

loop_
  _space_group_symop_operation_xyz
  'x, y, z'

loop_
  _atom_site_type_symbol
  _atom_site_label
  _atom_site_symmetry_multiplicity
  _atom_site_fract_x
  _atom_site_fract_y
  _atom_site_fract_z
  _atom_site_occupancy
  In  In1       1.0  0.10383119434118271  0.1284397691488266  0.6144568920135498  1.0000
  K   K1        1.0  0.6293697953224182  0.31849437952041626  0.9632434248924255  1.0000
  S   S1        1.0  0.6165042519569397  0.6301406025886536  0.3343627154827118  1.0000
  U   U1        1.0  0.1460108757019043  0.8984490633010864  0.8226608037948608  1.0000
  U   U2        1.0  0.12527748942375183  0.08161234110593796  0.50997394323349  1.0000
  U   U3        1.0  0.11710577458143234  0.674795389175415  0.5507583022117615  1.0000
  U   U4        1.0  0.618807852268219  0.4413495659828186  0.2785579562187195  1.0000
  U   U5        1.0  0.12229810655117035  0.25610098242759705  0.40553924441337585  1.0000
  U   U6        1.0  0.621317446231842  0.5421222448348999  0.9222790598869324  1.0000
