data_image0
_chemical_formula_structural       BGe2HoNi5
_chemical_formula_sum              "B1 Ge2 Ho1 Ni5"
_cell_length_a       4.562022006421078
_cell_length_b       6.6667576245254425
_cell_length_c       6.826973915100098
_cell_angle_alpha    118.79208560212263
_cell_angle_beta     89.57956713597633
_cell_angle_gamma    89.8431339864732

_space_group_name_H-M_alt    "P 1"
_space_group_IT_number       1

loop_
  _space_group_symop_operation_xyz
  'x, y, z'

loop_
  _atom_site_type_symbol
  _atom_site_label
  _atom_site_symmetry_multiplicity
  _atom_site_fract_x
  _atom_site_fract_y
  _atom_site_fract_z
  _atom_site_occupancy
  B   B1        1.0  0.36574554443359375  0.8103781938552856  0.6612364649772644  1.0000
  Ge  Ge1       1.0  0.8702839016914368  0.14555273950099945  0.5888571739196777  1.0000
  Ge  Ge2       1.0  0.8645976185798645  0.6508563160896301  0.47058025002479553  1.0000
  Ho  Ho1       1.0  0.3642003536224365  0.6457387208938599  0.43098199367523193  1.0000
  Ni  Ni1       1.0  0.370710164308548  0.3401578962802887  0.15881052613258362  1.0000
  Ni  Ni2       1.0  0.3757518529891968  0.3988058865070343  0.42568057775497437  1.0000
  Ni  Ni3       1.0  0.873963475227356  0.39575570821762085  0.6632703542709351  1.0000
  Ni  Ni4       1.0  0.37505313754081726  0.968370497226715  0.16565944254398346  1.0000
  Ni  Ni5       1.0  0.8720719814300537  0.09358606487512589  0.9126002192497253  1.0000
