data_image0
_chemical_formula_structural       Ge3HNi5
_chemical_formula_sum              "Ge3 H1 Ni5"
_cell_length_a       4.186399832812602
_cell_length_b       6.2611477900906864
_cell_length_c       7.248219966888428
_cell_angle_alpha    116.44091800306275
_cell_angle_beta     90.75279658836693
_cell_angle_gamma    89.7622800598585

_space_group_name_H-M_alt    "P 1"
_space_group_IT_number       1

loop_
  _space_group_symop_operation_xyz
  'x, y, z'

loop_
  _atom_site_type_symbol
  _atom_site_label
  _atom_site_symmetry_multiplicity
  _atom_site_fract_x
  _atom_site_fract_y
  _atom_site_fract_z
  _atom_site_occupancy
  Ge  Ge1       1.0  0.23594896495342255  0.9648373126983643  0.3231750130653381  1.0000
  Ge  Ge2       1.0  0.23223991692066193  0.4859756827354431  0.5962258577346802  1.0000
  Ge  Ge3       1.0  0.7375038266181946  0.9687186479568481  0.3266145288944245  1.0000
  H   H1        1.0  0.23626764118671417  0.9719800353050232  0.8297349214553832  1.0000
  Ni  Ni1       1.0  0.7356266975402832  0.7245909571647644  0.8313979506492614  1.0000
  Ni  Ni2       1.0  0.23601627349853516  0.9721909165382385  0.8309998512268065  1.0000
  Ni  Ni3       1.0  0.7352107763290405  0.24901317059993744  0.5798923969268799  1.0000
  Ni  Ni4       1.0  0.22779257595539093  0.4179876148700714  0.035622552037239075  1.0000
  Ni  Ni5       1.0  0.23132333159446716  0.9711911678314209  0.029766676947474476  1.0000
