data_image0
_chemical_formula_structural       B2Ge4Ni3
_chemical_formula_sum              "B2 Ge4 Ni3"
_cell_length_a       4.341172584394102
_cell_length_b       5.017486825082223
_cell_length_c       7.738572597503662
_cell_angle_alpha    106.63998029635361
_cell_angle_beta     90.90623587075729
_cell_angle_gamma    93.62938656358618

_space_group_name_H-M_alt    "P 1"
_space_group_IT_number       1

loop_
  _space_group_symop_operation_xyz
  'x, y, z'

loop_
  _atom_site_type_symbol
  _atom_site_label
  _atom_site_symmetry_multiplicity
  _atom_site_fract_x
  _atom_site_fract_y
  _atom_site_fract_z
  _atom_site_occupancy
  B   B1        1.0  0.7763290405273438  0.5700710415840149  0.2935979962348938  1.0000
  B   B2        1.0  0.38229554891586304  0.7085343599319458  0.582746684551239  1.0000
  Ge  Ge1       1.0  0.3831581473350525  0.9043142199516296  0.4635035991668701  1.0000
  Ge  Ge2       1.0  0.8809309005737305  0.9101234674453735  0.3705536723136902  1.0000
  Ge  Ge3       1.0  0.37720271944999695  0.40170183777809143  0.961805522441864  1.0000
  Ge  Ge4       1.0  0.7462339997291565  0.9199616312980652  0.6689289808273317  1.0000
  Ni  Ni1       1.0  0.8796409368515015  0.9060457944869995  0.035101860761642484  1.0000
  Ni  Ni2       1.0  0.8707292079925537  0.408980131149292  0.5639957785606384  1.0000
  Ni  Ni3       1.0  0.1992078721523285  0.41061097383499146  0.8169346451759338  1.0000
