data_image0
_chemical_formula_structural       BCa3Ge2Ni3
_chemical_formula_sum              "B1 Ca3 Ge2 Ni3"
_cell_length_a       4.590778486263482
_cell_length_b       6.449020841849028
_cell_length_c       6.48130464553833
_cell_angle_alpha    120.43860836509346
_cell_angle_beta     88.85621822236833
_cell_angle_gamma    90.32795889832397

_space_group_name_H-M_alt    "P 1"
_space_group_IT_number       1

loop_
  _space_group_symop_operation_xyz
  'x, y, z'

loop_
  _atom_site_type_symbol
  _atom_site_label
  _atom_site_symmetry_multiplicity
  _atom_site_fract_x
  _atom_site_fract_y
  _atom_site_fract_z
  _atom_site_occupancy
  B   B1        1.0  0.9507130980491638  0.636714518070221  0.13961282372474673  1.0000
  Ca  Ca1       1.0  0.4508790373802185  0.15551429986953735  0.9032163023948672  1.0000
  Ca  Ca2       1.0  0.9473794102668762  0.6391975283622742  0.24091723561286935  1.0000
  Ca  Ca3       1.0  0.44577234983444214  0.00016199180390685797  0.3827894926071167  1.0000
  Ge  Ge1       1.0  0.9628139138221741  0.6353355050086975  0.7565954923629761  1.0000
  Ge  Ge2       1.0  0.9469188451766968  0.15458324551582336  0.6396565437316895  1.0000
  Ni  Ni1       1.0  0.44511494040489197  0.9974064826965333  0.1253522634506227  1.0000
  Ni  Ni2       1.0  0.9513875246047974  0.9798957705497743  0.642760157585144  1.0000
  Ni  Ni3       1.0  0.4517776370048523  0.6439955234527588  0.27766442298889166  1.0000
