data_image0
_chemical_formula_structural       AsGaInLiLu3NpW2ZnZr
_chemical_formula_sum              "As1 Ga1 In1 Li1 Lu3 Np1 W2 Zn1 Zr1"
_cell_length_a       5.618394278814306
_cell_length_b       5.590875220022716
_cell_length_c       6.5956220626831055
_cell_angle_alpha    91.75426588234706
_cell_angle_beta     89.0426340309707
_cell_angle_gamma    90.34209756979116

_space_group_name_H-M_alt    "P 1"
_space_group_IT_number       1

loop_
  _space_group_symop_operation_xyz
  'x, y, z'

loop_
  _atom_site_type_symbol
  _atom_site_label
  _atom_site_symmetry_multiplicity
  _atom_site_fract_x
  _atom_site_fract_y
  _atom_site_fract_z
  _atom_site_occupancy
  As  As1       1.0  0.6025393009185791  0.7461726069450378  0.05053423345088959  1.0000
  Ga  Ga1       1.0  0.10013068467378616  0.364500492811203  0.3671078383922577  1.0000
  In  In1       1.0  0.5885626077651978  0.19151829183101654  0.7395938634872437  1.0000
  Li  Li1       1.0  0.09811931848526001  0.24684013426303864  0.08593927323818207  1.0000
  Lu  Lu1       1.0  0.06650080531835556  0.3940260708332062  0.1690293401479721  1.0000
  Lu  Lu2       1.0  0.11717043817043303  0.7152236700057983  0.003034051973372698  1.0000
  Lu  Lu3       1.0  0.5946276783943176  0.14960338175296783  0.55178701877594  1.0000
  Np  Np1       1.0  0.29386264085769653  0.9202609062194824  0.618381679058075  1.0000
  W   W1        1.0  0.5902974009513855  0.7907623648643494  0.00621127709746361  1.0000
  W   W2        1.0  0.5900688767433167  0.30988776683807373  0.5036067366600037  1.0000
  Zn  Zn1       1.0  0.08424113690853119  0.8907812833786011  0.999057412147522  1.0000
  Zr  Zr1       1.0  0.08884621411561966  0.6845353841781616  0.5983214378356934  1.0000
