data_image0
_chemical_formula_structural       HfLu2MnPrW3YZn2Zr
_chemical_formula_sum              "Hf1 Lu2 Mn1 Pr1 W3 Y1 Zn2 Zr1"
_cell_length_a       5.513967488072513
_cell_length_b       5.556114289508981
_cell_length_c       8.576056480407715
_cell_angle_alpha    89.86623828556509
_cell_angle_beta     89.36153282356887
_cell_angle_gamma    110.60750630777606

_space_group_name_H-M_alt    "P 1"
_space_group_IT_number       1

loop_
  _space_group_symop_operation_xyz
  'x, y, z'

loop_
  _atom_site_type_symbol
  _atom_site_label
  _atom_site_symmetry_multiplicity
  _atom_site_fract_x
  _atom_site_fract_y
  _atom_site_fract_z
  _atom_site_occupancy
  Hf  Hf1       1.0  0.05547904968261719  0.16477200388908386  0.8120710849761963  1.0000
  Lu  Lu1       1.0  0.5368836522102356  0.8239282965660095  0.9889858365058899  1.0000
  Lu  Lu2       1.0  0.5486798882484436  0.7967962026596069  0.7618497610092163  1.0000
  Mn  Mn1       1.0  0.026265734806656837  0.21911631524562836  0.002702732803300023  1.0000
  Pr  Pr1       1.0  0.04711122438311577  0.4254607558250427  0.3785519599914551  1.0000
  W   W1        1.0  0.8019918203353882  0.1314549744129181  0.021567586809396744  1.0000
  W   W2        1.0  0.03814299777150154  0.8522658348083496  0.38290074467658997  1.0000
  W   W3        1.0  0.5428953170776367  0.7360755801200867  0.7125306129455566  1.0000
  Y   Y1        1.0  0.5573219060897827  0.6322816014289856  0.07922592759132385  1.0000
  Zn  Zn1       1.0  0.5296468734741211  0.1980011761188507  0.5279207825660706  1.0000
  Zn  Zn2       1.0  0.04245781898498535  0.31385812163352966  0.5953736901283264  1.0000
  Zr  Zr1       1.0  0.540402352809906  0.7874219417572021  0.9516664743423462  1.0000
