data_image0
_chemical_formula_structural       CuO8WY2
_chemical_formula_sum              "Cu1 O8 W1 Y2"
_cell_length_a       5.19542794771139
_cell_length_b       5.513657111029252
_cell_length_c       5.799585342407227
_cell_angle_alpha    110.35669853417433
_cell_angle_beta     89.676088629715
_cell_angle_gamma    93.12432539157261

_space_group_name_H-M_alt    "P 1"
_space_group_IT_number       1

loop_
  _space_group_symop_operation_xyz
  'x, y, z'

loop_
  _atom_site_type_symbol
  _atom_site_label
  _atom_site_symmetry_multiplicity
  _atom_site_fract_x
  _atom_site_fract_y
  _atom_site_fract_z
  _atom_site_occupancy
  Cu  Cu1       1.0  0.3963278830051422  0.18136103451251984  0.6924034357070923  1.0000
  O   O1        1.0  0.9207184314727784  0.6680107712745667  0.4095843732357025  1.0000
  O   O2        1.0  0.6682758331298828  0.4811330139636994  0.7250543832778931  1.0000
  O   O3        1.0  0.6754369139671326  0.9706724286079408  0.059698987752199215  1.0000
  O   O4        1.0  0.31669992208480835  0.19316314160823822  0.24157872796058655  1.0000
  O   O5        1.0  0.3081173300743103  0.2110920697450638  0.9541127681732178  1.0000
  O   O6        1.0  0.5786001086235046  0.8213478326797486  0.736042857170105  1.0000
  O   O7        1.0  0.9524646997451783  0.07042799890041351  0.27841517329216003  1.0000
  O   O8        1.0  0.3053320646286011  0.3881760537624359  0.10848203301429751  1.0000
  W   W1        1.0  0.4042884409427643  0.9667422175407411  0.36783671379089367  1.0000
  Y   Y1        1.0  0.916925609111786  0.04729277640581131  0.7885718941688538  1.0000
  Y   Y2        1.0  0.8994717597961427  0.32853448390960693  0.08072473108768466  1.0000
