data_image0
_chemical_formula_structural       CGa2Lu3PW2ZnZr2
_chemical_formula_sum              "C1 Ga2 Lu3 P1 W2 Zn1 Zr2"
_cell_length_a       5.018892451163804
_cell_length_b       5.596358930649796
_cell_length_c       7.338978290557861
_cell_angle_alpha    84.09957070256597
_cell_angle_beta     79.15952235038701
_cell_angle_gamma    78.46799807025309

_space_group_name_H-M_alt    "P 1"
_space_group_IT_number       1

loop_
  _space_group_symop_operation_xyz
  'x, y, z'

loop_
  _atom_site_type_symbol
  _atom_site_label
  _atom_site_symmetry_multiplicity
  _atom_site_fract_x
  _atom_site_fract_y
  _atom_site_fract_z
  _atom_site_occupancy
  C   C1        1.0  0.9611482620239258  0.799662172794342  0.10846944153308868  1.0000
  Ga  Ga1       1.0  0.4692811965942383  0.6789193749427795  0.4603472352027893  1.0000
  Ga  Ga2       1.0  0.7980089783668518  0.9108067750930786  0.6486310362815857  1.0000
  Lu  Lu1       1.0  0.4703265130519867  0.36020132899284363  0.8661827445030212  1.0000
  Lu  Lu2       1.0  0.46483227610588074  0.7441782355308533  0.23435747623443604  1.0000
  Lu  Lu3       1.0  0.4728081226348877  0.1609950214624405  0.3904101550579071  1.0000
  P   P1        1.0  0.4542434513568878  0.6446828246116638  0.22501935064792633  1.0000
  W   W1        1.0  0.963138997554779  0.733378529548645  0.23142684996128082  1.0000
  W   W2        1.0  0.46473801136016846  0.1838594377040863  0.626089334487915  1.0000
  Zn  Zn1       1.0  0.463533878326416  0.013141640461981297  0.5405890345573425  1.0000
  Zr  Zr1       1.0  0.9612857699394226  0.5350638031959534  0.20083966851234436  1.0000
  Zr  Zr2       1.0  0.9663406014442444  0.227701798081398  0.0016996539197862148  1.0000
