data_image0
_chemical_formula_structural       CuO7W3Y
_chemical_formula_sum              "Cu1 O7 W3 Y1"
_cell_length_a       3.9800456865037916
_cell_length_b       5.571437257600371
_cell_length_c       5.515735626220703
_cell_angle_alpha    95.62452303641408
_cell_angle_beta     90.08767186774342
_cell_angle_gamma    86.53709655798748

_space_group_name_H-M_alt    "P 1"
_space_group_IT_number       1

loop_
  _space_group_symop_operation_xyz
  'x, y, z'

loop_
  _atom_site_type_symbol
  _atom_site_label
  _atom_site_symmetry_multiplicity
  _atom_site_fract_x
  _atom_site_fract_y
  _atom_site_fract_z
  _atom_site_occupancy
  Cu  Cu1       1.0  0.30618223547935486  0.43201714754104614  0.12158478051424028  1.0000
  O   O1        1.0  0.38253864645957947  0.8309361338615417  0.8107526302337648  1.0000
  O   O2        1.0  0.7127389311790466  0.4263400137424469  0.7061396837234497  1.0000
  O   O3        1.0  0.6519530415534973  0.08075857162475586  0.4697586297988892  1.0000
  O   O4        1.0  0.8488603234291077  0.5525159239768982  0.1121475249528885  1.0000
  O   O5        1.0  0.9110565781593323  0.8281607031822205  0.49181866645812994  1.0000
  O   O6        1.0  0.17568375170230865  0.03207356855273247  0.9620730280876161  1.0000
  O   O7        1.0  0.888671338558197  0.3475303649902344  0.9767417907714845  1.0000
  W   W1        1.0  0.4441562592983246  0.5498522520065308  0.8484105467796327  1.0000
  W   W2        1.0  0.33548837900161743  0.03847400099039078  0.48707506060600286  1.0000
  W   W3        1.0  0.8133137822151184  0.38832786679267883  0.3638218343257904  1.0000
  Y   Y1        1.0  0.34533292055130005  0.114191435277462  0.17034171521663666  1.0000
