data_image0
_chemical_formula_structural       AsGaLuNiPPb2W3ZnZr
_chemical_formula_sum              "As1 Ga1 Lu1 Ni1 P1 Pb2 W3 Zn1 Zr1"
_cell_length_a       5.359597672332608
_cell_length_b       5.478772981883315
_cell_length_c       6.862268924713135
_cell_angle_alpha    89.71478116348389
_cell_angle_beta     89.91635425824222
_cell_angle_gamma    91.02897394968039

_space_group_name_H-M_alt    "P 1"
_space_group_IT_number       1

loop_
  _space_group_symop_operation_xyz
  'x, y, z'

loop_
  _atom_site_type_symbol
  _atom_site_label
  _atom_site_symmetry_multiplicity
  _atom_site_fract_x
  _atom_site_fract_y
  _atom_site_fract_z
  _atom_site_occupancy
  As  As1       1.0  0.6731135249137878  0.3454902470111847  0.10444875806570053  1.0000
  Ga  Ga1       1.0  0.6570342183113098  0.9585558772087097  0.9990221261978149  1.0000
  Lu  Lu1       1.0  0.1723136454820633  0.33798158168792725  0.8032885193824768  1.0000
  Ni  Ni1       1.0  0.18605920672416687  0.9430241584777832  0.5478494167327881  1.0000
  P   P1        1.0  0.6567461490631104  0.8376732468605042  0.9889644980430603  1.0000
  Pb  Pb1       1.0  0.66547030210495  0.3313243091106415  0.9220205545425415  1.0000
  Pb  Pb2       1.0  0.662807047367096  0.1806548535823822  0.24674451351165771  1.0000
  W   W1        1.0  0.16178736090660095  0.595744788646698  0.03746335208415985  1.0000
  W   W2        1.0  0.1762862652540207  0.6432196497917175  0.5770077705383301  1.0000
  W   W3        1.0  0.6408130526542664  0.9282090663909912  0.1286475509405136  1.0000
  Zn  Zn1       1.0  0.996261477470398  0.6749887466430664  0.6245837211608887  1.0000
  Zr  Zr1       1.0  0.9143528938293457  0.9334657788276672  0.656600832939148  1.0000
