data_image0
_chemical_formula_structural       P2PbPd3Pt
_chemical_formula_sum              "P2 Pb1 Pd3 Pt1"
_cell_length_a       5.556347661751966
_cell_length_b       5.88864309114664
_cell_length_c       5.790523529052734
_cell_angle_alpha    63.62841847706902
_cell_angle_beta     59.74491451780197
_cell_angle_gamma    63.58238481569002

_space_group_name_H-M_alt    "P 1"
_space_group_IT_number       1

loop_
  _space_group_symop_operation_xyz
  'x, y, z'

loop_
  _atom_site_type_symbol
  _atom_site_label
  _atom_site_symmetry_multiplicity
  _atom_site_fract_x
  _atom_site_fract_y
  _atom_site_fract_z
  _atom_site_occupancy
  P   P1        1.0  0.5384848713874817  0.1620257943868637  0.2378076612949371  1.0000
  P   P2        1.0  0.20030577480793  0.02822607383131981  0.22493599355220795  1.0000
  Pb  Pb1       1.0  0.6442099213600159  0.013448396697640419  0.4108643829822541  1.0000
  Pd  Pd1       1.0  0.16851168870925903  0.5512074828147888  0.8844440579414368  1.0000
  Pd  Pd2       1.0  0.87842857837677  0.9673261046409607  0.23116323351860044  1.0000
  Pd  Pd3       1.0  0.11864738911390306  0.23754706978797913  0.8433291912078857  1.0000
  Pt  Pt1       1.0  0.6232147812843323  0.8270584940910339  0.9240663051605223  1.0000
