data_image0
_chemical_formula_structural       PPd3Ru2Zn
_chemical_formula_sum              "P1 Pd3 Ru2 Zn1"
_cell_length_a       5.404660537537053
_cell_length_b       5.802049025822167
_cell_length_c       5.959812164306641
_cell_angle_alpha    77.73832307844593
_cell_angle_beta     70.9555860028726
_cell_angle_gamma    72.37901600148938

_space_group_name_H-M_alt    "P 1"
_space_group_IT_number       1

loop_
  _space_group_symop_operation_xyz
  'x, y, z'

loop_
  _atom_site_type_symbol
  _atom_site_label
  _atom_site_symmetry_multiplicity
  _atom_site_fract_x
  _atom_site_fract_y
  _atom_site_fract_z
  _atom_site_occupancy
  P   P1        1.0  0.5822834372520447  0.9857635498046875  0.5032093524932861  1.0000
  Pd  Pd1       1.0  0.29141807556152344  0.9411467909812927  0.7434674501419067  1.0000
  Pd  Pd2       1.0  0.2484821081161499  0.14707253873348236  0.5869497656822205  1.0000
  Pd  Pd3       1.0  0.7848379611968994  0.6827097535133362  0.7177236676216125  1.0000
  Ru  Ru1       1.0  0.7583023905754089  0.18404565751552582  0.26906514167785645  1.0000
  Ru  Ru2       1.0  0.7684682607650757  0.4429314434528351  0.6112608313560486  1.0000
  Zn  Zn1       1.0  0.26195836067199707  0.13828052580356598  0.6682312488555908  1.0000
