data_image0
_chemical_formula_structural       CeFeGe6SbTmZn
_chemical_formula_sum              "Ce1 Fe1 Ge6 Sb1 Tm1 Zn1"
_cell_length_a       7.047566422376346
_cell_length_b       7.261136506558599
_cell_length_c       8.934228897094727
_cell_angle_alpha    90.68011173506063
_cell_angle_beta     90.41410236296045
_cell_angle_gamma    89.85711170930011

_space_group_name_H-M_alt    "P 1"
_space_group_IT_number       1

loop_
  _space_group_symop_operation_xyz
  'x, y, z'

loop_
  _atom_site_type_symbol
  _atom_site_label
  _atom_site_symmetry_multiplicity
  _atom_site_fract_x
  _atom_site_fract_y
  _atom_site_fract_z
  _atom_site_occupancy
  Ce  Ce1       1.0  0.5337598919868469  0.8148044347763062  0.8920045495033264  1.0000
  Fe  Fe1       1.0  0.9686573147773743  0.8028072118759155  0.8485669493675232  1.0000
  Ge  Ge1       1.0  0.20091819763183594  0.682216227054596  0.005379801616072655  1.0000
  Ge  Ge2       1.0  0.28032568097114563  0.5255327224731445  0.29382652044296265  1.0000
  Ge  Ge3       1.0  0.023410430178046227  0.7094991207122803  0.22277472913265228  1.0000
  Ge  Ge4       1.0  0.008310677483677864  0.7724970579147339  0.37923306226730347  1.0000
  Ge  Ge5       1.0  0.959152102470398  0.10052676498889923  0.8747640252113342  1.0000
  Ge  Ge6       1.0  0.6884163022041321  0.15850958228111267  0.16408848762512207  1.0000
  Sb  Sb1       1.0  0.5256444811820984  0.29229289293289185  0.7590193152427673  1.0000
  Tm  Tm1       1.0  0.9458649754524231  0.4378831386566162  0.551191508769989  1.0000
  Zn  Zn1       1.0  0.46640047430992126  0.6010029911994934  0.44350382685661316  1.0000
