data_image0
_chemical_formula_structural       Ge3Mg2PbReSeTm3
_chemical_formula_sum              "Ge3 Mg2 Pb1 Re1 Se1 Tm3"
_cell_length_a       5.066302370739029
_cell_length_b       8.86440140875226
_cell_length_c       9.047825813293457
_cell_angle_alpha    123.85121025637014
_cell_angle_beta     89.97334904712693
_cell_angle_gamma    90.88637206474444

_space_group_name_H-M_alt    "P 1"
_space_group_IT_number       1

loop_
  _space_group_symop_operation_xyz
  'x, y, z'

loop_
  _atom_site_type_symbol
  _atom_site_label
  _atom_site_symmetry_multiplicity
  _atom_site_fract_x
  _atom_site_fract_y
  _atom_site_fract_z
  _atom_site_occupancy
  Ge  Ge1       1.0  0.16373522579669952  0.054822400212287896  0.704149067401886  1.0000
  Ge  Ge2       1.0  0.38968712091445923  0.18423953652381897  0.004285850096493947  1.0000
  Ge  Ge3       1.0  0.16216807067394257  0.7069717049598694  0.3764835596084594  1.0000
  Mg  Mg1       1.0  0.17238841950893402  0.4563243091106414  0.9813313484191895  1.0000
  Mg  Mg2       1.0  0.6656244397163391  0.15916158258914948  0.9651074409484863  1.0000
  Pb  Pb1       1.0  0.6753190159797668  0.5159841775894165  0.5323883295059204  1.0000
  Re  Re1       1.0  0.16898295283317566  0.4578635990619659  0.044718321412801694  1.0000
  Se  Se1       1.0  0.17359034717082977  0.8066021203994751  0.5996662378311157  1.0000
  Tm  Tm1       1.0  0.1765722632408142  0.7822584509849548  0.41858956217765797  1.0000
  Tm  Tm2       1.0  0.667237401008606  0.3632650375366211  0.9014443159103394  1.0000
  Tm  Tm3       1.0  0.6703764796257019  0.2862490713596344  0.41019657254219055  1.0000
