data_image0
_chemical_formula_structural       Fe4Ge4Tm3
_chemical_formula_sum              "Fe4 Ge4 Tm3"
_cell_length_a       4.7296789883739745
_cell_length_b       6.089323954638867
_cell_length_c       6.436212062835693
_cell_angle_alpha    91.59826606727525
_cell_angle_beta     95.14307318814112
_cell_angle_gamma    117.9288863909636

_space_group_name_H-M_alt    "P 1"
_space_group_IT_number       1

loop_
  _space_group_symop_operation_xyz
  'x, y, z'

loop_
  _atom_site_type_symbol
  _atom_site_label
  _atom_site_symmetry_multiplicity
  _atom_site_fract_x
  _atom_site_fract_y
  _atom_site_fract_z
  _atom_site_occupancy
  Fe  Fe1       1.0  0.2781391143798828  0.4724706709384918  0.35036036372184753  1.0000
  Fe  Fe2       1.0  0.7313169836997986  0.38931483030319214  0.7776144742965698  1.0000
  Fe  Fe3       1.0  0.2020357847213745  0.5416907668113708  0.3067471981048584  1.0000
  Fe  Fe4       1.0  0.30139610171318054  0.2555655241012573  0.9503598213195801  1.0000
  Ge  Ge1       1.0  0.7264750599861145  0.49615541100502014  0.3852589726448059  1.0000
  Ge  Ge2       1.0  0.8036081194877625  0.30137428641319275  0.1051054522395134  1.0000
  Ge  Ge3       1.0  0.49550923705101013  0.6371053457260132  0.45879971981048584  1.0000
  Ge  Ge4       1.0  0.06972217559814453  0.03787414729595184  0.3093612790107727  1.0000
  Tm  Tm1       1.0  0.7726089954376221  0.5330042839050293  0.047802507877349854  1.0000
  Tm  Tm2       1.0  0.7126685380935669  0.5363539457321167  0.0643756315112114  1.0000
  Tm  Tm3       1.0  0.7897549271583557  0.2866593301296234  0.7935599088668823  1.0000
