data_image0
_chemical_formula_structural       CFeGe5TiTm3
_chemical_formula_sum              "C1 Fe1 Ge5 Ti1 Tm3"
_cell_length_a       4.66447074200186
_cell_length_b       6.290037699278971
_cell_length_c       8.259395599365234
_cell_angle_alpha    90.24320112416135
_cell_angle_beta     90.42973798038452
_cell_angle_gamma    94.81583677138356

_space_group_name_H-M_alt    "P 1"
_space_group_IT_number       1

loop_
  _space_group_symop_operation_xyz
  'x, y, z'

loop_
  _atom_site_type_symbol
  _atom_site_label
  _atom_site_symmetry_multiplicity
  _atom_site_fract_x
  _atom_site_fract_y
  _atom_site_fract_z
  _atom_site_occupancy
  C   C1        1.0  0.2963450253009796  0.6634272933006287  0.7832816243171692  1.0000
  Fe  Fe1       1.0  0.7916475534439087  0.95305997133255  0.43711137771606445  1.0000
  Ge  Ge1       1.0  0.7989329099655151  0.5893350839614868  0.5423977971076965  1.0000
  Ge  Ge2       1.0  0.8021311163902283  0.8660346865653992  0.34197115898132324  1.0000
  Ge  Ge3       1.0  0.7933881878852844  0.48921433091163635  0.13797250390052795  1.0000
  Ge  Ge4       1.0  0.28417491912841797  0.7343210577964783  0.9351375102996826  1.0000
  Ge  Ge5       1.0  0.2964247763156891  0.9973533749580383  0.8002967238426208  1.0000
  Ti  Ti1       1.0  0.295768678188324  0.48079878091812134  0.2119406908750534  1.0000
  Tm  Tm1       1.0  0.29103127121925354  0.6114857196807861  0.1305413842201233  1.0000
  Tm  Tm2       1.0  0.2934027314186096  0.48548758029937744  0.9213954210281372  1.0000
  Tm  Tm3       1.0  0.8040199875831604  0.058788999915122986  0.30547913908958435  1.0000
