data_image0
_chemical_formula_structural       Fe4Ge3Tm4
_chemical_formula_sum              "Fe4 Ge3 Tm4"
_cell_length_a       4.5351154924478205
_cell_length_b       6.73022327601142
_cell_length_c       7.1484375
_cell_angle_alpha    99.12804700616365
_cell_angle_beta     97.84849340297289
_cell_angle_gamma    93.89695653530697

_space_group_name_H-M_alt    "P 1"
_space_group_IT_number       1

loop_
  _space_group_symop_operation_xyz
  'x, y, z'

loop_
  _atom_site_type_symbol
  _atom_site_label
  _atom_site_symmetry_multiplicity
  _atom_site_fract_x
  _atom_site_fract_y
  _atom_site_fract_z
  _atom_site_occupancy
  Fe  Fe1       1.0  0.14619584381580353  0.5058053135871887  0.4294036030769348  1.0000
  Fe  Fe2       1.0  0.1272938996553421  0.516982913017273  0.5560160279273987  1.0000
  Fe  Fe3       1.0  0.625798225402832  0.5865797996520996  0.9127994775772095  1.0000
  Fe  Fe4       1.0  0.621016263961792  0.6396673321723939  0.288629412651062  1.0000
  Ge  Ge1       1.0  0.12983359396457672  0.48115420341491705  0.37514829635620117  1.0000
  Ge  Ge2       1.0  0.6226645708084106  0.5152251124382019  0.5993304252624512  1.0000
  Ge  Ge3       1.0  0.11834287643432617  0.21121792495250705  0.5610090494155884  1.0000
  Tm  Tm1       1.0  0.6273803114891052  0.592217206954956  0.16293293237686157  1.0000
  Tm  Tm2       1.0  0.6231767535209656  0.700943946838379  0.2630155682563782  1.0000
  Tm  Tm3       1.0  0.6186140775680542  0.13486139476299286  0.7915434837341309  1.0000
  Tm  Tm4       1.0  0.11853989958763123  0.7135884165763856  0.16707691550254822  1.0000
