data_image0
_chemical_formula_structural       Fe2GaGe6NpTm
_chemical_formula_sum              "Fe2 Ga1 Ge6 Np1 Tm1"
_cell_length_a       5.829022733670366
_cell_length_b       5.4507342411079
_cell_length_c       8.113079071044922
_cell_angle_alpha    94.41445320690539
_cell_angle_beta     94.2816312791706
_cell_angle_gamma    121.86565473676914

_space_group_name_H-M_alt    "P 1"
_space_group_IT_number       1

loop_
  _space_group_symop_operation_xyz
  'x, y, z'

loop_
  _atom_site_type_symbol
  _atom_site_label
  _atom_site_symmetry_multiplicity
  _atom_site_fract_x
  _atom_site_fract_y
  _atom_site_fract_z
  _atom_site_occupancy
  Fe  Fe1       1.0  0.7220113277435303  0.9849364757537842  0.3979441225528717  1.0000
  Fe  Fe2       1.0  0.0190796609967947  0.9721232652664185  0.8208872079849243  1.0000
  Ga  Ga1       1.0  0.28645020723342896  0.9044040441513062  0.5253946781158447  1.0000
  Ge  Ge1       1.0  0.758586049079895  0.12630313634872437  0.8455232381820679  1.0000
  Ge  Ge2       1.0  0.768199622631073  0.2423771172761917  0.969589114189148  1.0000
  Ge  Ge3       1.0  0.678796112537384  0.10390766710042953  0.5179154872894287  1.0000
  Ge  Ge4       1.0  0.3016017973423004  0.264384925365448  0.5116474032402039  1.0000
  Ge  Ge5       1.0  0.2732793092727661  0.9872655272483826  0.5611535310745239  1.0000
  Ge  Ge6       1.0  0.22698082029819489  0.8132774233818054  0.36704733967781067  1.0000
  Np  Np1       1.0  0.2947124242782593  0.5262413620948792  0.11604901403188705  1.0000
  Tm  Tm1       1.0  0.7720100283622742  0.2041250616312027  0.8158988356590271  1.0000
