data_image0
_chemical_formula_structural       Sb7ScSi
_chemical_formula_sum              "Sb7 Sc1 Si1"
_cell_length_a       4.969666541349458
_cell_length_b       5.967907578998885
_cell_length_c       7.721988201141357
_cell_angle_alpha    111.11563479515458
_cell_angle_beta     103.55674068990629
_cell_angle_gamma    89.5493592891181

_space_group_name_H-M_alt    "P 1"
_space_group_IT_number       1

loop_
  _space_group_symop_operation_xyz
  'x, y, z'

loop_
  _atom_site_type_symbol
  _atom_site_label
  _atom_site_symmetry_multiplicity
  _atom_site_fract_x
  _atom_site_fract_y
  _atom_site_fract_z
  _atom_site_occupancy
  Sb  Sb1       1.0  0.04705490544438362  0.7070211172103882  0.9326732158660888  1.0000
  Sb  Sb2       1.0  0.8828006982803345  0.05988685041666031  0.7300023436546325  1.0000
  Sb  Sb3       1.0  0.1949736773967743  0.8620635271072388  0.47754845023155207  1.0000
  Sb  Sb4       1.0  0.5734879970550537  0.8669745326042175  0.08063156157732003  1.0000
  Sb  Sb5       1.0  0.03160317242145538  0.3442232012748718  0.2889388799667358  1.0000
  Sb  Sb6       1.0  0.040129341185092926  0.22135576605796814  0.044427134096622446  1.0000
  Sb  Sb7       1.0  0.5644577741622925  0.8590798377990723  0.19098898768424985  1.0000
  Sc  Sc1       1.0  0.4188351631164551  0.5390483736991882  0.5763360857963561  1.0000
  Si  Si1       1.0  0.5500787496566772  0.9537748098373413  0.07666905969381325  1.0000
