data_image0
_chemical_formula_structural       CdSSb6Tb
_chemical_formula_sum              "Cd1 S1 Sb6 Tb1"
_cell_length_a       5.238649404649443
_cell_length_b       5.75691455046454
_cell_length_c       9.866989135742188
_cell_angle_alpha    91.48669200097288
_cell_angle_beta     89.21159562322343
_cell_angle_gamma    111.01642273172483

_space_group_name_H-M_alt    "P 1"
_space_group_IT_number       1

loop_
  _space_group_symop_operation_xyz
  'x, y, z'

loop_
  _atom_site_type_symbol
  _atom_site_label
  _atom_site_symmetry_multiplicity
  _atom_site_fract_x
  _atom_site_fract_y
  _atom_site_fract_z
  _atom_site_occupancy
  Cd  Cd1       1.0  0.24061852693557742  0.22823859751224518  0.5107229351997375  1.0000
  S   S1        1.0  0.13855241239070892  0.8755026459693909  0.7321932315826416  1.0000
  Sb  Sb1       1.0  0.8357220888137818  0.71933513879776  0.5797117352485657  1.0000
  Sb  Sb2       1.0  0.14871461689472198  0.7171034812927246  0.21852129697799685  1.0000
  Sb  Sb3       1.0  0.8107371330261232  0.2180994153022766  0.24065944552421567  1.0000
  Sb  Sb4       1.0  0.5674463510513306  0.7174785733222961  0.23215453326702115  1.0000
  Sb  Sb5       1.0  0.44907996058464056  0.2103116363286972  0.9584476351737975  1.0000
  Sb  Sb6       1.0  0.8217759132385255  0.21553583443164825  0.23783369362354276  1.0000
  Tb  Tb1       1.0  0.15732598304748535  0.24157361686229706  0.7358923554420471  1.0000
