data_image0
_chemical_formula_structural       FSb8
_chemical_formula_sum              "F1 Sb8"
_cell_length_a       4.788188369647868
_cell_length_b       5.499044218243368
_cell_length_c       9.976356506347656
_cell_angle_alpha    92.93000093472314
_cell_angle_beta     88.49264523083933
_cell_angle_gamma    107.71442145102249

_space_group_name_H-M_alt    "P 1"
_space_group_IT_number       1

loop_
  _space_group_symop_operation_xyz
  'x, y, z'

loop_
  _atom_site_type_symbol
  _atom_site_label
  _atom_site_symmetry_multiplicity
  _atom_site_fract_x
  _atom_site_fract_y
  _atom_site_fract_z
  _atom_site_occupancy
  F   F1        1.0  0.13357414305210114  0.07185868918895721  0.6719889044761658  1.0000
  Sb  Sb1       1.0  0.4594687521457672  0.7793470025062561  0.020665012300014496  1.0000
  Sb  Sb2       1.0  0.8088216781616211  0.4714184105396271  0.24476467072963715  1.0000
  Sb  Sb3       1.0  0.945813775062561  0.784654974937439  0.6752914190292358  1.0000
  Sb  Sb4       1.0  0.13595831394195557  0.06896239519119263  0.11366798728704453  1.0000
  Sb  Sb5       1.0  0.1671384572982788  0.5657715797424316  0.48628801107406616  1.0000
  Sb  Sb6       1.0  0.45888960361480713  0.4647796154022217  0.7723286747932434  1.0000
  Sb  Sb7       1.0  0.470721960067749  0.8189229965209961  0.7094236612319946  1.0000
  Sb  Sb8       1.0  0.12418408691883087  0.23568099737167358  0.8126116991043091  1.0000
