data_image0
_chemical_formula_structural       CaCr3Sb5
_chemical_formula_sum              "Ca1 Cr3 Sb5"
_cell_length_a       3.6703492913657945
_cell_length_b       5.981768009962657
_cell_length_c       7.814329147338867
_cell_angle_alpha    93.93504847409541
_cell_angle_beta     87.6779610135319
_cell_angle_gamma    88.7543763440925

_space_group_name_H-M_alt    "P 1"
_space_group_IT_number       1

loop_
  _space_group_symop_operation_xyz
  'x, y, z'

loop_
  _atom_site_type_symbol
  _atom_site_label
  _atom_site_symmetry_multiplicity
  _atom_site_fract_x
  _atom_site_fract_y
  _atom_site_fract_z
  _atom_site_occupancy
  Ca  Ca1       1.0  0.6706278920173645  0.40888744592666626  0.03252485394477844  1.0000
  Cr  Cr1       1.0  0.17056147754192352  0.670059323310852  0.7469222545623779  1.0000
  Cr  Cr2       1.0  0.6679964065551758  0.0708950087428093  0.6752521991729736  1.0000
  Cr  Cr3       1.0  0.677253782749176  0.4033665359020233  0.5011860132217407  1.0000
  Sb  Sb1       1.0  0.17108666896820068  0.0466630682349205  0.3853229880332947  1.0000
  Sb  Sb2       1.0  0.6631332635879517  0.45722007751464844  0.7976924777030945  1.0000
  Sb  Sb3       1.0  0.17465239763259888  0.40041202306747437  0.5228034853935242  1.0000
  Sb  Sb4       1.0  0.6868769526481628  0.895067572593689  0.17255930602550507  1.0000
  Sb  Sb5       1.0  0.6728339791297913  0.4008110463619232  0.06717293709516525  1.0000
