data_image0
_chemical_formula_structural       CoCr2Sb6
_chemical_formula_sum              "Co1 Cr2 Sb6"
_cell_length_a       4.57926975943633
_cell_length_b       4.540920147426643
_cell_length_c       8.626058578491211
_cell_angle_alpha    97.14557777523666
_cell_angle_beta     91.36162766979699
_cell_angle_gamma    124.28933204605836

_space_group_name_H-M_alt    "P 1"
_space_group_IT_number       1

loop_
  _space_group_symop_operation_xyz
  'x, y, z'

loop_
  _atom_site_type_symbol
  _atom_site_label
  _atom_site_symmetry_multiplicity
  _atom_site_fract_x
  _atom_site_fract_y
  _atom_site_fract_z
  _atom_site_occupancy
  Co  Co1       1.0  0.9198935627937317  0.8948346376419066  0.5079359412193298  1.0000
  Cr  Cr1       1.0  0.6979681849479675  0.25288495421409607  0.01200578641146421  1.0000
  Cr  Cr2       1.0  0.169275626540184  0.755557358264923  0.8957048654556273  1.0000
  Sb  Sb1       1.0  0.5680018067359923  0.8231106400489806  0.9331576228141785  1.0000
  Sb  Sb2       1.0  0.4174686670303344  0.9054821133613585  0.13689126074314117  1.0000
  Sb  Sb3       1.0  0.8972607851028442  0.41173151135444636  0.0016402006149291927  1.0000
  Sb  Sb4       1.0  0.8944522738456726  0.3924965858459472  0.8367822170257568  1.0000
  Sb  Sb5       1.0  0.5692871809005736  0.8732220530509948  0.40269768238067627  1.0000
  Sb  Sb6       1.0  0.5748976469039917  0.38663324713706965  0.511296808719635  1.0000
