data_image0
_chemical_formula_structural       CaCr2Sb6
_chemical_formula_sum              "Ca1 Cr2 Sb6"
_cell_length_a       4.714871411007206
_cell_length_b       5.47113943608194
_cell_length_c       8.990806579589844
_cell_angle_alpha    89.09440346026598
_cell_angle_beta     89.6108967131015
_cell_angle_gamma    118.68390025815474

_space_group_name_H-M_alt    "P 1"
_space_group_IT_number       1

loop_
  _space_group_symop_operation_xyz
  'x, y, z'

loop_
  _atom_site_type_symbol
  _atom_site_label
  _atom_site_symmetry_multiplicity
  _atom_site_fract_x
  _atom_site_fract_y
  _atom_site_fract_z
  _atom_site_occupancy
  Ca  Ca1       1.0  0.27267056703567505  0.5501532554626465  0.3897666335105896  1.0000
  Cr  Cr1       1.0  0.9324465394020081  0.3482615649700165  0.881890594959259  1.0000
  Cr  Cr2       1.0  0.14875654876232147  0.8054405450820923  0.0679817795753479  1.0000
  Sb  Sb1       1.0  0.27538639307022095  0.13520586490631104  0.42301180958747864  1.0000
  Sb  Sb2       1.0  0.6423822045326233  0.6314510107040405  0.4162055552005768  1.0000
  Sb  Sb3       1.0  0.9271581768989563  0.6654239892959595  0.09008355438709259  1.0000
  Sb  Sb4       1.0  0.26239123940467834  0.10309760272502899  0.5875635743141174  1.0000
  Sb  Sb5       1.0  0.44618433713912964  0.34043413400650024  0.0945444405078888  1.0000
  Sb  Sb6       1.0  0.6268301606178284  0.8116245269775391  0.3812122344970703  1.0000
