data_image0
_chemical_formula_structural       Cd2Na2O5SeSi5
_chemical_formula_sum              "Cd2 Na2 O5 Se1 Si5"
_cell_length_a       6.095747641115423
_cell_length_b       7.088664638081076
_cell_length_c       7.268338680267334
_cell_angle_alpha    68.03153572152647
_cell_angle_beta     65.7277813122025
_cell_angle_gamma    68.94129005676312

_space_group_name_H-M_alt    "P 1"
_space_group_IT_number       1

loop_
  _space_group_symop_operation_xyz
  'x, y, z'

loop_
  _atom_site_type_symbol
  _atom_site_label
  _atom_site_symmetry_multiplicity
  _atom_site_fract_x
  _atom_site_fract_y
  _atom_site_fract_z
  _atom_site_occupancy
  Cd  Cd1       1.0  0.7521209120750427  0.24920052289962769  0.5518919229507446  1.0000
  Cd  Cd2       1.0  0.37022465467453003  0.28923696279525757  0.29890087246894836  1.0000
  Na  Na1       1.0  0.28699740767478943  0.2417823076248169  0.5631731748580933  1.0000
  Na  Na2       1.0  0.816582441329956  0.707501232624054  0.9437620639801025  1.0000
  O   O1        1.0  0.41035106778144836  0.6063446998596191  0.23376601934432983  1.0000
  O   O2        1.0  0.7035831212997437  0.9948927760124207  0.878611147403717  1.0000
  O   O3        1.0  0.17598114907741547  0.34709346294403076  0.7139862775802612  1.0000
  O   O4        1.0  0.04340082406997681  0.07528318464756012  0.039952632039785385  1.0000
  O   O5        1.0  0.8125324845314026  0.4948602318763733  0.2405270785093307  1.0000
  Se  Se1       1.0  0.8475218415260315  0.9872459769248962  0.847676157951355  1.0000
  Si  Si1       1.0  0.301492303609848  0.1679389327764511  0.24601957201957703  1.0000
  Si  Si2       1.0  0.6739261150360107  0.8229254484176636  0.42841866612434387  1.0000
  Si  Si3       1.0  0.9561920762062073  0.13823647797107697  0.8888282179832458  1.0000
  Si  Si4       1.0  0.20162566006183624  0.5888618230819702  0.1568504422903061  1.0000
  Si  Si5       1.0  0.7793430089950562  0.5292713642120361  0.32915452122688293  1.0000
