data_image0
_chemical_formula_structural       Cd2Na3O5Si5
_chemical_formula_sum              "Cd2 Na3 O5 Si5"
_cell_length_a       5.363366643593695
_cell_length_b       7.047413289864541
_cell_length_c       7.760707855224609
_cell_angle_alpha    74.91460259644276
_cell_angle_beta     71.15896323886469
_cell_angle_gamma    71.96731655171375

_space_group_name_H-M_alt    "P 1"
_space_group_IT_number       1

loop_
  _space_group_symop_operation_xyz
  'x, y, z'

loop_
  _atom_site_type_symbol
  _atom_site_label
  _atom_site_symmetry_multiplicity
  _atom_site_fract_x
  _atom_site_fract_y
  _atom_site_fract_z
  _atom_site_occupancy
  Cd  Cd1       1.0  0.08495625108480453  0.47956815361976624  0.44171440601348877  1.0000
  Cd  Cd2       1.0  0.5387976765632629  0.5150622725486755  0.6098671555519104  1.0000
  Na  Na1       1.0  0.8084900975227356  0.47454217076301575  0.7041801810264587  1.0000
  Na  Na2       1.0  0.3739141523838043  0.9007559418678284  0.009351820684969425  1.0000
  Na  Na3       1.0  0.8638744950294495  0.059984855353832245  0.3282507359981537  1.0000
  O   O1        1.0  0.11753159761428833  0.8025919198989868  0.04985378682613373  1.0000
  O   O2        1.0  0.6452932953834534  0.9752129912376404  0.39606988430023193  1.0000
  O   O3        1.0  0.42103999853134155  0.7976900339126587  0.03921104967594147  1.0000
  O   O4        1.0  0.8821846842765808  0.47718220949172974  0.8260571956634521  1.0000
  O   O5        1.0  0.12813201546669006  0.30978813767433167  0.7614974975585938  1.0000
  Si  Si1       1.0  0.6800479292869568  0.17062905430793762  0.6694543361663818  1.0000
  Si  Si2       1.0  0.038938287645578384  0.024110546335577965  0.18611687421798706  1.0000
  Si  Si3       1.0  0.5093254446983337  0.514258086681366  0.150198832154274  1.0000
  Si  Si4       1.0  0.8084682822227478  0.2710159718990326  0.5918300747871399  1.0000
  Si  Si5       1.0  0.2664296329021454  0.7620022892951965  0.6142251491546631  1.0000
