data_image0
_chemical_formula_structural       Cd3NaO6Os2Si3
_chemical_formula_sum              "Cd3 Na1 O6 Os2 Si3"
_cell_length_a       4.377641781295757
_cell_length_b       7.219781369175791
_cell_length_c       7.392080783843994
_cell_angle_alpha    123.65823302677234
_cell_angle_beta     78.21418181653554
_cell_angle_gamma    87.59521721582838

_space_group_name_H-M_alt    "P 1"
_space_group_IT_number       1

loop_
  _space_group_symop_operation_xyz
  'x, y, z'

loop_
  _atom_site_type_symbol
  _atom_site_label
  _atom_site_symmetry_multiplicity
  _atom_site_fract_x
  _atom_site_fract_y
  _atom_site_fract_z
  _atom_site_occupancy
  Cd  Cd1       1.0  0.0958533063530922  0.20389993488788608  0.21461540460586545  1.0000
  Cd  Cd2       1.0  0.5894347429275513  0.08062033355236053  0.4358780086040496  1.0000
  Cd  Cd3       1.0  0.616155743598938  0.3351577818393707  0.3978259861469268  1.0000
  Na  Na1       1.0  0.10496652126312256  0.5958072543144226  0.5633929967880249  1.0000
  O   O1        1.0  0.09102162718772888  0.5758604407310486  0.734049081802368  1.0000
  O   O2        1.0  0.6202038526535034  0.7203837037086487  0.061883989721536574  1.0000
  O   O3        1.0  0.09216920286417007  0.18441057205200198  0.7391420006752013  1.0000
  O   O4        1.0  0.6161279678344727  0.5799577236175537  0.8019282817840575  1.0000
  O   O5        1.0  0.12455777823925018  0.37312942743301397  0.5320317149162292  1.0000
  O   O6        1.0  0.6363272666931152  0.5362235903739929  0.14932116866111755  1.0000
  Os  Os1       1.0  0.616362988948822  0.13336081802845  0.1682430803775787  1.0000
  Os  Os2       1.0  0.11087825894355771  0.8038771748542787  0.8077105879783629  1.0000
  Si  Si1       1.0  0.11847072094678879  0.30924445390701294  0.34300470352172846  1.0000
  Si  Si2       1.0  0.12260615080595014  0.8020977973937989  0.2523359954357147  1.0000
  Si  Si3       1.0  0.6166284680366516  0.045106396079063416  0.5202916264533997  1.0000
