data_image0
_chemical_formula_structural       Cd2NaO7Si5
_chemical_formula_sum              "Cd2 Na1 O7 Si5"
_cell_length_a       6.120231611530614
_cell_length_b       7.44382439218886
_cell_length_c       7.778604030609131
_cell_angle_alpha    69.48221262780122
_cell_angle_beta     66.29886022132419
_cell_angle_gamma    67.86032407096319

_space_group_name_H-M_alt    "P 1"
_space_group_IT_number       1

loop_
  _space_group_symop_operation_xyz
  'x, y, z'

loop_
  _atom_site_type_symbol
  _atom_site_label
  _atom_site_symmetry_multiplicity
  _atom_site_fract_x
  _atom_site_fract_y
  _atom_site_fract_z
  _atom_site_occupancy
  Cd  Cd1       1.0  0.5744478702545166  0.3452908992767334  0.5809104442596436  1.0000
  Cd  Cd2       1.0  0.8064213395118714  0.09193623811006546  0.054524168372154236  1.0000
  Na  Na1       1.0  0.5081022381782532  0.21150438487529755  0.6208159923553467  1.0000
  O   O1        1.0  0.1691700518131256  0.987593412399292  0.3041441738605499  1.0000
  O   O2        1.0  0.4057587087154389  0.0632263794541359  0.44040247797966003  1.0000
  O   O3        1.0  0.8974617123603822  0.3955550193786621  0.27517077326774597  1.0000
  O   O4        1.0  0.17710983753204346  0.6308812499046326  0.9474626779556274  1.0000
  O   O5        1.0  0.33101892471313477  0.6260895729064941  0.28309258818626404  1.0000
  O   O6        1.0  0.9116921424865724  0.07998405396938324  0.797586977481842  1.0000
  O   O7        1.0  0.643843412399292  0.04588742181658745  0.9721157550811766  1.0000
  Si  Si1       1.0  0.03802318498492241  0.9709653258323669  0.6988022327423096  1.0000
  Si  Si2       1.0  0.24010063707828525  0.8119583129882812  0.7774892449378967  1.0000
  Si  Si3       1.0  0.5063368082046509  0.5410296320915222  0.5566331148147583  1.0000
  Si  Si4       1.0  0.1893332302570343  0.49675819277763367  0.2945120930671692  1.0000
  Si  Si5       1.0  0.43151175975799566  0.6480836868286133  0.7569675445556641  1.0000
