data_image0
_chemical_formula_structural       Cd3NaO8Si3
_chemical_formula_sum              "Cd3 Na1 O8 Si3"
_cell_length_a       5.9643743604927755
_cell_length_b       6.6662139104960065
_cell_length_c       6.700105667114258
_cell_angle_alpha    66.71753516428666
_cell_angle_beta     63.92394557688605
_cell_angle_gamma    62.455830802615154

_space_group_name_H-M_alt    "P 1"
_space_group_IT_number       1

loop_
  _space_group_symop_operation_xyz
  'x, y, z'

loop_
  _atom_site_type_symbol
  _atom_site_label
  _atom_site_symmetry_multiplicity
  _atom_site_fract_x
  _atom_site_fract_y
  _atom_site_fract_z
  _atom_site_occupancy
  Cd  Cd1       1.0  0.9824830889701843  0.8919999003410339  0.11020850390195845  1.0000
  Cd  Cd2       1.0  0.48787862062454224  0.42753663659095764  0.2932222783565521  1.0000
  Cd  Cd3       1.0  0.9718365669250488  0.1454649120569229  0.4151214659214019  1.0000
  Na  Na1       1.0  0.7942056059837341  0.7762132883071899  0.7901377677917479  1.0000
  O   O1        1.0  0.13459782302379608  0.8601441383361816  0.34414148330688477  1.0000
  O   O2        1.0  0.9315449595451355  0.2592318654060364  0.8175534009933471  1.0000
  O   O3        1.0  0.9018967747688293  0.30030977725982666  0.34506505727767944  1.0000
  O   O4        1.0  0.6972126364707947  0.7580559253692627  0.32076510787010193  1.0000
  O   O5        1.0  0.38408541679382324  0.050583794713020325  0.8030535578727721  1.0000
  O   O6        1.0  0.28166070580482483  0.7977359890937805  0.528329074382782  1.0000
  O   O7        1.0  0.8998141288757324  0.5856661796569824  0.8046494126319884  1.0000
  O   O8        1.0  0.18592345714569092  0.5718261003494263  0.33938175439834595  1.0000
  Si  Si1       1.0  0.6810320019721985  0.4836185574531555  0.4718662798404693  1.0000
  Si  Si2       1.0  0.9066404104232788  0.808875322341919  0.310947060585022  1.0000
  Si  Si3       1.0  0.6982318162918091  0.6097526550292969  0.12686483561992645  1.0000
