data_image0
_chemical_formula_structural       Cd2NaO6Os3Si3
_chemical_formula_sum              "Cd2 Na1 O6 Os3 Si3"
_cell_length_a       6.1733187570898576
_cell_length_b       6.969243682780469
_cell_length_c       7.115578651428223
_cell_angle_alpha    117.75027460274895
_cell_angle_beta     89.66538769575553
_cell_angle_gamma    90.05173081671947

_space_group_name_H-M_alt    "P 1"
_space_group_IT_number       1

loop_
  _space_group_symop_operation_xyz
  'x, y, z'

loop_
  _atom_site_type_symbol
  _atom_site_label
  _atom_site_symmetry_multiplicity
  _atom_site_fract_x
  _atom_site_fract_y
  _atom_site_fract_z
  _atom_site_occupancy
  Cd  Cd1       1.0  0.23231141269207004  0.6612105369567871  0.5415435433387755  1.0000
  Cd  Cd2       1.0  0.24909827113151553  0.6609079241752625  0.1414950042963028  1.0000
  Na  Na1       1.0  0.49837702512741094  0.216156005859375  0.33205124735832214  1.0000
  O   O1        1.0  0.07412446290254593  0.4295683205127716  0.8127438426017761  1.0000
  O   O2        1.0  0.5011138319969177  0.29577937722206116  0.5145172476768494  1.0000
  O   O3        1.0  0.5201380848884583  0.060666397213935845  0.03598606586456299  1.0000
  O   O4        1.0  0.8180112838745117  0.6585031747817993  0.7137655019760132  1.0000
  O   O5        1.0  0.5642521977424622  0.1306682527065277  0.7145966291427612  1.0000
  O   O6        1.0  0.9978958368301393  0.3713914155960083  0.19282227754592896  1.0000
  Os  Os1       1.0  0.012015852145850658  0.14289070665836334  0.08676277846097946  1.0000
  Os  Os2       1.0  0.010067234747111797  0.16182051599025726  0.8338603377342224  1.0000
  Os  Os3       1.0  0.030501740053296093  0.7336041927337646  0.8145458102226257  1.0000
  Si  Si1       1.0  0.4997186660766602  0.15345944464206696  0.9444241523742676  1.0000
  Si  Si2       1.0  0.4872963726520539  0.1473359763622284  0.568996250629425  1.0000
  Si  Si3       1.0  0.5350086688995361  0.782193660736084  0.794434130191803  1.0000
