data_image0
_chemical_formula_structural       ClLi3NNi2P3
_chemical_formula_sum              "Cl1 Li3 N1 Ni2 P3"
_cell_length_a       5.553498430173092
_cell_length_b       5.969201442577724
_cell_length_c       5.936202049255371
_cell_angle_alpha    63.17900030608185
_cell_angle_beta     62.274740619684934
_cell_angle_gamma    64.29378816883545

_space_group_name_H-M_alt    "P 1"
_space_group_IT_number       1

loop_
  _space_group_symop_operation_xyz
  'x, y, z'

loop_
  _atom_site_type_symbol
  _atom_site_label
  _atom_site_symmetry_multiplicity
  _atom_site_fract_x
  _atom_site_fract_y
  _atom_site_fract_z
  _atom_site_occupancy
  Cl  Cl1       1.0  0.7247662544250488  0.4012131094932556  0.18787169456481934  1.0000
  Li  Li1       1.0  0.4765911102294922  0.6407210826873779  0.413683146238327  1.0000
  Li  Li2       1.0  0.7274731993675232  0.7473097443580627  0.16364122927188873  1.0000
  Li  Li3       1.0  0.20967210829257965  0.41775062680244446  0.2510170638561249  1.0000
  N   N1        1.0  0.6570738554000854  0.6650566458702087  0.6933858394622803  1.0000
  Ni  Ni1       1.0  0.48130548000335693  0.18419937789440155  0.8792601823806763  1.0000
  Ni  Ni2       1.0  0.5062617659568787  0.6820803284645081  0.9291679263114929  1.0000
  P   P1        1.0  0.6330965757369995  0.28034308552742004  0.8173924684524536  1.0000
  P   P2        1.0  0.9661974906921387  0.10584057867527007  0.5076403021812439  1.0000
  P   P3        1.0  0.007145377807319164  0.7219524383544922  0.43838316202163696  1.0000
