data_image0
_chemical_formula_structural       CClGaHoLi6
_chemical_formula_sum              "C1 Cl1 Ga1 Ho1 Li6"
_cell_length_a       4.876877713817531
_cell_length_b       5.654713798178356
_cell_length_c       8.471519470214844
_cell_angle_alpha    91.45961428000861
_cell_angle_beta     90.21023645288487
_cell_angle_gamma    117.06383471277461

_space_group_name_H-M_alt    "P 1"
_space_group_IT_number       1

loop_
  _space_group_symop_operation_xyz
  'x, y, z'

loop_
  _atom_site_type_symbol
  _atom_site_label
  _atom_site_symmetry_multiplicity
  _atom_site_fract_x
  _atom_site_fract_y
  _atom_site_fract_z
  _atom_site_occupancy
  C   C1        1.0  0.202776238322258  0.4289594888687134  0.4561697840690613  1.0000
  Cl  Cl1       1.0  0.6909672021865845  0.45382508635520935  0.16002286970615387  1.0000
  Ga  Ga1       1.0  0.5236265659332275  0.9439799785614014  0.8070033192634583  1.0000
  Ho  Ho1       1.0  0.5313170552253723  0.433292955160141  0.750592052936554  1.0000
  Li  Li1       1.0  0.33636099100112915  0.16827774047851562  0.17021732032299042  1.0000
  Li  Li2       1.0  0.8617060780525208  0.7054117321968079  0.917819082736969  1.0000
  Li  Li3       1.0  0.22433696687221527  0.7629824876785278  0.5212129354476929  1.0000
  Li  Li4       1.0  0.8624608516693115  0.7641162276268005  0.42187726497650146  1.0000
  Li  Li5       1.0  0.8006364703178406  0.09283590316772461  0.4744640290737152  1.0000
  Li  Li6       1.0  0.9711098670959473  0.45327916741371155  0.6516645550727844  1.0000
