data_image0
_chemical_formula_structural       Cl7Li2N
_chemical_formula_sum              "Cl7 Li2 N1"
_cell_length_a       5.989243548643963
_cell_length_b       5.982145368912027
_cell_length_c       7.850228309631348
_cell_angle_alpha    71.46760363079211
_cell_angle_beta     68.3852107350967
_cell_angle_gamma    63.36459284351847

_space_group_name_H-M_alt    "P 1"
_space_group_IT_number       1

loop_
  _space_group_symop_operation_xyz
  'x, y, z'

loop_
  _atom_site_type_symbol
  _atom_site_label
  _atom_site_symmetry_multiplicity
  _atom_site_fract_x
  _atom_site_fract_y
  _atom_site_fract_z
  _atom_site_occupancy
  Cl  Cl1       1.0  0.05240164324641228  0.7402185201644897  0.0001939535140991211  1.0000
  Cl  Cl2       1.0  0.7500737905502319  0.7915696501731873  0.7782002687454224  1.0000
  Cl  Cl3       1.0  0.36115679144859314  0.9426273107528687  0.7394091486930847  1.0000
  Cl  Cl4       1.0  0.4038686752319336  0.6768518090248108  0.7937722206115723  1.0000
  Cl  Cl5       1.0  0.7568371295928955  0.35801661014556885  0.16420327126979828  1.0000
  Cl  Cl6       1.0  0.010609532706439495  0.2893383204936981  0.41490700840950007  1.0000
  Cl  Cl7       1.0  0.49147057533264166  0.7772700190544128  0.4299836456775665  1.0000
  Li  Li1       1.0  0.9537463188171387  0.3121487498283386  0.305002361536026  1.0000
  Li  Li2       1.0  0.045650381594896317  0.8297560811042786  0.928754150867462  1.0000
  N   N1        1.0  0.13535939157009125  0.12471707165241241  0.6354396343231201  1.0000
