data_image0
_chemical_formula_structural       Cl6HLi3
_chemical_formula_sum              "Cl6 H1 Li3"
_cell_length_a       5.828107592032359
_cell_length_b       5.702452488505499
_cell_length_c       5.9265851974487305
_cell_angle_alpha    70.08360646099854
_cell_angle_beta     69.70994033410767
_cell_angle_gamma    71.45153847012223

_space_group_name_H-M_alt    "P 1"
_space_group_IT_number       1

loop_
  _space_group_symop_operation_xyz
  'x, y, z'

loop_
  _atom_site_type_symbol
  _atom_site_label
  _atom_site_symmetry_multiplicity
  _atom_site_fract_x
  _atom_site_fract_y
  _atom_site_fract_z
  _atom_site_occupancy
  Cl  Cl1       1.0  0.353881299495697  0.08308538049459457  0.8330662250518799  1.0000
  Cl  Cl2       1.0  0.9571932554244995  0.5989040732383728  0.8622941374778748  1.0000
  Cl  Cl3       1.0  0.8546825647354126  0.2348453253507614  0.33126506209373474  1.0000
  Cl  Cl4       1.0  0.6236783862113953  0.6814562678337097  0.05681567266583443  1.0000
  Cl  Cl5       1.0  0.3439118266105652  0.7561290860176086  0.5850163102149963  1.0000
  Cl  Cl6       1.0  0.34809598326683044  0.29185131192207336  0.357524573802948  1.0000
  H   H1        1.0  0.6943478584289551  0.9064358472824097  0.8432395458221436  1.0000
  Li  Li1       1.0  0.5793065428733826  0.2748264968395233  0.8159633278846741  1.0000
  Li  Li2       1.0  0.7191919088363647  0.9108307361602783  0.8339411616325378  1.0000
  Li  Li3       1.0  0.08624586462974548  0.40692952275276184  0.12015851587057114  1.0000
