data_image0
_chemical_formula_structural       CCl3HoLi4Lu
_chemical_formula_sum              "C1 Cl3 Ho1 Li4 Lu1"
_cell_length_a       5.905984880812434
_cell_length_b       6.282885803279776
_cell_length_c       7.0773468017578125
_cell_angle_alpha    113.10725837906706
_cell_angle_beta     114.02292773286011
_cell_angle_gamma    89.41409299917059

_space_group_name_H-M_alt    "P 1"
_space_group_IT_number       1

loop_
  _space_group_symop_operation_xyz
  'x, y, z'

loop_
  _atom_site_type_symbol
  _atom_site_label
  _atom_site_symmetry_multiplicity
  _atom_site_fract_x
  _atom_site_fract_y
  _atom_site_fract_z
  _atom_site_occupancy
  C   C1        1.0  0.7885168790817261  0.5344324707984924  0.5009225010871887  1.0000
  Cl  Cl1       1.0  0.4474751651287079  0.5350093245506287  0.46693626046180725  1.0000
  Cl  Cl2       1.0  0.5425295233726501  0.3486243486404419  0.8503291010856628  1.0000
  Cl  Cl3       1.0  0.9493107795715332  0.23866201937198642  0.6399881839752197  1.0000
  Ho  Ho1       1.0  0.7958644032478333  0.056277226656675346  0.27520152926445  1.0000
  Li  Li1       1.0  0.7544512152671814  0.7207073569297792  0.7856391072273254  1.0000
  Li  Li2       1.0  0.29144006967544556  0.2328283786773682  0.864525318145752  1.0000
  Li  Li3       1.0  0.8239004611968994  0.7302788496017457  0.36479562520980835  1.0000
  Li  Li4       1.0  0.14104874432086945  0.22970193624496463  0.355927437543869  1.0000
  Lu  Lu1       1.0  0.15244898200035095  0.042502548545598984  0.15292249619960785  1.0000
