data_image0
_chemical_formula_structural       Cl2CsLi6P
_chemical_formula_sum              "Cl2 Cs1 Li6 P1"
_cell_length_a       4.630212907992155
_cell_length_b       5.77330846311153
_cell_length_c       7.638940811157227
_cell_angle_alpha    102.37237423867916
_cell_angle_beta     104.42618447520248
_cell_angle_gamma    90.83907724360387

_space_group_name_H-M_alt    "P 1"
_space_group_IT_number       1

loop_
  _space_group_symop_operation_xyz
  'x, y, z'

loop_
  _atom_site_type_symbol
  _atom_site_label
  _atom_site_symmetry_multiplicity
  _atom_site_fract_x
  _atom_site_fract_y
  _atom_site_fract_z
  _atom_site_occupancy
  Cl  Cl1       1.0  0.37383759021759033  0.29947590827941895  0.27367502450942993  1.0000
  Cl  Cl2       1.0  0.00038187322206795216  0.5658169388771057  0.6242913007736205  1.0000
  Cs  Cs1       1.0  0.7192865014076233  0.20272992551326752  0.02494804933667183  1.0000
  Li  Li1       1.0  0.7277848720550537  0.8347981572151184  0.2788774371147156  1.0000
  Li  Li2       1.0  0.009693934582173824  0.24807895720005035  0.6916256546974182  1.0000
  Li  Li3       1.0  0.26495081186294556  0.5624842643737793  0.5901613235473633  1.0000
  Li  Li4       1.0  0.5543402433395386  0.5783246755599976  0.483856737613678  1.0000
  Li  Li5       1.0  0.24256089329719543  0.03596328943967819  0.9685350060462952  1.0000
  Li  Li6       1.0  0.49861061573028564  0.0680302307009697  0.7722272276878357  1.0000
  P   P1        1.0  0.015663310885429382  0.14362448453903198  0.007055691443383694  1.0000
