data_image0
_chemical_formula_structural       CuS4Si5
_chemical_formula_sum              "Cu1 S4 Si5"
_cell_length_a       5.898208631531262
_cell_length_b       6.205271706573845
_cell_length_c       6.791738033294678
_cell_angle_alpha    116.94541287704628
_cell_angle_beta     113.79445234758698
_cell_angle_gamma    89.85839019030563

_space_group_name_H-M_alt    "P 1"
_space_group_IT_number       1

loop_
  _space_group_symop_operation_xyz
  'x, y, z'

loop_
  _atom_site_type_symbol
  _atom_site_label
  _atom_site_symmetry_multiplicity
  _atom_site_fract_x
  _atom_site_fract_y
  _atom_site_fract_z
  _atom_site_occupancy
  Cu  Cu1       1.0  0.5119882822036743  0.9607428908348082  0.3361653983592987  1.0000
  S   S1        1.0  0.7989511489868164  0.5149902105331421  0.9940063953399659  1.0000
  S   S2        1.0  0.6394819617271423  0.6949144005775452  0.6175443530082703  1.0000
  S   S3        1.0  0.7656850814819336  0.9511538743972777  0.4164868295192719  1.0000
  S   S4        1.0  0.30004566907882685  0.9845508933067321  0.09156951308250429  1.0000
  Si  Si1       1.0  0.8621271848678589  0.12046320736408232  0.7450850009918214  1.0000
  Si  Si2       1.0  0.31708824634552  0.07110198587179184  0.9867400527000428  1.0000
  Si  Si3       1.0  0.32886943221092224  0.5664189457893372  0.7682562470436097  1.0000
  Si  Si4       1.0  0.4500511586666107  0.45088025927543635  0.4512347280979157  1.0000
  Si  Si5       1.0  0.5238178968429565  0.97107595205307  0.2565702795982362  1.0000
