data_image0
_chemical_formula_structural       S4Si6
_chemical_formula_sum              "S4 Si6"
_cell_length_a       5.298389110441812
_cell_length_b       7.1949332054104165
_cell_length_c       7.419484615325928
_cell_angle_alpha    118.25420622908773
_cell_angle_beta     105.26878305440358
_cell_angle_gamma    87.89746439960906

_space_group_name_H-M_alt    "P 1"
_space_group_IT_number       1

loop_
  _space_group_symop_operation_xyz
  'x, y, z'

loop_
  _atom_site_type_symbol
  _atom_site_label
  _atom_site_symmetry_multiplicity
  _atom_site_fract_x
  _atom_site_fract_y
  _atom_site_fract_z
  _atom_site_occupancy
  S   S1        1.0  0.1414494812488556  0.2562401592731476  0.48848032951354986  1.0000
  S   S2        1.0  0.6532443761825562  0.8283735513687134  0.24274660646915444  1.0000
  S   S3        1.0  0.13027922809123993  0.7635709047317505  0.0648720711469651  1.0000
  S   S4        1.0  0.6404827833175659  0.32089462876319885  0.22047014534473422  1.0000
  Si  Si1       1.0  0.6578146815299988  0.6030665636062622  0.2129883319139481  1.0000
  Si  Si2       1.0  0.9069040417671204  0.17228786647319794  0.7056589126586915  1.0000
  Si  Si3       1.0  0.15168365836143494  0.5837531685829163  0.36697438359260565  1.0000
  Si  Si4       1.0  0.4324501156806946  0.6468423008918762  0.9200624823570253  1.0000
  Si  Si5       1.0  0.8605340123176575  0.005304085556417704  0.6698033809661865  1.0000
  Si  Si6       1.0  0.6560633182525635  0.14753490686416626  0.6879812479019166  1.0000
