data_image0
_chemical_formula_structural       CuS3Si6
_chemical_formula_sum              "Cu1 S3 Si6"
_cell_length_a       5.499685584007708
_cell_length_b       7.092490327734103
_cell_length_c       7.566699028015137
_cell_angle_alpha    118.77004809980214
_cell_angle_beta     115.35425124083567
_cell_angle_gamma    84.80784194840626

_space_group_name_H-M_alt    "P 1"
_space_group_IT_number       1

loop_
  _space_group_symop_operation_xyz
  'x, y, z'

loop_
  _atom_site_type_symbol
  _atom_site_label
  _atom_site_symmetry_multiplicity
  _atom_site_fract_x
  _atom_site_fract_y
  _atom_site_fract_z
  _atom_site_occupancy
  Cu  Cu1       1.0  0.2555396556854248  0.3385055363178253  0.720487892627716  1.0000
  S   S1        1.0  0.9361395239830017  0.7317558526992798  0.36968725919723505  1.0000
  S   S2        1.0  0.4383021593093872  0.39760902523994446  0.37574210762977595  1.0000
  S   S3        1.0  0.989227294921875  0.23583874106407166  0.5613663196563721  1.0000
  Si  Si1       1.0  0.0007010698318481445  0.030721982941031456  0.4577266573905944  1.0000
  Si  Si2       1.0  0.10280480980873108  0.04535246640443802  0.7959516048431395  1.0000
  Si  Si3       1.0  0.00549993384629488  0.24740372598171234  0.3789838552474976  1.0000
  Si  Si4       1.0  0.15423527359962463  0.7835211753845215  0.5073979496955872  1.0000
  Si  Si5       1.0  0.23637184500694275  0.7761261463165283  0.32201910018920904  1.0000
  Si  Si6       1.0  0.8801128268241882  0.5475676655769348  0.7002569437026978  1.0000
