data_image0
_chemical_formula_structural       S5Si5
_chemical_formula_sum              "S5 Si5"
_cell_length_a       4.5744139567451825
_cell_length_b       6.935630800968267
_cell_length_c       7.116202354431152
_cell_angle_alpha    121.14651952247348
_cell_angle_beta     91.04264844011179
_cell_angle_gamma    89.01026947202202

_space_group_name_H-M_alt    "P 1"
_space_group_IT_number       1

loop_
  _space_group_symop_operation_xyz
  'x, y, z'

loop_
  _atom_site_type_symbol
  _atom_site_label
  _atom_site_symmetry_multiplicity
  _atom_site_fract_x
  _atom_site_fract_y
  _atom_site_fract_z
  _atom_site_occupancy
  S   S1        1.0  0.0019905567169189453  0.4430270195007324  0.5664703845977783  1.0000
  S   S2        1.0  0.9931979775428772  0.8266684412956238  0.808870792388916  1.0000
  S   S3        1.0  0.5049576759338379  0.18163152039051056  0.815993070602417  1.0000
  S   S4        1.0  0.5113039612770081  0.21860164403915405  0.7807128429412842  1.0000
  S   S5        1.0  0.5130810737609863  0.8329803347587585  0.8283649682998657  1.0000
  Si  Si1       1.0  0.8029683232307434  0.7790882587432861  0.2859863638877869  1.0000
  Si  Si2       1.0  0.49843522906303406  0.9895811676979065  0.6076169610023499  1.0000
  Si  Si3       1.0  0.30366307497024536  0.5596737265586853  0.31599605083465576  1.0000
  Si  Si4       1.0  0.05281572416424751  0.42060765624046326  0.08885480463504791  1.0000
  Si  Si5       1.0  0.5857356190681458  0.6914214491844177  0.12059013545513153  1.0000
