data_image0
_chemical_formula_structural       CuS7Si2
_chemical_formula_sum              "Cu1 S7 Si2"
_cell_length_a       5.7636139690728845
_cell_length_b       5.894322429239935
_cell_length_c       5.996860980987549
_cell_angle_alpha    118.03443131640361
_cell_angle_beta     92.62937080673923
_cell_angle_gamma    87.08303612006229

_space_group_name_H-M_alt    "P 1"
_space_group_IT_number       1

loop_
  _space_group_symop_operation_xyz
  'x, y, z'

loop_
  _atom_site_type_symbol
  _atom_site_label
  _atom_site_symmetry_multiplicity
  _atom_site_fract_x
  _atom_site_fract_y
  _atom_site_fract_z
  _atom_site_occupancy
  Cu  Cu1       1.0  0.5216343402862549  0.7752223610877991  0.02002036571502693  1.0000
  S   S1        1.0  0.8716797232627869  0.23562633991241455  0.45562952756881714  1.0000
  S   S2        1.0  0.3660892844200134  0.18501688539981842  0.9677374958992004  1.0000
  S   S3        1.0  0.3849073350429535  0.8971960544586182  0.7760385274887085  1.0000
  S   S4        1.0  0.3916686773300171  0.40820595622062683  0.6731705665588379  1.0000
  S   S5        1.0  0.13201552629470825  0.997861921787262  0.2390851378440857  1.0000
  S   S6        1.0  0.8733411431312561  0.43373897671699524  0.5106763243675232  1.0000
  S   S7        1.0  0.8638928532600403  0.5806683897972107  0.36627063155174255  1.0000
  Si  Si1       1.0  0.3858414590358734  0.7627413868904114  0.6681163311004639  1.0000
  Si  Si2       1.0  0.881260097026825  0.4301769733428955  0.1611000895500183  1.0000
