data_image0
_chemical_formula_structural       CuS6Si3
_chemical_formula_sum              "Cu1 S6 Si3"
_cell_length_a       5.950260048210658
_cell_length_b       5.755001790768706
_cell_length_c       5.820260047912598
_cell_angle_alpha    117.01597521738582
_cell_angle_beta     116.0397225978589
_cell_angle_gamma    84.83439945462133

_space_group_name_H-M_alt    "P 1"
_space_group_IT_number       1

loop_
  _space_group_symop_operation_xyz
  'x, y, z'

loop_
  _atom_site_type_symbol
  _atom_site_label
  _atom_site_symmetry_multiplicity
  _atom_site_fract_x
  _atom_site_fract_y
  _atom_site_fract_z
  _atom_site_occupancy
  Cu  Cu1       1.0  0.4483669400215149  0.2779187858104706  0.4344603419303894  1.0000
  S   S1        1.0  0.9284250736236572  0.7117011547088623  0.1618940234184265  1.0000
  S   S2        1.0  0.7804210782051086  0.1373373568058014  0.37936821579933167  1.0000
  S   S3        1.0  0.7847310900688171  0.9902582764625549  0.8394708633422852  1.0000
  S   S4        1.0  0.8220650553703308  0.5025721192359924  0.8865476846694946  1.0000
  S   S5        1.0  0.15952643752098086  0.9989614486694337  0.7560977339744568  1.0000
  S   S6        1.0  0.2519066035747528  0.16918757557868958  0.3633808493614197  1.0000
  Si  Si1       1.0  0.5434947609901428  0.760169267654419  0.9292637109756469  1.0000
  Si  Si2       1.0  0.8655527830123901  0.5172971487045288  0.8984630703926085  1.0000
  Si  Si3       1.0  0.19633862376213074  0.23979023098945618  0.2704610228538513  1.0000
