data_image0
_chemical_formula_structural       C4FeGaGeHgIS2Sb
_chemical_formula_sum              "C4 Fe1 Ga1 Ge1 Hg1 I1 S2 Sb1"
_cell_length_a       6.346082594112493
_cell_length_b       7.831793780873003
_cell_length_c       7.929553985595703
_cell_angle_alpha    124.01930519982164
_cell_angle_beta     89.66995414269134
_cell_angle_gamma    90.21471008354946

_space_group_name_H-M_alt    "P 1"
_space_group_IT_number       1

loop_
  _space_group_symop_operation_xyz
  'x, y, z'

loop_
  _atom_site_type_symbol
  _atom_site_label
  _atom_site_symmetry_multiplicity
  _atom_site_fract_x
  _atom_site_fract_y
  _atom_site_fract_z
  _atom_site_occupancy
  C   C1        1.0  0.01466955617070198  0.23366080224514008  0.14907185733318323  1.0000
  C   C2        1.0  0.510090172290802  0.9223045706748962  0.08946891129016886  1.0000
  C   C3        1.0  0.3431284427642822  0.2914150655269623  0.20508255064487457  1.0000
  C   C4        1.0  0.005625605583190918  0.030712680891156197  0.6385692358016967  1.0000
  Fe  Fe1       1.0  0.0052994489669799805  0.7522707581520081  0.1183757111430168  1.0000
  Ga  Ga1       1.0  0.5097880363464355  0.47649288177490234  0.09544628113508223  1.0000
  Ge  Ge1       1.0  0.5163348317146301  0.6388547420501709  0.003669256810098942  1.0000
  Hg  Hg1       1.0  0.008040335960686207  0.5590051412582397  0.7234447598457335  1.0000
  I   I1        1.0  0.5095856785774231  0.7126889228820801  0.09132342785596852  1.0000
  S   S1        1.0  0.008787378668785095  0.00460739666596055  0.7028976082801818  1.0000
  S   S2        1.0  0.016253819689154625  0.2711625397205353  0.9955929517745971  1.0000
  Sb  Sb1       1.0  0.5148077607154846  0.3366548418998718  0.411257117986679  1.0000
