data_image0
_chemical_formula_structural       C4Ga2GeILaMgS2
_chemical_formula_sum              "C4 Ga2 Ge1 I1 La1 Mg1 S2"
_cell_length_a       6.809197775685206
_cell_length_b       7.756005620163515
_cell_length_c       8.147561073303223
_cell_angle_alpha    116.21420482034677
_cell_angle_beta     105.72051940387173
_cell_angle_gamma    89.90676541532389

_space_group_name_H-M_alt    "P 1"
_space_group_IT_number       1

loop_
  _space_group_symop_operation_xyz
  'x, y, z'

loop_
  _atom_site_type_symbol
  _atom_site_label
  _atom_site_symmetry_multiplicity
  _atom_site_fract_x
  _atom_site_fract_y
  _atom_site_fract_z
  _atom_site_occupancy
  C   C1        1.0  0.8534929752349854  0.16023826599121094  0.14687402546405792  1.0000
  C   C2        1.0  0.6127106547355652  0.2938867509365082  0.750521719455719  1.0000
  C   C3        1.0  0.32965895533561707  0.5800960659980774  0.10345954447984695  1.0000
  C   C4        1.0  0.349750816822052  0.47928473353385925  0.5764595866203308  1.0000
  Ga  Ga1       1.0  0.7846328020095825  0.9188591837882996  0.03711791709065437  1.0000
  Ga  Ga2       1.0  0.5921408534049988  0.8175944089889526  0.2784539759159088  1.0000
  Ge  Ge1       1.0  0.8610062599182129  0.10377039760351181  0.5454931259155273  1.0000
  I   I1        1.0  0.9916090369224548  0.8620689511299133  0.053262002766132355  1.0000
  La  La1       1.0  0.10642307996749878  0.19177472591400146  0.5392390489578247  1.0000
  Mg  Mg1       1.0  0.34220802783966064  0.6331759095191956  0.4546145796775818  1.0000
  S   S1        1.0  0.6644800305366516  0.8491613864898682  0.7884851694107056  1.0000
  S   S2        1.0  0.5045979619026184  0.8587846755981445  0.3551265299320221  1.0000
