data_image0
_chemical_formula_structural       C3Hg7NS
_chemical_formula_sum              "C3 Hg7 N1 S1"
_cell_length_a       5.318702513420144
_cell_length_b       7.887189524662173
_cell_length_c       8.310041427612305
_cell_angle_alpha    122.1459641472099
_cell_angle_beta     89.52049330484135
_cell_angle_gamma    91.30938339183542

_space_group_name_H-M_alt    "P 1"
_space_group_IT_number       1

loop_
  _space_group_symop_operation_xyz
  'x, y, z'

loop_
  _atom_site_type_symbol
  _atom_site_label
  _atom_site_symmetry_multiplicity
  _atom_site_fract_x
  _atom_site_fract_y
  _atom_site_fract_z
  _atom_site_occupancy
  C   C1        1.0  0.3007260859012604  0.9234117269515991  0.36697557568550104  1.0000
  C   C2        1.0  0.3011338412761688  0.8651306629180908  0.31618097424507136  1.0000
  C   C3        1.0  0.3031468391418457  0.0516466349363327  0.5357260704040527  1.0000
  Hg  Hg1       1.0  0.8130244016647339  0.6295205950737  0.9852457642555237  1.0000
  Hg  Hg2       1.0  0.3205658495426178  0.15523375570774078  0.13251972198486328  1.0000
  Hg  Hg3       1.0  0.8061058521270752  0.7445005178451538  0.5457854866981506  1.0000
  Hg  Hg4       1.0  0.8068968653678894  0.9163513779640198  0.1068243756890297  1.0000
  Hg  Hg5       1.0  0.8099958896636963  0.8134331703186035  0.014484743587672657  1.0000
  Hg  Hg6       1.0  0.30008676648139954  0.16485077142715454  0.9655420780181885  1.0000
  Hg  Hg7       1.0  0.7975921034812927  0.37773898243904114  0.00938486959785223  1.0000
  N   N1        1.0  0.8002776503562927  0.7159634232521057  0.3355299234390259  1.0000
  S   S1        1.0  0.8112906813621521  0.6902018189430237  0.921490490436554  1.0000
