data_image0
_chemical_formula_structural       C4ClGaILaNPtSV
_chemical_formula_sum              "C4 Cl1 Ga1 I1 La1 N1 Pt1 S1 V1"
_cell_length_a       5.747706843596688
_cell_length_b       5.911418728259733
_cell_length_c       8.004232406616211
_cell_angle_alpha    83.93972368565588
_cell_angle_beta     77.65159649497775
_cell_angle_gamma    76.98308322268633

_space_group_name_H-M_alt    "P 1"
_space_group_IT_number       1

loop_
  _space_group_symop_operation_xyz
  'x, y, z'

loop_
  _atom_site_type_symbol
  _atom_site_label
  _atom_site_symmetry_multiplicity
  _atom_site_fract_x
  _atom_site_fract_y
  _atom_site_fract_z
  _atom_site_occupancy
  C   C1        1.0  0.7557116746902466  0.27390745282173157  0.5123038291931152  1.0000
  C   C2        1.0  0.995512068271637  0.4736234247684479  0.23973271250724792  1.0000
  C   C3        1.0  0.33276939392089844  0.38216134905815125  0.48081326484680176  1.0000
  C   C4        1.0  0.9209839701652527  0.6911415457725525  0.9731606245040894  1.0000
  Cl  Cl1       1.0  0.48602885007858276  0.9610490798950195  0.0745336040854454  1.0000
  Ga  Ga1       1.0  0.42332640290260315  0.023440206423401833  0.9865509271621705  1.0000
  I   I1        1.0  0.8948904871940613  0.798840343952179  0.5808732509613037  1.0000
  La  La1       1.0  0.9062510132789612  0.7725547552108765  0.9700496792793274  1.0000
  N   N1        1.0  0.9454411864280701  0.6156697869300842  0.3007451593875885  1.0000
  Pt  Pt1       1.0  0.24083998799324036  0.9243748784065247  0.9149147868156433  1.0000
  S   S1        1.0  0.039776723831892014  0.7061616778373718  0.622555673122406  1.0000
  V   V1        1.0  0.44875800609588623  0.35084712505340576  0.3183288872241974  1.0000
