data_image0
_chemical_formula_structural       Hg8N3S
_chemical_formula_sum              "Hg8 N3 S1"
_cell_length_a       5.433064033616559
_cell_length_b       7.87710440329904
_cell_length_c       8.443856239318848
_cell_angle_alpha    123.77717554229581
_cell_angle_beta     89.8154518386452
_cell_angle_gamma    92.74146009832702

_space_group_name_H-M_alt    "P 1"
_space_group_IT_number       1

loop_
  _space_group_symop_operation_xyz
  'x, y, z'

loop_
  _atom_site_type_symbol
  _atom_site_label
  _atom_site_symmetry_multiplicity
  _atom_site_fract_x
  _atom_site_fract_y
  _atom_site_fract_z
  _atom_site_occupancy
  Hg  Hg1       1.0  0.6816536784172058  0.14948587119579315  0.6306076049804688  1.0000
  Hg  Hg2       1.0  0.8151108026504517  0.803745448589325  0.5551607608795166  1.0000
  Hg  Hg3       1.0  0.2083369791507721  0.8078207969665527  0.8107330799102783  1.0000
  Hg  Hg4       1.0  0.8520342707633972  0.5743951797485352  0.8622682690620422  1.0000
  Hg  Hg5       1.0  0.8858724832534789  0.9587329030036927  0.5354533195495607  1.0000
  Hg  Hg6       1.0  0.9157979488372802  0.2558372914791107  0.09942442923784256  1.0000
  Hg  Hg7       1.0  0.6562677621841431  0.8298055529594422  0.6723797917366028  1.0000
  Hg  Hg8       1.0  0.2408676594495773  0.299715518951416  0.11687126755714419  1.0000
  N   N1        1.0  0.3700619637966156  0.143267422914505  0.44464281201362615  1.0000
  N   N2        1.0  0.3778430223464966  0.988913655281067  0.6779197454452515  1.0000
  N   N3        1.0  0.7493432760238647  0.0442739836871624  0.32727450132369995  1.0000
  S   S1        1.0  0.8745722770690917  0.003982150461524725  0.6706830859184265  1.0000
