data_image0
_chemical_formula_structural       C4CaGaHgNPaS3
_chemical_formula_sum              "C4 Ca1 Ga1 Hg1 N1 Pa1 S3"
_cell_length_a       5.966237113457645
_cell_length_b       7.299161177944922
_cell_length_c       7.812322616577148
_cell_angle_alpha    122.45950256840709
_cell_angle_beta     90.05655329808606
_cell_angle_gamma    88.79325919661665

_space_group_name_H-M_alt    "P 1"
_space_group_IT_number       1

loop_
  _space_group_symop_operation_xyz
  'x, y, z'

loop_
  _atom_site_type_symbol
  _atom_site_label
  _atom_site_symmetry_multiplicity
  _atom_site_fract_x
  _atom_site_fract_y
  _atom_site_fract_z
  _atom_site_occupancy
  C   C1        1.0  0.8943058848381041  0.7622475028038025  0.4758872091770172  1.0000
  C   C2        1.0  0.3936295807361602  0.4113496243953705  0.4118337631225586  1.0000
  C   C3        1.0  0.39154732227325434  0.08746619522571564  0.11734778434038162  1.0000
  C   C4        1.0  0.8922641277313231  0.9215838313102722  0.01827445812523365  1.0000
  Ca  Ca1       1.0  0.8905844092369078  0.6380674839019775  0.6482890248298645  1.0000
  Ga  Ga1       1.0  0.39079821109771723  0.2712205648422241  0.03702202439308169  1.0000
  Hg  Hg1       1.0  0.3960005342960357  0.687089204788208  0.35097241401672363  1.0000
  N   N1        1.0  0.38525798916816706  0.7460690140724182  0.629294753074646  1.0000
  Pa  Pa1       1.0  0.3851203024387359  0.5713357925415039  0.25404500961303705  1.0000
  S   S1        1.0  0.5673047304153442  0.4181908667087555  0.834877073764801  1.0000
  S   S2        1.0  0.39381814002990717  0.4247797727584839  0.5266076922416687  1.0000
  S   S3        1.0  0.05135934054851531  0.38683614134788513  0.5177907943725586  1.0000
