data_image0
_chemical_formula_structural       LuO2PSSn
_chemical_formula_sum              "Lu1 O2 P1 S1 Sn1"
_cell_length_a       5.335122137369061
_cell_length_b       5.318949889479638
_cell_length_c       7.806225299835205
_cell_angle_alpha    90.27731247349132
_cell_angle_beta     88.80092365967104
_cell_angle_gamma    114.72557272944078

_space_group_name_H-M_alt    "P 1"
_space_group_IT_number       1

loop_
  _space_group_symop_operation_xyz
  'x, y, z'

loop_
  _atom_site_type_symbol
  _atom_site_label
  _atom_site_symmetry_multiplicity
  _atom_site_fract_x
  _atom_site_fract_y
  _atom_site_fract_z
  _atom_site_occupancy
  Lu  Lu1       1.0  0.24535763263702395  0.3296477496623993  0.18175539374351501  1.0000
  O   O1        1.0  0.4245238602161408  0.6780533790588379  0.6765534281730652  1.0000
  O   O2        1.0  0.008513249456882477  0.4540384113788605  0.9065864086151123  1.0000
  P   P1        1.0  0.8213516473770143  0.32916712760925293  0.1828334778547287  1.0000
  S   S1        1.0  0.15357528626918793  0.6586731672286987  0.4822204113006592  1.0000
  Sn  Sn1       1.0  0.14920766651630402  0.14597395062446594  0.41035640239715576  1.0000
