data_image0
_chemical_formula_structural       O3Sn3
_chemical_formula_sum              "O3 Sn3"
_cell_length_a       4.201278626129777
_cell_length_b       4.1107581744083825
_cell_length_c       8.505290031433105
_cell_angle_alpha    92.34757311732588
_cell_angle_beta     93.41689796254272
_cell_angle_gamma    104.62124862452015

_space_group_name_H-M_alt    "P 1"
_space_group_IT_number       1

loop_
  _space_group_symop_operation_xyz
  'x, y, z'

loop_
  _atom_site_type_symbol
  _atom_site_label
  _atom_site_symmetry_multiplicity
  _atom_site_fract_x
  _atom_site_fract_y
  _atom_site_fract_z
  _atom_site_occupancy
  O   O1        1.0  0.4192335605621338  0.6920176744461058  0.734503448009491  1.0000
  O   O2        1.0  0.920067548751831  0.4740834832191467  0.4453510046005249  1.0000
  O   O3        1.0  0.41305825114250183  0.23753365874290464  0.43851369619369507  1.0000
  Sn  Sn1       1.0  0.7722100019454956  0.8125517964363097  0.9816687703132629  1.0000
  Sn  Sn2       1.0  0.27743747830390925  0.9582139253616332  0.24668268859386444  1.0000
  Sn  Sn3       1.0  0.7386099696159363  0.2791644334793091  0.09435027837753296  1.0000
