data_image0
_chemical_formula_structural       O2Sn4
_chemical_formula_sum              "O2 Sn4"
_cell_length_a       4.394853252607262
_cell_length_b       4.372169645970783
_cell_length_c       7.634166717529297
_cell_angle_alpha    97.78219222022305
_cell_angle_beta     96.01516870994162
_cell_angle_gamma    100.64467226981989

_space_group_name_H-M_alt    "P 1"
_space_group_IT_number       1

loop_
  _space_group_symop_operation_xyz
  'x, y, z'

loop_
  _atom_site_type_symbol
  _atom_site_label
  _atom_site_symmetry_multiplicity
  _atom_site_fract_x
  _atom_site_fract_y
  _atom_site_fract_z
  _atom_site_occupancy
  O   O1        1.0  0.8742863535881042  0.9969119429588318  0.6583682894706726  1.0000
  O   O2        1.0  0.26844772696495056  0.7096143960952759  0.06185777485370636  1.0000
  Sn  Sn1       1.0  0.7145344018936157  0.41444337368011475  0.16698941588401794  1.0000
  Sn  Sn2       1.0  0.9251934289932251  0.7907677888870239  0.3316255807876587  1.0000
  Sn  Sn3       1.0  0.37847059965133667  0.3691563904285431  0.7493201494216919  1.0000
  Sn  Sn4       1.0  0.30184435844421387  0.9111446738243103  0.9065095782279968  1.0000
