data_image0
_chemical_formula_structural       O2SiSn3
_chemical_formula_sum              "O2 Si1 Sn3"
_cell_length_a       3.934744170509517
_cell_length_b       4.414640544989749
_cell_length_c       7.843316078186035
_cell_angle_alpha    90.05438586514552
_cell_angle_beta     91.70156263812567
_cell_angle_gamma    100.36368993373023

_space_group_name_H-M_alt    "P 1"
_space_group_IT_number       1

loop_
  _space_group_symop_operation_xyz
  'x, y, z'

loop_
  _atom_site_type_symbol
  _atom_site_label
  _atom_site_symmetry_multiplicity
  _atom_site_fract_x
  _atom_site_fract_y
  _atom_site_fract_z
  _atom_site_occupancy
  O   O1        1.0  0.8041722774505614  0.7665268778800964  0.3819943964481353  1.0000
  O   O2        1.0  0.34785869717597956  0.27535730600357056  0.8880695700645446  1.0000
  Si  Si1       1.0  0.7877191305160521  0.5097395777702332  0.1459868550300598  1.0000
  Sn  Sn1       1.0  0.327842891216278  0.8512621521949768  0.8764885067939757  1.0000
  Sn  Sn2       1.0  0.7958889007568358  0.15052811801433563  0.720884084701538  1.0000
  Sn  Sn3       1.0  0.7843438386917113  0.1365516185760498  0.19301292300224301  1.0000
