data_image0
_chemical_formula_structural       BrClFN2NbPbTeW
_chemical_formula_sum              "Br1 Cl1 F1 N2 Nb1 Pb1 Te1 W1"
_cell_length_a       6.382913162949767
_cell_length_b       6.394144922212406
_cell_length_c       6.632594585418701
_cell_angle_alpha    64.80002255078601
_cell_angle_beta     64.71180152669714
_cell_angle_gamma    63.3172480822512

_space_group_name_H-M_alt    "P 1"
_space_group_IT_number       1

loop_
  _space_group_symop_operation_xyz
  'x, y, z'

loop_
  _atom_site_type_symbol
  _atom_site_label
  _atom_site_symmetry_multiplicity
  _atom_site_fract_x
  _atom_site_fract_y
  _atom_site_fract_z
  _atom_site_occupancy
  Br  Br1       1.0  0.7529748678207397  0.5786414742469788  0.20391187071800232  1.0000
  Cl  Cl1       1.0  0.159786194562912  0.9767012000083923  0.9918472170829774  1.0000
  F   F1        1.0  0.4734433591365814  0.5866943001747131  0.7310149073600769  1.0000
  N   N1        1.0  0.06574290245771408  0.47040855884552  0.7247648239135742  1.0000
  N   N2        1.0  0.7171028256416321  0.1120130866765976  0.725562870502472  1.0000
  Nb  Nb1       1.0  0.7893308997154236  0.32177284359931946  0.8526189923286438  1.0000
  Pb  Pb1       1.0  0.08952862024307251  0.8882055878639221  0.508283019065857  1.0000
  Te  Te1       1.0  0.4161391854286194  0.23286299407482147  0.2391906380653382  1.0000
  W   W1        1.0  0.38517168164253235  0.27984723448753357  0.8099938631057739  1.0000
