data_image0
_chemical_formula_structural       Mo3Nb2Rh4
_chemical_formula_sum              "Mo3 Nb2 Rh4"
_cell_length_a       3.848148914194438
_cell_length_b       5.763589233535599
_cell_length_c       6.462530612945557
_cell_angle_alpha    90.03772283358909
_cell_angle_beta     89.94160281779733
_cell_angle_gamma    90.14383856089225

_space_group_name_H-M_alt    "P 1"
_space_group_IT_number       1

loop_
  _space_group_symop_operation_xyz
  'x, y, z'

loop_
  _atom_site_type_symbol
  _atom_site_label
  _atom_site_symmetry_multiplicity
  _atom_site_fract_x
  _atom_site_fract_y
  _atom_site_fract_z
  _atom_site_occupancy
  Mo  Mo1       1.0  0.3411460816860199  0.36885714530944824  0.2469034790992737  1.0000
  Mo  Mo2       1.0  0.8381311297416687  0.657126784324646  0.3587904572486877  1.0000
  Mo  Mo3       1.0  0.3406054973602295  0.761264443397522  0.04781636968255043  1.0000
  Nb  Nb1       1.0  0.8401150703430176  0.2212173342704773  0.553006649017334  1.0000
  Nb  Nb2       1.0  0.8377200365066528  0.5009908676147461  0.9205787777900696  1.0000
  Rh  Rh1       1.0  0.33912619948387146  0.570266842842102  0.6405877470970154  1.0000
  Rh  Rh2       1.0  0.3400346636772156  0.16537195444107056  0.8567485213279724  1.0000
  Rh  Rh3       1.0  0.8391994833946228  0.06726693361997604  0.13733670115470886  1.0000
  Rh  Rh4       1.0  0.33736297488212585  0.9477514028549194  0.41988605260849  1.0000
