data_image0
_chemical_formula_structural       BrClFGdGeNNbScXe
_chemical_formula_sum              "Br1 Cl1 F1 Gd1 Ge1 N1 Nb1 Sc1 Xe1"
_cell_length_a       6.306124161104291
_cell_length_b       6.282720944938078
_cell_length_c       7.102142333984375
_cell_angle_alpha    63.90508997680491
_cell_angle_beta     64.1923011555383
_cell_angle_gamma    60.14090476121687

_space_group_name_H-M_alt    "P 1"
_space_group_IT_number       1

loop_
  _space_group_symop_operation_xyz
  'x, y, z'

loop_
  _atom_site_type_symbol
  _atom_site_label
  _atom_site_symmetry_multiplicity
  _atom_site_fract_x
  _atom_site_fract_y
  _atom_site_fract_z
  _atom_site_occupancy
  Br  Br1       1.0  0.984413206577301  0.13117454946041107  0.802438735961914  1.0000
  Cl  Cl1       1.0  0.30883127450942993  0.4989238381385803  0.8002485632896423  1.0000
  F   F1        1.0  0.10967032611370087  0.6755884289741516  0.34503990411758423  1.0000
  Gd  Gd1       1.0  0.730715274810791  0.5977547764778137  0.5177230834960938  1.0000
  Ge  Ge1       1.0  0.6710426211357117  0.8157892227172852  0.802488386631012  1.0000
  N   N1        1.0  0.40678223967552185  0.9108731746673584  0.34937426447868347  1.0000
  Nb  Nb1       1.0  0.06363300234079361  0.8844495415687561  0.5238000750541686  1.0000
  Sc  Sc1       1.0  0.5013301372528076  0.07208146154880524  0.040523894131183624  1.0000
  Xe  Xe1       1.0  0.8101951479911804  0.28743281960487366  0.2839013934135437  1.0000
