data_image0
_chemical_formula_structural       C2Ga3K3N5NiZn2
_chemical_formula_sum              "C2 Ga3 K3 N5 Ni1 Zn2"
_cell_length_a       6.556743697837547
_cell_length_b       6.523735960041631
_cell_length_c       10.649287223815918
_cell_angle_alpha    89.6285431927893
_cell_angle_beta     89.46825985804989
_cell_angle_gamma    117.99078927497096

_space_group_name_H-M_alt    "P 1"
_space_group_IT_number       1

loop_
  _space_group_symop_operation_xyz
  'x, y, z'

loop_
  _atom_site_type_symbol
  _atom_site_label
  _atom_site_symmetry_multiplicity
  _atom_site_fract_x
  _atom_site_fract_y
  _atom_site_fract_z
  _atom_site_occupancy
  C   C1        1.0  0.9133411645889282  0.3821129202842713  0.12908826768398285  1.0000
  C   C2        1.0  0.09975752979516983  0.6345567107200623  0.4285318851470947  1.0000
  Ga  Ga1       1.0  0.9341864585876465  0.09506584703922272  0.6472468972206116  1.0000
  Ga  Ga2       1.0  0.05696921050548557  0.3887863457202912  0.20867317914962769  1.0000
  Ga  Ga3       1.0  0.8274747133255005  0.5400104522705078  0.8670567274093628  1.0000
  K   K1        1.0  0.07818717509508133  0.3187335431575775  0.34125885367393494  1.0000
  K   K2        1.0  0.5571123957633972  0.7522398829460144  0.4543082416057586  1.0000
  K   K3        1.0  0.18869765102863312  0.5252103805541992  0.1185375452041626  1.0000
  N   N1        1.0  0.36201950907707214  0.28521373867988586  0.06742505729198456  1.0000
  N   N2        1.0  0.2825144529342652  0.8578882217407228  0.426334947347641  1.0000
  N   N3        1.0  0.7241382598876953  0.4157522022724152  0.4915069043636322  1.0000
  N   N4        1.0  0.37709736824035645  0.6111364960670471  0.7362465858459473  1.0000
  N   N5        1.0  0.9645106792449951  0.3383820950984955  0.603340744972229  1.0000
  Ni  Ni1       1.0  0.40649306774139404  0.17363382875919342  0.6729134321212769  1.0000
  Zn  Zn1       1.0  0.7716673016548157  0.2779373824596405  0.5093753933906555  1.0000
  Zn  Zn2       1.0  0.8456138372421265  0.36441123485565186  0.962578535079956  1.0000
