data_image0
_chemical_formula_structural       C2ClGa2K4N3PbPtZn2
_chemical_formula_sum              "C2 Cl1 Ga2 K4 N3 Pb1 Pt1 Zn2"
_cell_length_a       7.795043281406686
_cell_length_b       7.589494261218465
_cell_length_c       9.262642860412598
_cell_angle_alpha    112.4087833750992
_cell_angle_beta     100.35544433360148
_cell_angle_gamma    113.30566923572063

_space_group_name_H-M_alt    "P 1"
_space_group_IT_number       1

loop_
  _space_group_symop_operation_xyz
  'x, y, z'

loop_
  _atom_site_type_symbol
  _atom_site_label
  _atom_site_symmetry_multiplicity
  _atom_site_fract_x
  _atom_site_fract_y
  _atom_site_fract_z
  _atom_site_occupancy
  C   C1        1.0  0.2913486361503601  0.33109939098358154  0.935036838054657  1.0000
  C   C2        1.0  0.7917159199714661  0.5789360404014587  0.12235956639051437  1.0000
  Cl  Cl1       1.0  0.4665026068687439  0.7397640347480774  0.5257032513618469  1.0000
  Ga  Ga1       1.0  0.9237989783287048  0.8936107754707336  0.9580450057983398  1.0000
  Ga  Ga2       1.0  0.4239825904369354  0.570469081401825  0.18456394970417023  1.0000
  K   K1        1.0  0.926705002784729  0.5871521830558777  0.9388866424560547  1.0000
  K   K2        1.0  0.4444780945777893  0.7519060969352722  0.5067976117134094  1.0000
  K   K3        1.0  0.919547438621521  0.48483017086982727  0.4858856797218323  1.0000
  K   K4        1.0  0.9264615774154663  0.14530633389949799  0.6137163639068604  1.0000
  N   N1        1.0  0.7229350805282593  0.7542297840118408  0.8726464509963989  1.0000
  N   N2        1.0  0.48336175084114075  0.8307762742042542  0.7324309349060059  1.0000
  N   N3        1.0  0.09640039503574371  0.1950899064540863  0.7634005546569824  1.0000
  Pb  Pb1       1.0  0.5131746530532837  0.2532815635204315  0.5483136177062988  1.0000
  Pt  Pt1       1.0  0.30817994475364685  0.9553197026252747  0.6211320161819458  1.0000
  Zn  Zn1       1.0  0.9554092288017273  0.7651675343513489  0.0046373284421860695  1.0000
  Zn  Zn2       1.0  0.4200446903705597  0.5047024488449097  0.4572932720184326  1.0000
