data_image0
_chemical_formula_structural       Cu4Fe6N5P
_chemical_formula_sum              "Cu4 Fe6 N5 P1"
_cell_length_a       6.045868998071018
_cell_length_b       6.075554544596961
_cell_length_c       5.836655139923096
_cell_angle_alpha    88.65278350666402
_cell_angle_beta     88.97945238682333
_cell_angle_gamma    90.94768660409892

_space_group_name_H-M_alt    "P 1"
_space_group_IT_number       1

loop_
  _space_group_symop_operation_xyz
  'x, y, z'

loop_
  _atom_site_type_symbol
  _atom_site_label
  _atom_site_symmetry_multiplicity
  _atom_site_fract_x
  _atom_site_fract_y
  _atom_site_fract_z
  _atom_site_occupancy
  Cu  Cu1       1.0  0.8680198192596436  0.120890773832798  0.49316874146461487  1.0000
  Cu  Cu2       1.0  0.37122616171836853  0.3938085734844208  0.08049879223108292  1.0000
  Cu  Cu3       1.0  0.877656877040863  0.5646405816078186  0.4559406638145447  1.0000
  Cu  Cu4       1.0  0.3427060842514038  0.2522599995136261  0.7751048803329468  1.0000
  Fe  Fe1       1.0  0.8791982531547546  0.7003402709960938  0.3104538023471832  1.0000
  Fe  Fe2       1.0  0.8716899156570435  0.8975812792778015  0.8785827159881592  1.0000
  Fe  Fe3       1.0  0.8975644111633301  0.3474956452846527  0.2893207371234894  1.0000
  Fe  Fe4       1.0  0.3756203353404999  0.27625876665115356  0.8928353786468506  1.0000
  Fe  Fe5       1.0  0.3751383125782013  0.15347889065742493  0.9545468688011169  1.0000
  Fe  Fe6       1.0  0.36323416233062744  0.21512767672538757  0.9677793383598328  1.0000
  N   N1        1.0  0.37956932187080383  0.36972108483314514  0.8648338317871094  1.0000
  N   N2        1.0  0.9065985083580017  0.7884386777877808  0.237871915102005  1.0000
  N   N3        1.0  0.8765478730201721  0.36544954776763916  0.06168821454048157  1.0000
  N   N4        1.0  0.3693493604660034  0.7579518556594849  0.009743893519043922  1.0000
  N   N5        1.0  0.6200582385063171  0.8224048018455505  0.2383745312690735  1.0000
  P   P1        1.0  0.3769359290599823  0.35763469338417053  0.3823511600494385  1.0000
