data_image0
_chemical_formula_structural       C4CoCuFGa2K3NTaZn2
_chemical_formula_sum              "C4 Co1 Cu1 F1 Ga2 K3 N1 Ta1 Zn2"
_cell_length_a       4.9483538877199305
_cell_length_b       4.744753439412809
_cell_length_c       8.822178840637207
_cell_angle_alpha    91.17667380223439
_cell_angle_beta     90.39870183427622
_cell_angle_gamma    90.44100604702632

_space_group_name_H-M_alt    "P 1"
_space_group_IT_number       1

loop_
  _space_group_symop_operation_xyz
  'x, y, z'

loop_
  _atom_site_type_symbol
  _atom_site_label
  _atom_site_symmetry_multiplicity
  _atom_site_fract_x
  _atom_site_fract_y
  _atom_site_fract_z
  _atom_site_occupancy
  C   C1        1.0  0.2297145575284958  0.946784257888794  0.7520895600318909  1.0000
  C   C2        1.0  0.9017845988273621  0.839957594871521  0.6716431379318237  1.0000
  C   C3        1.0  0.934978723526001  0.5568125247955322  0.5070909857749939  1.0000
  C   C4        1.0  0.9525048136711121  0.1619090735912323  0.09337189048528671  1.0000
  Co  Co1       1.0  0.39859336614608765  0.4093470573425293  0.16034440696239471  1.0000
  Cu  Cu1       1.0  0.749511182308197  0.6553882360458374  0.5615118145942688  1.0000
  F   F1        1.0  0.817240834236145  0.4937085807323456  0.49930205941200256  1.0000
  Ga  Ga1       1.0  0.45774155855178833  0.21396960318088531  0.21465450525283813  1.0000
  Ga  Ga2       1.0  0.9614778757095337  0.6377066969871521  0.7792982459068298  1.0000
  K   K1        1.0  0.9211061000823975  0.4886960983276367  0.6583996415138245  1.0000
  K   K2        1.0  0.41032901406288147  0.5800877809524536  0.8368309140205383  1.0000
  K   K3        1.0  0.26559197902679443  0.3643117845058441  0.7719714641571045  1.0000
  N   N1        1.0  0.7510740160942078  0.146148219704628  0.12282699346542358  1.0000
  Ta  Ta1       1.0  0.4189949035644531  0.5723182559013367  0.05804329738020897  1.0000
  Zn  Zn1       1.0  0.4418368935585022  0.39343035221099854  0.2931983172893524  1.0000
  Zn  Zn2       1.0  0.3936609625816345  0.9760094285011292  0.14031250774860382  1.0000
