data_image0
_chemical_formula_structural       C8Ga3HKN2Zn
_chemical_formula_sum              "C8 Ga3 H1 K1 N2 Zn1"
_cell_length_a       6.502631464687196
_cell_length_b       6.71336698231972
_cell_length_c       8.414336204528809
_cell_angle_alpha    104.47300234348839
_cell_angle_beta     103.21467288905131
_cell_angle_gamma    108.3749260427601

_space_group_name_H-M_alt    "P 1"
_space_group_IT_number       1

loop_
  _space_group_symop_operation_xyz
  'x, y, z'

loop_
  _atom_site_type_symbol
  _atom_site_label
  _atom_site_symmetry_multiplicity
  _atom_site_fract_x
  _atom_site_fract_y
  _atom_site_fract_z
  _atom_site_occupancy
  C   C1        1.0  0.6151755452156067  0.3299315869808197  0.04065390303730965  1.0000
  C   C2        1.0  0.9375566244125366  0.8999617695808411  0.9301834106445312  1.0000
  C   C3        1.0  0.5633126497268677  0.9691063165664673  0.12302346527576447  1.0000
  C   C4        1.0  0.45269832015037537  0.7414855360984802  0.3368218243122101  1.0000
  C   C5        1.0  0.4566860795021057  0.5586348176002502  0.9165893793106079  1.0000
  C   C6        1.0  0.932006299495697  0.35765141248703003  0.7526866793632507  1.0000
  C   C7        1.0  0.7019558548927307  0.7694367170333862  0.8319437503814697  1.0000
  C   C8        1.0  0.9574695825576782  0.29537850618362427  0.5574401617050171  1.0000
  Ga  Ga1       1.0  0.9429751634597778  0.8369789719581604  0.5298669338226318  1.0000
  Ga  Ga2       1.0  0.011217745020985603  0.9585179686546326  0.09646483510732648  1.0000
  Ga  Ga3       1.0  0.13669829070568085  0.7428416609764099  0.622864842414856  1.0000
  H   H1        1.0  0.9427502155303955  0.5704292058944702  0.5260409712791443  1.0000
  K   K1        1.0  0.9516478180885315  0.7250601649284363  0.8739633560180664  1.0000
  N   N1        1.0  0.597692608833313  0.2782061994075775  0.955718457698822  1.0000
  N   N2        1.0  0.9248543977737427  0.8392655849456787  0.011991463601589203  1.0000
  Zn  Zn1       1.0  0.4404040277004242  0.3810625970363617  0.4484114348888397  1.0000
