data_image0
_chemical_formula_structural       CCu4Fe6N5
_chemical_formula_sum              "C1 Cu4 Fe6 N5"
_cell_length_a       6.298826582488723
_cell_length_b       6.759021906243428
_cell_length_c       7.465768337249756
_cell_angle_alpha    89.19328693962865
_cell_angle_beta     89.70025588761905
_cell_angle_gamma    93.59861927328932

_space_group_name_H-M_alt    "P 1"
_space_group_IT_number       1

loop_
  _space_group_symop_operation_xyz
  'x, y, z'

loop_
  _atom_site_type_symbol
  _atom_site_label
  _atom_site_symmetry_multiplicity
  _atom_site_fract_x
  _atom_site_fract_y
  _atom_site_fract_z
  _atom_site_occupancy
  C   C1        1.0  0.727564811706543  0.20657218992710114  0.24755239486694333  1.0000
  Cu  Cu1       1.0  0.12377697229385376  0.6417821645736694  0.4212969839572906  1.0000
  Cu  Cu2       1.0  0.9537966251373291  0.7831324934959412  0.9978193640708922  1.0000
  Cu  Cu3       1.0  0.14055119454860687  0.03020603209733963  0.4911965131759643  1.0000
  Cu  Cu4       1.0  0.4675968587398529  0.2351725846529007  0.8945708274841307  1.0000
  Fe  Fe1       1.0  0.11569928377866745  0.31518223881721497  0.8072044253349303  1.0000
  Fe  Fe2       1.0  0.6408385634422302  0.06425081938505173  0.5672992467880249  1.0000
  Fe  Fe3       1.0  0.6386759281158447  0.9586865305900574  0.21590752899646756  1.0000
  Fe  Fe4       1.0  0.05351627990603447  0.2264287769794464  0.5482290387153625  1.0000
  Fe  Fe5       1.0  0.20168061554431915  0.1419719159603119  0.12429281324148177  1.0000
  Fe  Fe6       1.0  0.5940272212028503  0.6989057064056396  0.9588091373443602  1.0000
  N   N1        1.0  0.14539024233818054  0.380450576543808  0.6418477296829223  1.0000
  N   N2        1.0  0.6314755082130432  0.950819194316864  0.928269326686859  1.0000
  N   N3        1.0  0.3289150595664978  0.9113436937332153  0.25829237699508667  1.0000
  N   N4        1.0  0.9833558201789856  0.10828523337841034  0.9591302275657653  1.0000
  N   N5        1.0  0.5253148078918457  0.4720847010612488  0.8530717492103576  1.0000
