data_image0
_chemical_formula_structural       AuNa4O4Pt
_chemical_formula_sum              "Au1 Na4 O4 Pt1"
_cell_length_a       4.720157909875323
_cell_length_b       6.556502803883103
_cell_length_c       6.5281081199646
_cell_angle_alpha    122.94315106693004
_cell_angle_beta     92.87583544047496
_cell_angle_gamma    88.54374618917335

_space_group_name_H-M_alt    "P 1"
_space_group_IT_number       1

loop_
  _space_group_symop_operation_xyz
  'x, y, z'

loop_
  _atom_site_type_symbol
  _atom_site_label
  _atom_site_symmetry_multiplicity
  _atom_site_fract_x
  _atom_site_fract_y
  _atom_site_fract_z
  _atom_site_occupancy
  Au  Au1       1.0  0.43888989090919495  0.23536624014377594  0.5281392335891724  1.0000
  Na  Na1       1.0  0.9372113943099976  0.19561044871807098  0.059542395174503326  1.0000
  Na  Na2       1.0  0.4237988293170929  0.9071951508522034  0.4800096154212952  1.0000
  Na  Na3       1.0  0.4249621033668518  0.8634743690490723  0.44937041401863104  1.0000
  Na  Na4       1.0  0.9394454956054688  0.39136531949043274  0.9578735828399658  1.0000
  O   O1        1.0  0.9449659585952759  0.5794568061828613  0.5408090949058533  1.0000
  O   O2        1.0  0.947523295879364  0.5267601609230042  0.7417466044425964  1.0000
  O   O3        1.0  0.44566822052001953  0.8509173393249512  0.5466554760932922  1.0000
  O   O4        1.0  0.4326052963733673  0.4554320275783539  0.02932184748351577  1.0000
  Pt  Pt1       1.0  0.9400784969329834  0.45151007175445557  0.5055500268936157  1.0000
