data_image0
_chemical_formula_structural       Na3O5Pt2
_chemical_formula_sum              "Na3 O5 Pt2"
_cell_length_a       5.200756594897877
_cell_length_b       5.680940829416662
_cell_length_c       6.157053470611572
_cell_angle_alpha    119.64821525774263
_cell_angle_beta     110.76536001828117
_cell_angle_gamma    89.1810442701478

_space_group_name_H-M_alt    "P 1"
_space_group_IT_number       1

loop_
  _space_group_symop_operation_xyz
  'x, y, z'

loop_
  _atom_site_type_symbol
  _atom_site_label
  _atom_site_symmetry_multiplicity
  _atom_site_fract_x
  _atom_site_fract_y
  _atom_site_fract_z
  _atom_site_occupancy
  Na  Na1       1.0  0.5117115378379822  0.552435040473938  0.06212186440825463  1.0000
  Na  Na2       1.0  0.026678720489144325  0.024501867592334747  0.29837334156036377  1.0000
  Na  Na3       1.0  0.5223535895347595  0.07898978143930435  0.8171575665473938  1.0000
  O   O1        1.0  0.32877814769744873  0.7636591792106628  0.9995136260986329  1.0000
  O   O2        1.0  0.1871252804994583  0.020506806671619415  0.3847651481628418  1.0000
  O   O3        1.0  0.7930744886398315  0.29883167147636414  0.8800196051597596  1.0000
  O   O4        1.0  0.7259111404418945  0.44089803099632263  0.15062664449214935  1.0000
  O   O5        1.0  0.2237887978553772  0.9853195548057556  0.1674605607986451  1.0000
  Pt  Pt1       1.0  0.7179418206214905  0.9151835441589355  0.3838396668434144  1.0000
  Pt  Pt2       1.0  0.9984646439552307  0.26119720935821533  0.5391420125961304  1.0000
