data_image0
_chemical_formula_structural       ClNa2O6Os
_chemical_formula_sum              "Cl1 Na2 O6 Os1"
_cell_length_a       3.9097153213923836
_cell_length_b       7.11394277225679
_cell_length_c       7.219664096832275
_cell_angle_alpha    121.65345690448018
_cell_angle_beta     91.0239444926359
_cell_angle_gamma    88.46833416113738

_space_group_name_H-M_alt    "P 1"
_space_group_IT_number       1

loop_
  _space_group_symop_operation_xyz
  'x, y, z'

loop_
  _atom_site_type_symbol
  _atom_site_label
  _atom_site_symmetry_multiplicity
  _atom_site_fract_x
  _atom_site_fract_y
  _atom_site_fract_z
  _atom_site_occupancy
  Cl  Cl1       1.0  0.3063478171825409  0.24659210443496704  0.09324052184820177  1.0000
  Na  Na1       1.0  0.3045834004878998  0.6458567976951599  0.35069784522056585  1.0000
  Na  Na2       1.0  0.8079437613487244  0.31652650237083435  0.4458258748054504  1.0000
  O   O1        1.0  0.8152578473091125  0.693838894367218  0.4098339974880218  1.0000
  O   O2        1.0  0.30231454968452454  0.825057327747345  0.11154866218566893  1.0000
  O   O3        1.0  0.31340935826301575  0.15411533415317535  0.10405857861042021  1.0000
  O   O4        1.0  0.8032398223876953  0.6463779807090759  0.1213669255375862  1.0000
  O   O5        1.0  0.8133858442306519  0.8570623397827148  0.3743868172168731  1.0000
  O   O6        1.0  0.31477606296539307  0.850541889667511  0.11669764667749404  1.0000
  Os  Os1       1.0  0.30785998702049255  0.1578793078660965  0.44839209318161005  1.0000
