data_image0
_chemical_formula_structural       AlCl2Na3O4
_chemical_formula_sum              "Al1 Cl2 Na3 O4"
_cell_length_a       5.382768513060084
_cell_length_b       5.832102384287974
_cell_length_c       5.990204334259033
_cell_angle_alpha    70.55471178220081
_cell_angle_beta     60.91982967547018
_cell_angle_gamma    63.34634255032721

_space_group_name_H-M_alt    "P 1"
_space_group_IT_number       1

loop_
  _space_group_symop_operation_xyz
  'x, y, z'

loop_
  _atom_site_type_symbol
  _atom_site_label
  _atom_site_symmetry_multiplicity
  _atom_site_fract_x
  _atom_site_fract_y
  _atom_site_fract_z
  _atom_site_occupancy
  Al  Al1       1.0  0.5795260071754456  0.6290762424468994  0.9995330572128295  1.0000
  Cl  Cl1       1.0  0.38623863458633423  0.8084662556648254  0.826896846294403  1.0000
  Cl  Cl2       1.0  0.7550690174102783  0.04670276492834091  0.8240830302238463  1.0000
  Na  Na1       1.0  0.5255497097969055  0.12392492592334747  0.0488080009818077  1.0000
  Na  Na2       1.0  0.012536190450191498  0.3486068546772003  0.8190391063690184  1.0000
  Na  Na3       1.0  0.008369569666683674  0.6597257256507874  0.32765665650367737  1.0000
  O   O1        1.0  0.7189983129501343  0.11531046777963638  0.8157087564468383  1.0000
  O   O2        1.0  0.5910261869430542  0.7508379817008972  0.32599949836730946  1.0000
  O   O3        1.0  0.045702122151851654  0.8596795797348022  0.7485207319259642  1.0000
  O   O4        1.0  0.5400490760803223  0.8567924499511719  0.8161104917526244  1.0000
