data_image0
_chemical_formula_structural       Cl2Na3O4Zr
_chemical_formula_sum              "Cl2 Na3 O4 Zr1"
_cell_length_a       5.3160192569608675
_cell_length_b       5.615740336466815
_cell_length_c       5.299250602722168
_cell_angle_alpha    71.63383453886418
_cell_angle_beta     69.6037209515611
_cell_angle_gamma    75.164312438061

_space_group_name_H-M_alt    "P 1"
_space_group_IT_number       1

loop_
  _space_group_symop_operation_xyz
  'x, y, z'

loop_
  _atom_site_type_symbol
  _atom_site_label
  _atom_site_symmetry_multiplicity
  _atom_site_fract_x
  _atom_site_fract_y
  _atom_site_fract_z
  _atom_site_occupancy
  Cl  Cl1       1.0  0.7988612055778503  0.6399306654930115  0.8703765273094177  1.0000
  Cl  Cl2       1.0  0.8203519582748413  0.29897749423980713  0.13781492412090302  1.0000
  Na  Na1       1.0  0.6394774913787842  0.022896993905305862  0.8266526460647583  1.0000
  Na  Na2       1.0  0.6451341509819031  0.7388608455657959  0.3043957054615021  1.0000
  Na  Na3       1.0  0.14240367710590363  0.14168286323547363  0.30930742621421814  1.0000
  O   O1        1.0  0.2540358006954193  0.13740552961826324  0.012713253498077393  1.0000
  O   O2        1.0  0.9202539324760437  0.5378466248512268  0.4999263882637024  1.0000
  O   O3        1.0  0.4681273400783539  0.4173002243041992  0.48587387800216675  1.0000
  O   O4        1.0  0.13705234229564667  0.8492460250854492  0.11372504383325577  1.0000
  Zr  Zr1       1.0  0.13324818015098572  0.4299556612968445  0.010309257544577122  1.0000
