data_image0
_chemical_formula_structural       Cl2Na2O5Os
_chemical_formula_sum              "Cl2 Na2 O5 Os1"
_cell_length_a       4.646948493697357
_cell_length_b       6.621026664741173
_cell_length_c       6.674023151397705
_cell_angle_alpha    124.70312653584621
_cell_angle_beta     92.09988525386908
_cell_angle_gamma    88.11715570830404

_space_group_name_H-M_alt    "P 1"
_space_group_IT_number       1

loop_
  _space_group_symop_operation_xyz
  'x, y, z'

loop_
  _atom_site_type_symbol
  _atom_site_label
  _atom_site_symmetry_multiplicity
  _atom_site_fract_x
  _atom_site_fract_y
  _atom_site_fract_z
  _atom_site_occupancy
  Cl  Cl1       1.0  0.6620232462882996  0.5398045182228088  0.009152858518063954  1.0000
  Cl  Cl2       1.0  0.9271562695503235  0.04534982889890671  0.601970374584198  1.0000
  Na  Na1       1.0  0.4351120591163635  0.40461230278015137  0.3733344674110412  1.0000
  Na  Na2       1.0  0.93040531873703  0.41414305567741394  0.6059231162071228  1.0000
  O   O1        1.0  0.4241251051425934  0.5307571291923523  0.3695948123931884  1.0000
  O   O2        1.0  0.41335779428482056  0.8888523578643799  0.8535925149917601  1.0000
  O   O3        1.0  0.41818737983703613  0.13888369500637054  0.3428588211536407  1.0000
  O   O4        1.0  0.19515728950500488  0.6204349994659424  0.9562554955482482  1.0000
  O   O5        1.0  0.9127760529518127  0.14126746356487274  0.9248982071876525  1.0000
  Os  Os1       1.0  0.4187646806240082  0.8157692551612854  0.6562995314598082  1.0000
