data_image0
_chemical_formula_structural       HgK5N3S3Si
_chemical_formula_sum              "Hg1 K5 N3 S3 Si1"
_cell_length_a       6.089474564647085
_cell_length_b       7.222168976036265
_cell_length_c       8.176762580871582
_cell_angle_alpha    74.76864484024476
_cell_angle_beta     66.06153259006153
_cell_angle_gamma    64.42033814833222

_space_group_name_H-M_alt    "P 1"
_space_group_IT_number       1

loop_
  _space_group_symop_operation_xyz
  'x, y, z'

loop_
  _atom_site_type_symbol
  _atom_site_label
  _atom_site_symmetry_multiplicity
  _atom_site_fract_x
  _atom_site_fract_y
  _atom_site_fract_z
  _atom_site_occupancy
  Hg  Hg1       1.0  0.618548572063446  0.18642869591712952  0.7949815392494202  1.0000
  K   K1        1.0  0.8834811449050903  0.8490297794342041  0.7899726033210754  1.0000
  K   K2        1.0  0.006342107895761688  0.9004157781600952  0.5887374877929688  1.0000
  K   K3        1.0  0.7704660296440125  0.83492112159729  0.9236922264099121  1.0000
  K   K4        1.0  0.2620930075645447  0.1146022379398346  0.34092697501182556  1.0000
  K   K5        1.0  0.8808504343032837  0.8632864952087402  0.2965356409549713  1.0000
  N   N1        1.0  0.4143407642841339  0.8491604328155518  0.6598451137542725  1.0000
  N   N2        1.0  0.6702802181243896  0.648788571357727  0.5429902672767639  1.0000
  N   N3        1.0  0.16187997162342072  0.4349653124809265  0.5384764671325684  1.0000
  S   S1        1.0  0.7533926963806152  0.18955272436141968  0.8573511242866516  1.0000
  S   S2        1.0  0.42699873447418213  0.39713209867477417  0.22810801863670352  1.0000
  S   S3        1.0  0.7647262811660767  0.8668813705444336  0.8894926905632019  1.0000
  Si  Si1       1.0  0.0999610498547554  0.6810927391052246  0.9221034049987793  1.0000
