data_image0
_chemical_formula_structural       K4LaN2S2Si3Y
_chemical_formula_sum              "K4 La1 N2 S2 Si3 Y1"
_cell_length_a       6.550010787808838
_cell_length_b       7.4512672128247965
_cell_length_c       7.46998405456543
_cell_angle_alpha    75.12313709768101
_cell_angle_beta     64.0418499780244
_cell_angle_gamma    64.20161200517596

_space_group_name_H-M_alt    "P 1"
_space_group_IT_number       1

loop_
  _space_group_symop_operation_xyz
  'x, y, z'

loop_
  _atom_site_type_symbol
  _atom_site_label
  _atom_site_symmetry_multiplicity
  _atom_site_fract_x
  _atom_site_fract_y
  _atom_site_fract_z
  _atom_site_occupancy
  K   K1        1.0  0.5627115368843079  0.6765567064285278  0.8316699266433716  1.0000
  K   K2        1.0  0.8901558518409729  0.3481503427028656  0.8795991539955139  1.0000
  K   K3        1.0  0.3218770921230316  0.656287431716919  0.6831701397895813  1.0000
  K   K4        1.0  0.4185945391654968  0.004916946403682232  0.9314608573913573  1.0000
  La  La1       1.0  0.5737420916557312  0.6287466883659363  0.48552340269088745  1.0000
  N   N1        1.0  0.8249393701553345  0.6441266536712646  0.1943742334842682  1.0000
  N   N2        1.0  0.13240152597427368  0.05051605403423309  0.7020843029022217  1.0000
  S   S1        1.0  0.13254357874393463  0.5305894017219543  0.3956632912158966  1.0000
  S   S2        1.0  0.8365882635116577  0.3915580213069916  0.46410858631134033  1.0000
  Si  Si1       1.0  0.8189016580581665  0.9332103729248047  0.002888542832806766  1.0000
  Si  Si2       1.0  0.4804536700248718  0.05221676826477051  0.9938899874687195  1.0000
  Si  Si3       1.0  0.7426608204841614  0.9847442507743835  0.13845741748809814  1.0000
  Y   Y1        1.0  0.8326966166496277  0.3614118993282318  0.9816335439682007  1.0000
