data_image0
_chemical_formula_structural       Ag4KLaNRh2S4
_chemical_formula_sum              "Ag4 K1 La1 N1 Rh2 S4"
_cell_length_a       6.540632006875221
_cell_length_b       8.748068006425356
_cell_length_c       8.897407531738281
_cell_angle_alpha    120.29098250879828
_cell_angle_beta     90.982951132373
_cell_angle_gamma    87.1192996024018

_space_group_name_H-M_alt    "P 1"
_space_group_IT_number       1

loop_
  _space_group_symop_operation_xyz
  'x, y, z'

loop_
  _atom_site_type_symbol
  _atom_site_label
  _atom_site_symmetry_multiplicity
  _atom_site_fract_x
  _atom_site_fract_y
  _atom_site_fract_z
  _atom_site_occupancy
  Ag  Ag1       1.0  0.2598860263824463  0.404207319021225  0.4260844886302948  1.0000
  Ag  Ag2       1.0  0.8436105847358704  0.9251965284347534  0.31917035579681396  1.0000
  Ag  Ag3       1.0  0.6208345293998718  0.8257200121879578  0.2417909950017929  1.0000
  Ag  Ag4       1.0  0.7862542271614075  0.5202285647392273  0.9193710088729858  1.0000
  K   K1        1.0  0.691754937171936  0.2949650287628174  0.8528823852539062  1.0000
  La  La1       1.0  0.1754436194896698  0.5154305696487427  0.1858001947402954  1.0000
  N   N1        1.0  0.7305455803871155  0.11400850862264633  0.5258509516716003  1.0000
  Rh  Rh1       1.0  0.8526748418807983  0.926402747631073  0.5295515060424805  1.0000
  Rh  Rh2       1.0  0.8853878974914551  0.4244053363800049  0.24857674539089203  1.0000
  S   S1        1.0  0.5408501625061035  0.06451687216758728  0.13027586042881012  1.0000
  S   S2        1.0  0.8361618518829346  0.6422531604766846  0.4670041799545288  1.0000
  S   S3        1.0  0.044136159121990204  0.30324867367744446  0.8917520642280579  1.0000
  S   S4        1.0  0.03889568895101547  0.9399522542953491  0.5819613337516785  1.0000
