data_image0
_chemical_formula_structural       Ag3K3La2N2S3
_chemical_formula_sum              "Ag3 K3 La2 N2 S3"
_cell_length_a       9.022062388782944
_cell_length_b       9.314277846323225
_cell_length_c       9.803780555725098
_cell_angle_alpha    61.744142971656736
_cell_angle_beta     61.190893933858824
_cell_angle_gamma    60.54417775533513

_space_group_name_H-M_alt    "P 1"
_space_group_IT_number       1

loop_
  _space_group_symop_operation_xyz
  'x, y, z'

loop_
  _atom_site_type_symbol
  _atom_site_label
  _atom_site_symmetry_multiplicity
  _atom_site_fract_x
  _atom_site_fract_y
  _atom_site_fract_z
  _atom_site_occupancy
  Ag  Ag1       1.0  0.9706505537033082  0.4753206372261047  0.2361178994178772  1.0000
  Ag  Ag2       1.0  0.9657152891159059  0.9329735040664672  0.33382344245910645  1.0000
  Ag  Ag3       1.0  0.48986101150512706  0.7913537025451659  0.7227166891098022  1.0000
  K   K1        1.0  0.6840670704841615  0.4477530419826507  0.15433210134506226  1.0000
  K   K2        1.0  0.7697569131851197  0.2520535886287689  0.48186689615249634  1.0000
  K   K3        1.0  0.19560854136943825  0.97361421585083  0.8198683261871338  1.0000
  La  La1       1.0  0.9201617240905763  0.9946525692939757  0.5761733055114746  1.0000
  La  La2       1.0  0.5237172842025757  0.37291899323463434  0.815589964389801  1.0000
  N   N1        1.0  0.9789962768554689  0.8716229796409606  0.31133654713630676  1.0000
  N   N2        1.0  0.7270066142082215  0.7399809360504149  0.1345660388469696  1.0000
  S   S1        1.0  0.24633473157882693  0.5804783701896667  0.03365495800971985  1.0000
  S   S2        1.0  0.9323546886444093  0.21784825623035428  0.247703418135643  1.0000
  S   S3        1.0  0.6675090789794922  0.7136191725730895  0.8306204676628113  1.0000
