data_image0
_chemical_formula_structural       KLa2NS4Si3TlY
_chemical_formula_sum              "K1 La2 N1 S4 Si3 Tl1 Y1"
_cell_length_a       7.234293111013895
_cell_length_b       7.653508453439658
_cell_length_c       7.733404636383057
_cell_angle_alpha    65.1371302488764
_cell_angle_beta     62.63448486599904
_cell_angle_gamma    62.381765366498875

_space_group_name_H-M_alt    "P 1"
_space_group_IT_number       1

loop_
  _space_group_symop_operation_xyz
  'x, y, z'

loop_
  _atom_site_type_symbol
  _atom_site_label
  _atom_site_symmetry_multiplicity
  _atom_site_fract_x
  _atom_site_fract_y
  _atom_site_fract_z
  _atom_site_occupancy
  K   K1        1.0  0.02815934643149376  0.37210848927497864  0.481378585100174  1.0000
  La  La1       1.0  0.4337947368621826  0.044095996767282486  0.643165647983551  1.0000
  La  La2       1.0  0.11790553480386734  0.949912965297699  0.028395611792802814  1.0000
  N   N1        1.0  0.24259981513023376  0.8015148639678955  0.23370139300823214  1.0000
  S   S1        1.0  0.8277794122695923  0.7358715534210205  0.5194695591926575  1.0000
  S   S2        1.0  0.18879245221614838  0.5558899641036987  0.7066789269447327  1.0000
  S   S3        1.0  0.21384146809577942  0.9173994660377502  0.2709074020385742  1.0000
  S   S4        1.0  0.18994659185409546  0.09825251251459122  0.13020266592502594  1.0000
  Si  Si1       1.0  0.03449848294258118  0.8687606453895569  0.4942529201507569  1.0000
  Si  Si2       1.0  0.2579492926597595  0.8579355478286743  0.7773637771606445  1.0000
  Si  Si3       1.0  0.9812910556793213  0.13091501593589783  0.38686636090278625  1.0000
  Tl  Tl1       1.0  0.03120812587440014  0.3683677017688751  0.7876907587051392  1.0000
  Y   Y1        1.0  0.6958869099617004  0.4013351500034332  0.8850955963134767  1.0000
