data_image0
_chemical_formula_structural       KLaN3NiRhS3Si3
_chemical_formula_sum              "K1 La1 N3 Ni1 Rh1 S3 Si3"
_cell_length_a       6.043849326319259
_cell_length_b       6.772642076558775
_cell_length_c       8.609538078308105
_cell_angle_alpha    75.86930052435332
_cell_angle_beta     70.53532103435963
_cell_angle_gamma    63.88839243139377

_space_group_name_H-M_alt    "P 1"
_space_group_IT_number       1

loop_
  _space_group_symop_operation_xyz
  'x, y, z'

loop_
  _atom_site_type_symbol
  _atom_site_label
  _atom_site_symmetry_multiplicity
  _atom_site_fract_x
  _atom_site_fract_y
  _atom_site_fract_z
  _atom_site_occupancy
  K   K1        1.0  0.6603277921676636  0.30290737748146057  0.47307467460632324  1.0000
  La  La1       1.0  0.38464269042015076  0.826593816280365  0.5833633542060852  1.0000
  N   N1        1.0  0.004301704466342926  0.9717661738395691  0.12747879326343536  1.0000
  N   N2        1.0  0.5152807235717773  0.9231759905815125  0.05119975283741951  1.0000
  N   N3        1.0  0.496051013469696  0.8320298790931702  0.2417854219675064  1.0000
  Ni  Ni1       1.0  0.9411790966987609  0.4686763882637024  0.8995374441146851  1.0000
  Rh  Rh1       1.0  0.1638314425945282  0.5051798820495605  0.6800113916397095  1.0000
  S   S1        1.0  0.31939658522605896  0.7254906296730042  0.893984854221344  1.0000
  S   S2        1.0  0.5849400758743286  0.41005611419677734  0.23630422353744507  1.0000
  S   S3        1.0  0.9677312374114989  0.08535073697566986  0.742231547832489  1.0000
  Si  Si1       1.0  0.8059328198432922  0.4920859932899475  0.6114277839660645  1.0000
  Si  Si2       1.0  0.6189003586769104  0.67421954870224  0.10260229557752609  1.0000
  Si  Si3       1.0  0.273161917924881  0.1182231605052948  0.12706348299980164  1.0000
