data_image0
_chemical_formula_structural       FHIO2P4PbZr2
_chemical_formula_sum              "F1 H1 I1 O2 P4 Pb1 Zr2"
_cell_length_a       5.3695231324361
_cell_length_b       5.482302340753728
_cell_length_c       8.567899703979492
_cell_angle_alpha    89.94262915081416
_cell_angle_beta     85.53959145891027
_cell_angle_gamma    72.24814086475041

_space_group_name_H-M_alt    "P 1"
_space_group_IT_number       1

loop_
  _space_group_symop_operation_xyz
  'x, y, z'

loop_
  _atom_site_type_symbol
  _atom_site_label
  _atom_site_symmetry_multiplicity
  _atom_site_fract_x
  _atom_site_fract_y
  _atom_site_fract_z
  _atom_site_occupancy
  F   F1        1.0  0.349006712436676  0.553294837474823  0.31140685081481934  1.0000
  H   H1        1.0  0.37625789642333984  0.299835741519928  0.5700269937515259  1.0000
  I   I1        1.0  0.019020959734916687  0.4739159047603607  0.3310137391090393  1.0000
  O   O1        1.0  0.6372515559196472  0.49027103185653687  0.8928238153457642  1.0000
  O   O2        1.0  0.980229079723358  0.7281063795089722  0.6360393762588501  1.0000
  P   P1        1.0  0.08525167405605316  0.093497134745121  0.13371630012989044  1.0000
  P   P2        1.0  0.8301815390586853  0.6124733686447144  0.8268542885780334  1.0000
  P   P3        1.0  0.3922598361968994  0.8421770334243774  0.9177258610725402  1.0000
  P   P4        1.0  0.8009809255599976  0.2532738745212555  0.8453025817871094  1.0000
  Pb  Pb1       1.0  0.2572934627532959  0.5480334162712097  0.9206371903419495  1.0000
  Zr  Zr1       1.0  0.7731139659881592  0.2437720149755478  0.285304993391037  1.0000
  Zr  Zr2       1.0  0.8575097918510436  0.6246914863586426  0.3176787793636322  1.0000
