data_image0
_chemical_formula_structural       HO2P2ZnZr6
_chemical_formula_sum              "H1 O2 P2 Zn1 Zr6"
_cell_length_a       4.360505836497049
_cell_length_b       3.5801794820735973
_cell_length_c       8.144726753234863
_cell_angle_alpha    114.45337725148603
_cell_angle_beta     88.46243834828144
_cell_angle_gamma    97.7558838995324

_space_group_name_H-M_alt    "P 1"
_space_group_IT_number       1

loop_
  _space_group_symop_operation_xyz
  'x, y, z'

loop_
  _atom_site_type_symbol
  _atom_site_label
  _atom_site_symmetry_multiplicity
  _atom_site_fract_x
  _atom_site_fract_y
  _atom_site_fract_z
  _atom_site_occupancy
  H   H1        1.0  0.6999723315238953  0.3166176378726959  0.48602721095085144  1.0000
  O   O1        1.0  0.8977038860321045  0.6010481119155884  0.5484282374382019  1.0000
  O   O2        1.0  0.9186533093452454  0.636700451374054  0.7894641757011414  1.0000
  P   P1        1.0  0.6826018691062927  0.2660791575908661  0.4759426414966583  1.0000
  P   P2        1.0  0.18447764217853546  0.23143017292022708  0.9351325035095215  1.0000
  Zn  Zn1       1.0  0.6834344267845154  0.49709290266036993  0.33381015062332153  1.0000
  Zr  Zr1       1.0  0.6964280009269714  0.912097454071045  0.5254182815551758  1.0000
  Zr  Zr2       1.0  0.6854848861694336  0.07659072428941727  0.920932412147522  1.0000
  Zr  Zr3       1.0  0.05168551951646805  0.5491858124732971  0.014211954548954964  1.0000
  Zr  Zr4       1.0  0.6980044841766357  0.2635948359966278  0.7980006337165833  1.0000
  Zr  Zr5       1.0  0.04786824807524681  0.5389423370361328  0.9699005484580994  1.0000
  Zr  Zr6       1.0  0.17232567071914673  0.6047042608261108  0.3961034119129181  1.0000
