data_image0
_chemical_formula_structural       H2IO4P5
_chemical_formula_sum              "H2 I1 O4 P5"
_cell_length_a       4.168504268754184
_cell_length_b       4.769521585007713
_cell_length_c       8.246214866638184
_cell_angle_alpha    71.05305721740837
_cell_angle_beta     71.96983776281323
_cell_angle_gamma    109.61602607709521

_space_group_name_H-M_alt    "P 1"
_space_group_IT_number       1

loop_
  _space_group_symop_operation_xyz
  'x, y, z'

loop_
  _atom_site_type_symbol
  _atom_site_label
  _atom_site_symmetry_multiplicity
  _atom_site_fract_x
  _atom_site_fract_y
  _atom_site_fract_z
  _atom_site_occupancy
  H   H1        1.0  0.5471188426017761  0.6129756569862367  0.3053858876228332  1.0000
  H   H2        1.0  0.15080273151397705  0.03321513533592225  0.923058271408081  1.0000
  I   I1        1.0  0.5419672727584839  0.47519260644912725  0.729267418384552  1.0000
  O   O1        1.0  0.38305073976516735  0.6749714612960817  0.8848380446434021  1.0000
  O   O2        1.0  0.4241890013217927  0.5802321434020997  0.2263664603233337  1.0000
  O   O3        1.0  0.4647515118122102  0.5355279445648194  0.6848586201667786  1.0000
  O   O4        1.0  0.9048070311546327  0.6937351226806642  0.8840285539627075  1.0000
  P   P1        1.0  0.6310195326805115  0.06140891090035439  0.9569116830825807  1.0000
  P   P2        1.0  0.940025568008423  0.2105723023414612  0.8998794555664062  1.0000
  P   P3        1.0  0.6122052669525146  0.031009856611490253  0.916394591331482  1.0000
  P   P4        1.0  0.6244199872016907  0.05751899257302285  0.18522682785987854  1.0000
  P   P5        1.0  0.1287912577390671  0.455970585346222  0.8869710564613342  1.0000
