data_image0
_chemical_formula_structural       HO4P3Zr4
_chemical_formula_sum              "H1 O4 P3 Zr4"
_cell_length_a       3.6533012679546317
_cell_length_b       4.235631371040945
_cell_length_c       7.309518814086914
_cell_angle_alpha    99.41981625649545
_cell_angle_beta     101.46702377592916
_cell_angle_gamma    80.33321084662606

_space_group_name_H-M_alt    "P 1"
_space_group_IT_number       1

loop_
  _space_group_symop_operation_xyz
  'x, y, z'

loop_
  _atom_site_type_symbol
  _atom_site_label
  _atom_site_symmetry_multiplicity
  _atom_site_fract_x
  _atom_site_fract_y
  _atom_site_fract_z
  _atom_site_occupancy
  H   H1        1.0  0.3193367123603821  0.3451332747936249  0.007359464652836323  1.0000
  O   O1        1.0  0.5330029129981995  0.9063616394996643  0.29876017570495605  1.0000
  O   O2        1.0  0.32842764258384705  0.5743881464004517  0.34220951795578003  1.0000
  O   O3        1.0  0.8069117665290833  0.468365877866745  0.07804800570011139  1.0000
  O   O4        1.0  0.34351882338523865  0.038961198180913925  0.5263344049453734  1.0000
  P   P1        1.0  0.802136242389679  0.39348238706588745  0.09101396054029465  1.0000
  P   P2        1.0  0.4198538064956665  0.04420456290245056  0.907895028591156  1.0000
  P   P3        1.0  0.6743180155754089  0.4445142149925232  0.7644584774971008  1.0000
  Zr  Zr1       1.0  0.8714034557342529  0.8090054988861084  0.04183058440685272  1.0000
  Zr  Zr2       1.0  0.2499418556690216  0.18072490394115448  0.333382248878479  1.0000
  Zr  Zr3       1.0  0.13033513724803925  0.5324390530586243  0.7132404446601868  1.0000
  Zr  Zr4       1.0  0.3803531527519226  0.2099311649799347  0.5695330500602722  1.0000
