data_image0
_chemical_formula_structural       H2I2O2P6
_chemical_formula_sum              "H2 I2 O2 P6"
_cell_length_a       4.603795866511702
_cell_length_b       4.688324534070341
_cell_length_c       9.607281684875488
_cell_angle_alpha    91.62786730263743
_cell_angle_beta     90.52848579751907
_cell_angle_gamma    90.54034218971844

_space_group_name_H-M_alt    "P 1"
_space_group_IT_number       1

loop_
  _space_group_symop_operation_xyz
  'x, y, z'

loop_
  _atom_site_type_symbol
  _atom_site_label
  _atom_site_symmetry_multiplicity
  _atom_site_fract_x
  _atom_site_fract_y
  _atom_site_fract_z
  _atom_site_occupancy
  H   H1        1.0  0.13994500041007996  0.3305369019508362  0.7210143804550171  1.0000
  H   H2        1.0  0.9818653464317322  0.24583502113819122  0.09591184556484222  1.0000
  I   I1        1.0  0.4813691973686218  0.828446626663208  0.5810332298278809  1.0000
  I   I2        1.0  0.9626384377479553  0.10616179555654526  0.0063951401971280575  1.0000
  O   O1        1.0  0.4699506461620331  0.06142383813858032  0.4069640338420868  1.0000
  O   O2        1.0  0.040474358946084976  0.8165190815925598  0.1852567493915558  1.0000
  P   P1        1.0  0.032836783677339554  0.8383752703666687  0.3768598437309265  1.0000
  P   P2        1.0  0.47414469718933105  0.0013000270118936896  0.12486188113689423  1.0000
  P   P3        1.0  0.95836341381073  0.6624048352241516  0.6632713079452515  1.0000
  P   P4        1.0  0.01202741265296936  0.13938280940055847  0.810888946056366  1.0000
  P   P5        1.0  0.00010249047772958875  0.4749561548233032  0.2297779619693756  1.0000
  P   P6        1.0  0.4623928368091583  0.10072048008441925  0.502941906452179  1.0000
