data_image0
_chemical_formula_structural       O2P3Zr7
_chemical_formula_sum              "O2 P3 Zr7"
_cell_length_a       4.822484006165633
_cell_length_b       5.599791724394048
_cell_length_c       8.631373405456543
_cell_angle_alpha    116.63444027482801
_cell_angle_beta     90.04397298670185
_cell_angle_gamma    89.10387626338732

_space_group_name_H-M_alt    "P 1"
_space_group_IT_number       1

loop_
  _space_group_symop_operation_xyz
  'x, y, z'

loop_
  _atom_site_type_symbol
  _atom_site_label
  _atom_site_symmetry_multiplicity
  _atom_site_fract_x
  _atom_site_fract_y
  _atom_site_fract_z
  _atom_site_occupancy
  O   O1        1.0  0.3158113658428192  0.9776302576065063  0.9468123316764832  1.0000
  O   O2        1.0  0.37426742911338806  0.4932090640068054  0.07575395703315735  1.0000
  P   P1        1.0  0.8795381784439087  0.6433143615722656  0.13494241237640384  1.0000
  P   P2        1.0  0.3828079104423523  0.07994075119495392  0.5444357991218567  1.0000
  P   P3        1.0  0.8810489773750305  0.1593453288078308  0.22720830142498016  1.0000
  Zr  Zr1       1.0  0.3785147964954376  0.16507236659526825  0.3640306293964386  1.0000
  Zr  Zr2       1.0  0.3771980404853821  0.293901652097702  0.3611885309219361  1.0000
  Zr  Zr3       1.0  0.8864490389823914  0.7829294800758362  0.7262453436851501  1.0000
  Zr  Zr4       1.0  0.3780074715614319  0.4815150797367096  0.874100387096405  1.0000
  Zr  Zr5       1.0  0.8819271922111511  0.1408335566520691  0.5373458862304688  1.0000
  Zr  Zr6       1.0  0.8828046321868896  0.17793551087379456  0.05896265432238579  1.0000
  Zr  Zr7       1.0  0.383506715297699  0.23181816935539246  0.710066020488739  1.0000
