data_image0
_chemical_formula_structural       Al4AsCd2I2O
_chemical_formula_sum              "Al4 As1 Cd2 I2 O1"
_cell_length_a       5.078526054525585
_cell_length_b       4.85673018445646
_cell_length_c       7.804800987243652
_cell_angle_alpha    94.43694353115423
_cell_angle_beta     92.88803010447414
_cell_angle_gamma    89.90789524567045

_space_group_name_H-M_alt    "P 1"
_space_group_IT_number       1

loop_
  _space_group_symop_operation_xyz
  'x, y, z'

loop_
  _atom_site_type_symbol
  _atom_site_label
  _atom_site_symmetry_multiplicity
  _atom_site_fract_x
  _atom_site_fract_y
  _atom_site_fract_z
  _atom_site_occupancy
  Al  Al1       1.0  0.26071423292160034  0.7804390788078308  0.34766656160354614  1.0000
  Al  Al2       1.0  0.2521759569644928  0.38634181022644043  0.7498618960380554  1.0000
  Al  Al3       1.0  0.5038896799087524  0.4739977121353149  0.5959597826004028  1.0000
  Al  Al4       1.0  0.7609809041023254  0.3776497542858124  0.8977707028388977  1.0000
  As  As1       1.0  0.25769174098968506  0.35632073879241943  0.8201878666877747  1.0000
  Cd  Cd1       1.0  0.7682053446769714  0.6751431822776794  0.8195375800132751  1.0000
  Cd  Cd2       1.0  0.2516745626926422  0.5506270527839661  0.663832426071167  1.0000
  I   I1        1.0  0.745968222618103  0.05382252112030982  0.06780611723661423  1.0000
  I   I2        1.0  0.2501120865345001  0.5465065836906433  0.6970396637916565  1.0000
  O   O1        1.0  0.01707408018410206  0.24937145411968228  0.28951093554496765  1.0000
