data_image0
_chemical_formula_structural       Al6CdI2Li
_chemical_formula_sum              "Al6 Cd1 I2 Li1"
_cell_length_a       6.0752544149578425
_cell_length_b       6.635143628454428
_cell_length_c       7.1939167976379395
_cell_angle_alpha    72.91368228032938
_cell_angle_beta     70.71423805114551
_cell_angle_gamma    72.68034688284013

_space_group_name_H-M_alt    "P 1"
_space_group_IT_number       1

loop_
  _space_group_symop_operation_xyz
  'x, y, z'

loop_
  _atom_site_type_symbol
  _atom_site_label
  _atom_site_symmetry_multiplicity
  _atom_site_fract_x
  _atom_site_fract_y
  _atom_site_fract_z
  _atom_site_occupancy
  Al  Al1       1.0  0.5845605134963989  0.09905233234167099  0.7275663614273071  1.0000
  Al  Al2       1.0  0.09883914142847063  0.08870874345302582  0.8094627261161804  1.0000
  Al  Al3       1.0  0.5940114259719849  0.10477258265018463  0.9128530025482178  1.0000
  Al  Al4       1.0  0.5781353712081909  0.8305708765983582  0.2577110826969147  1.0000
  Al  Al5       1.0  0.5872970819473267  0.7006498575210571  0.44990724325180054  1.0000
  Al  Al6       1.0  0.08228730410337448  0.611552894115448  0.6012271642684937  1.0000
  Cd  Cd1       1.0  0.12992091476917267  0.9237515926361084  0.5808314681053162  1.0000
  I   I1        1.0  0.8008382320404054  0.24416495859622955  0.37910065054893494  1.0000
  I   I2        1.0  0.08323606103658676  0.48579663038253784  0.11212746053934097  1.0000
  Li  Li1       1.0  0.5471484065055847  0.49146801233291626  0.5340637564659119  1.0000
