data_image0
_chemical_formula_structural       Al4Cd4GeZn
_chemical_formula_sum              "Al4 Cd4 Ge1 Zn1"
_cell_length_a       7.123520455415972
_cell_length_b       7.948551240760182
_cell_length_c       8.144627571105957
_cell_angle_alpha    109.50910555819874
_cell_angle_beta     105.14407787473105
_cell_angle_gamma    106.78623016056908

_space_group_name_H-M_alt    "P 1"
_space_group_IT_number       1

loop_
  _space_group_symop_operation_xyz
  'x, y, z'

loop_
  _atom_site_type_symbol
  _atom_site_label
  _atom_site_symmetry_multiplicity
  _atom_site_fract_x
  _atom_site_fract_y
  _atom_site_fract_z
  _atom_site_occupancy
  Al  Al1       1.0  0.6215985417366028  0.01522189751267433  0.6646223664283752  1.0000
  Al  Al2       1.0  0.6042174696922302  0.9744127392768859  0.42706891894340515  1.0000
  Al  Al3       1.0  0.40979620814323425  0.7038142085075378  0.8694907426834106  1.0000
  Al  Al4       1.0  0.10082200169563293  0.41422024369239807  0.4092690348625183  1.0000
  Cd  Cd1       1.0  0.7249738574028015  0.696919322013855  0.2121933102607727  1.0000
  Cd  Cd2       1.0  0.12479114532470703  0.33985480666160583  0.5747770667076111  1.0000
  Cd  Cd3       1.0  0.6495789885520935  0.3510185778141022  0.9666328430175781  1.0000
  Cd  Cd4       1.0  0.21115989983081818  0.7296596169471741  0.24816642701625818  1.0000
  Ge  Ge1       1.0  0.5965864658355713  0.5824853777885437  0.7088298797607422  1.0000
  Zn  Zn1       1.0  0.4101778566837311  0.635390043258667  0.9505313038825989  1.0000
