data_image0
_chemical_formula_structural       Al2Cd5OsS2
_chemical_formula_sum              "Al2 Cd5 Os1 S2"
_cell_length_a       5.20325224231396
_cell_length_b       5.253982709001925
_cell_length_c       8.692974090576172
_cell_angle_alpha    108.66187458287034
_cell_angle_beta     88.41351828137195
_cell_angle_gamma    107.42608995953837

_space_group_name_H-M_alt    "P 1"
_space_group_IT_number       1

loop_
  _space_group_symop_operation_xyz
  'x, y, z'

loop_
  _atom_site_type_symbol
  _atom_site_label
  _atom_site_symmetry_multiplicity
  _atom_site_fract_x
  _atom_site_fract_y
  _atom_site_fract_z
  _atom_site_occupancy
  Al  Al1       1.0  0.6646274328231812  0.6928432583808899  0.4442952275276184  1.0000
  Al  Al2       1.0  0.6614656448364258  0.17363163828849792  0.4599916636943817  1.0000
  Cd  Cd1       1.0  0.6620803475379944  0.01472786720842123  0.1506934016942978  1.0000
  Cd  Cd2       1.0  0.16662827134132385  0.6952186822891235  0.5431329607963562  1.0000
  Cd  Cd3       1.0  0.16855014860630035  0.2910235822200775  0.03163623437285424  1.0000
  Cd  Cd4       1.0  0.6722899675369263  0.28143545985221863  0.46056997776031494  1.0000
  Cd  Cd5       1.0  0.1625070869922638  0.00668708048760891  0.64381343126297  1.0000
  Os  Os1       1.0  0.15454132854938507  0.31333449482917786  0.659632682800293  1.0000
  S   S1        1.0  0.16150861978530884  0.8802539706230164  0.8579290509223938  1.0000
  S   S2        1.0  0.6163865923881531  0.12024471163749695  0.15286701917648315  1.0000
