data_image0
_chemical_formula_structural       Al4Cd6
_chemical_formula_sum              "Al4 Cd6"
_cell_length_a       5.251497134135122
_cell_length_b       5.779963969459098
_cell_length_c       5.596658706665039
_cell_angle_alpha    80.842279777288
_cell_angle_beta     69.82843732871982
_cell_angle_gamma    71.56617447119507

_space_group_name_H-M_alt    "P 1"
_space_group_IT_number       1

loop_
  _space_group_symop_operation_xyz
  'x, y, z'

loop_
  _atom_site_type_symbol
  _atom_site_label
  _atom_site_symmetry_multiplicity
  _atom_site_fract_x
  _atom_site_fract_y
  _atom_site_fract_z
  _atom_site_occupancy
  Al  Al1       1.0  0.46630099415779114  0.24073149263858795  0.7276589870452881  1.0000
  Al  Al2       1.0  0.9277610182762146  0.21627213060855865  0.14044651389122007  1.0000
  Al  Al3       1.0  0.9080981016159058  0.5059836506843567  0.5241701602935791  1.0000
  Al  Al4       1.0  0.7839455604553223  0.972754180431366  0.21327288448810577  1.0000
  Cd  Cd1       1.0  0.964674711227417  0.1499926745891571  0.7204594612121582  1.0000
  Cd  Cd2       1.0  0.48228856921195984  0.023501042276620865  0.5087405443191528  1.0000
  Cd  Cd3       1.0  0.9958270788192749  0.9805925488471985  0.2025490999221801  1.0000
  Cd  Cd4       1.0  0.46538883447647095  0.8585813641548157  0.05215702950954437  1.0000
  Cd  Cd5       1.0  0.1515023559331894  0.1197996437549591  0.7348055839538574  1.0000
  Cd  Cd6       1.0  0.45658716559410095  0.7019674181938171  0.5330426096916199  1.0000
