data_image0
_chemical_formula_structural       Al3Cd4S3
_chemical_formula_sum              "Al3 Cd4 S3"
_cell_length_a       5.173225004197138
_cell_length_b       5.931240448801923
_cell_length_c       5.2596259117126465
_cell_angle_alpha    70.22256841365434
_cell_angle_beta     62.17943601588313
_cell_angle_gamma    69.07069434128262

_space_group_name_H-M_alt    "P 1"
_space_group_IT_number       1

loop_
  _space_group_symop_operation_xyz
  'x, y, z'

loop_
  _atom_site_type_symbol
  _atom_site_label
  _atom_site_symmetry_multiplicity
  _atom_site_fract_x
  _atom_site_fract_y
  _atom_site_fract_z
  _atom_site_occupancy
  Al  Al1       1.0  0.7175429463386536  0.5698588490486145  0.6328776478767395  1.0000
  Al  Al2       1.0  0.738649845123291  0.15429121255874634  0.5357775092124939  1.0000
  Al  Al3       1.0  0.7268243432044983  0.12570782005786896  0.17319205403327942  1.0000
  Cd  Cd1       1.0  0.02417830191552639  0.5623944401741028  0.6583212018013  1.0000
  Cd  Cd2       1.0  0.6719499826431274  0.14494696259498596  0.4208527207374573  1.0000
  Cd  Cd3       1.0  0.44033750891685486  0.3801562488079071  0.08665613830089569  1.0000
  Cd  Cd4       1.0  0.9639101624488831  0.47487941384315485  0.4882935881614685  1.0000
  S   S1        1.0  0.04068297520279884  0.4227425456047058  0.5718153715133667  1.0000
  S   S2        1.0  0.37995079159736633  0.0006027427152730525  0.9770464897155762  1.0000
  S   S3        1.0  0.03684406355023384  0.4368703365325928  0.17437666654586792  1.0000
