data_image0
_chemical_formula_structural       AuK2S5Zn
_chemical_formula_sum              "Au1 K2 S5 Zn1"
_cell_length_a       6.402501429807714
_cell_length_b       6.2189574757953405
_cell_length_c       6.575643062591553
_cell_angle_alpha    107.63364181393557
_cell_angle_beta     113.06784382133796
_cell_angle_gamma    108.96676184527553

_space_group_name_H-M_alt    "P 1"
_space_group_IT_number       1

loop_
  _space_group_symop_operation_xyz
  'x, y, z'

loop_
  _atom_site_type_symbol
  _atom_site_label
  _atom_site_symmetry_multiplicity
  _atom_site_fract_x
  _atom_site_fract_y
  _atom_site_fract_z
  _atom_site_occupancy
  Au  Au1       1.0  0.710950195789337  0.5959444642066956  0.703338086605072  1.0000
  K   K1        1.0  0.9514881372451781  0.10880228132009506  0.38630333542823786  1.0000
  K   K2        1.0  0.3919567763805389  0.3507835268974304  0.6220787763595581  1.0000
  S   S1        1.0  0.6604589223861694  0.17583997547626495  0.2378910779953003  1.0000
  S   S2        1.0  0.9906734228134154  0.10590764135122299  0.5072318315505981  1.0000
  S   S3        1.0  0.2042502015829086  0.8423957824707031  0.2806779146194458  1.0000
  S   S4        1.0  0.08621484786272048  0.8600288033485413  0.614133894443512  1.0000
  S   S5        1.0  0.6667478084564209  0.18333256244659424  0.12036320567131042  1.0000
  Zn  Zn1       1.0  0.3139851987361908  0.644209086894989  0.4040786027908325  1.0000
