data_image0
_chemical_formula_structural       AuK5S3
_chemical_formula_sum              "Au1 K5 S3"
_cell_length_a       7.148828907334351
_cell_length_b       7.122742777469934
_cell_length_c       6.970560550689697
_cell_angle_alpha    107.13062945063729
_cell_angle_beta     109.10175155641298
_cell_angle_gamma    112.88704862717849

_space_group_name_H-M_alt    "P 1"
_space_group_IT_number       1

loop_
  _space_group_symop_operation_xyz
  'x, y, z'

loop_
  _atom_site_type_symbol
  _atom_site_label
  _atom_site_symmetry_multiplicity
  _atom_site_fract_x
  _atom_site_fract_y
  _atom_site_fract_z
  _atom_site_occupancy
  Au  Au1       1.0  0.12384043633937836  0.7272095084190369  0.09783539921045296  1.0000
  K   K1        1.0  0.10306371748447411  0.8960636258125304  0.5011937618255615  1.0000
  K   K2        1.0  0.12791016697883606  0.6613630652427673  0.1641355156898498  1.0000
  K   K3        1.0  0.41578957438468933  0.6385172605514526  0.456607311964035  1.0000
  K   K4        1.0  0.5965756773948669  0.3917391896247864  0.028371255844831467  1.0000
  K   K5        1.0  0.922278881072998  0.13135342299938202  0.9630164504051208  1.0000
  S   S1        1.0  0.2647552490234375  0.3952276110649109  0.8474969267845154  1.0000
  S   S2        1.0  0.6194291710853577  0.9823797941207885  0.9577791094779968  1.0000
  S   S3        1.0  0.8442273736000061  0.6793733239173889  0.5719379186630249  1.0000
