data_image0
_chemical_formula_structural       Au6KS2
_chemical_formula_sum              "Au6 K1 S2"
_cell_length_a       10.084393743093084
_cell_length_b       9.870000386344223
_cell_length_c       8.984843254089355
_cell_angle_alpha    89.13284137004389
_cell_angle_beta     89.29070642982295
_cell_angle_gamma    121.91870610504962

_space_group_name_H-M_alt    "P 1"
_space_group_IT_number       1

loop_
  _space_group_symop_operation_xyz
  'x, y, z'

loop_
  _atom_site_type_symbol
  _atom_site_label
  _atom_site_symmetry_multiplicity
  _atom_site_fract_x
  _atom_site_fract_y
  _atom_site_fract_z
  _atom_site_occupancy
  Au  Au1       1.0  0.1007564589381218  0.21534888446331024  0.7361329793930054  1.0000
  Au  Au2       1.0  0.04643847048282623  0.6506413817405701  0.5363699197769165  1.0000
  Au  Au3       1.0  0.391940712928772  0.4838429093360901  0.5391420125961304  1.0000
  Au  Au4       1.0  0.27751001715660095  0.21656754612922668  0.7748259902000427  1.0000
  Au  Au5       1.0  0.9024474620819092  0.9151661396026611  0.036482300609350204  1.0000
  Au  Au6       1.0  0.7739924788475037  0.34719914197921753  0.7532634735107422  1.0000
  K   K1        1.0  0.5550936460494995  0.7726531028747559  0.9553600549697876  1.0000
  S   S1        1.0  0.2219662368297577  0.6880289912223816  0.7382140755653381  1.0000
  S   S2        1.0  0.9096834063529968  0.37866276502609253  0.530779242515564  1.0000
