data_image0
_chemical_formula_structural       AuK4S4
_chemical_formula_sum              "Au1 K4 S4"
_cell_length_a       6.4137753733897895
_cell_length_b       5.7358806522855526
_cell_length_c       6.388925552368164
_cell_angle_alpha    114.61528560124567
_cell_angle_beta     103.40732084263465
_cell_angle_gamma    112.5922162767708

_space_group_name_H-M_alt    "P 1"
_space_group_IT_number       1

loop_
  _space_group_symop_operation_xyz
  'x, y, z'

loop_
  _atom_site_type_symbol
  _atom_site_label
  _atom_site_symmetry_multiplicity
  _atom_site_fract_x
  _atom_site_fract_y
  _atom_site_fract_z
  _atom_site_occupancy
  Au  Au1       1.0  0.8268160223960876  0.3299576938152313  0.18544946610927585  1.0000
  K   K1        1.0  0.10771716386079788  0.42393097281455994  0.4561916291713715  1.0000
  K   K2        1.0  0.1897045373916626  0.5528227090835571  0.6795132756233215  1.0000
  K   K3        1.0  0.6998447179794312  0.9987087249755859  0.5325437784194946  1.0000
  K   K4        1.0  0.6550779938697815  0.8673107028007507  0.6827203631401062  1.0000
  S   S1        1.0  0.29487282037734985  0.9445873498916626  0.4421695470809937  1.0000
  S   S2        1.0  0.4729805588722229  0.5226205587387085  0.2571523189544678  1.0000
  S   S3        1.0  0.19724895060062408  0.5677090883255005  0.17798866331577304  1.0000
  S   S4        1.0  0.8832922577857971  0.7707693576812744  0.007453583180904459  1.0000
