data_image0
_chemical_formula_structural       CoI4Zr2
_chemical_formula_sum              "Co1 I4 Zr2"
_cell_length_a       6.1456403924832355
_cell_length_b       6.409598249181562
_cell_length_c       7.876424789428711
_cell_angle_alpha    113.85584013667427
_cell_angle_beta     114.38412769919918
_cell_angle_gamma    88.73876430664035

_space_group_name_H-M_alt    "P 1"
_space_group_IT_number       1

loop_
  _space_group_symop_operation_xyz
  'x, y, z'

loop_
  _atom_site_type_symbol
  _atom_site_label
  _atom_site_symmetry_multiplicity
  _atom_site_fract_x
  _atom_site_fract_y
  _atom_site_fract_z
  _atom_site_occupancy
  Co  Co1       1.0  0.6273952722549438  0.5656599998474121  0.15930755436420443  1.0000
  I   I1        1.0  0.14983591437339783  0.8096871376037598  0.4038009941577912  1.0000
  I   I2        1.0  0.83562171459198  0.05729451775550842  0.7305878400802613  1.0000
  I   I3        1.0  0.13153009116649628  0.37381741404533386  0.6236037611961366  1.0000
  I   I4        1.0  0.13831762969493866  0.10544408112764359  0.20045392215251925  1.0000
  Zr  Zr1       1.0  0.8105926513671875  0.08428846299648285  0.3207920193672181  1.0000
  Zr  Zr2       1.0  0.33977439999580383  0.17654946446418762  0.6809112429618837  1.0000
