data_image0
_chemical_formula_structural       AsEr2I2SbZr
_chemical_formula_sum              "As1 Er2 I2 Sb1 Zr1"
_cell_length_a       4.422478426688403
_cell_length_b       6.729943323454689
_cell_length_c       7.956265449523926
_cell_angle_alpha    124.21970876736515
_cell_angle_beta     99.87587124427918
_cell_angle_gamma    87.81349821387808

_space_group_name_H-M_alt    "P 1"
_space_group_IT_number       1

loop_
  _space_group_symop_operation_xyz
  'x, y, z'

loop_
  _atom_site_type_symbol
  _atom_site_label
  _atom_site_symmetry_multiplicity
  _atom_site_fract_x
  _atom_site_fract_y
  _atom_site_fract_z
  _atom_site_occupancy
  As  As1       1.0  0.9533050656318665  0.3505933880805969  0.2898633182048798  1.0000
  Er  Er1       1.0  0.6609207987785339  0.13444475829601288  0.6827129721641542  1.0000
  Er  Er2       1.0  0.2263818383216858  0.861703634262085  0.9019662737846376  1.0000
  I   I1        1.0  0.9425816535949707  0.7042230367660522  0.7859115004539491  1.0000
  I   I2        1.0  0.8645521998405457  0.8806995153427124  0.21401588618755343  1.0000
  Sb  Sb1       1.0  0.4237961769104004  0.2129591852426529  0.8790404200553895  1.0000
  Zr  Zr1       1.0  0.40630438923835754  0.2719458043575287  0.09560007601976396  1.0000
