data_image0
_chemical_formula_structural       AlBaCs2Zn3
_chemical_formula_sum              "Al1 Ba1 Cs2 Zn3"
_cell_length_a       4.2520409428718215
_cell_length_b       5.47182248421452
_cell_length_c       9.754926681518555
_cell_angle_alpha    88.94382271760315
_cell_angle_beta     89.27383695201326
_cell_angle_gamma    88.98246267458018

_space_group_name_H-M_alt    "P 1"
_space_group_IT_number       1

loop_
  _space_group_symop_operation_xyz
  'x, y, z'

loop_
  _atom_site_type_symbol
  _atom_site_label
  _atom_site_symmetry_multiplicity
  _atom_site_fract_x
  _atom_site_fract_y
  _atom_site_fract_z
  _atom_site_occupancy
  Al  Al1       1.0  0.24274273216724396  0.06394827365875244  0.4418928623199463  1.0000
  Ba  Ba1       1.0  0.7678779363632202  0.5627923607826233  0.04331287369132042  1.0000
  Cs  Cs1       1.0  0.25927481055259705  0.06439290940761566  0.9653496146202087  1.0000
  Cs  Cs2       1.0  0.8325409889221191  0.3127606213092804  0.6317511200904846  1.0000
  Zn  Zn1       1.0  0.761211633682251  0.5569002032279968  0.22192224860191345  1.0000
  Zn  Zn2       1.0  0.5950590372085571  0.9342707395553589  0.753292441368103  1.0000
  Zn  Zn3       1.0  0.21934521198272705  0.5635702013969421  0.793163537979126  1.0000
