data_image0
_chemical_formula_structural       FGeHIn4PPbThZn
_chemical_formula_sum              "F1 Ge1 H1 In4 P1 Pb1 Th1 Zn1"
_cell_length_a       4.826988113828297
_cell_length_b       2.564995566435648
_cell_length_c       5.9519782066345215
_cell_angle_alpha    126.96758543498277
_cell_angle_beta     98.13503269509152
_cell_angle_gamma    119.75815280429163

_space_group_name_H-M_alt    "P 1"
_space_group_IT_number       1

loop_
  _space_group_symop_operation_xyz
  'x, y, z'

loop_
  _atom_site_type_symbol
  _atom_site_label
  _atom_site_symmetry_multiplicity
  _atom_site_fract_x
  _atom_site_fract_y
  _atom_site_fract_z
  _atom_site_occupancy
  F   F1        1.0  0.4764018952846526  0.13527080416679346  0.7246338129043578  1.0000
  Ge  Ge1       1.0  0.7828941941261289  0.3328048586845393  0.8816911578178404  1.0000
  H   H1        1.0  0.314467191696167  0.05445923656225204  0.40747180581092834  1.0000
  In  In1       1.0  0.3202571868896484  0.2791044116020201  0.21465764939785  1.0000
  In  In2       1.0  0.8020045757293701  0.30189549922943104  0.37141937017440796  1.0000
  In  In3       1.0  0.7484767436981199  0.7883236408233637  0.9095349311828612  1.0000
  In  In4       1.0  0.5795798301696776  0.019429422914981502  0.9251667857170103  1.0000
  P   P1        1.0  0.2145902961492537  0.571481347084045  0.866069734096527  1.0000
  Pb  Pb1       1.0  0.8103436231613159  0.9620397090911865  0.8707444667816162  1.0000
  Th  Th1       1.0  0.5081712603569031  0.6004863977432251  0.2469847947359085  1.0000
  Zn  Zn1       1.0  0.2988012731075287  0.7009599208831787  0.14557574689388275  1.0000
