data_image0
_chemical_formula_structural       AsFI2In4PZn2
_chemical_formula_sum              "As1 F1 I2 In4 P1 Zn2"
_cell_length_a       5.380208083145799
_cell_length_b       5.467757770245283
_cell_length_c       8.178257942199707
_cell_angle_alpha    90.4956982372146
_cell_angle_beta     90.93556158542322
_cell_angle_gamma    118.82287532352295

_space_group_name_H-M_alt    "P 1"
_space_group_IT_number       1

loop_
  _space_group_symop_operation_xyz
  'x, y, z'

loop_
  _atom_site_type_symbol
  _atom_site_label
  _atom_site_symmetry_multiplicity
  _atom_site_fract_x
  _atom_site_fract_y
  _atom_site_fract_z
  _atom_site_occupancy
  As  As1       1.0  0.4290299713611602  0.026526371017098427  0.23728424310684204  1.0000
  F   F1        1.0  0.6470032334327698  0.13061003386974335  0.40097668766975403  1.0000
  I   I1        1.0  0.5106033682823181  0.21355926990509033  0.5582621097564697  1.0000
  I   I2        1.0  0.1612233966588974  0.9886589050292969  0.3104199469089508  1.0000
  In  In1       1.0  0.3012188971042633  0.6208731532096863  0.8710308074951172  1.0000
  In  In2       1.0  0.6622143387794495  0.5436258316040039  0.6716538071632385  1.0000
  In  In3       1.0  0.11891209334135054  0.40647393465042114  0.7433916330337524  1.0000
  In  In4       1.0  0.651824951171875  0.6305025219917297  0.1431075632572174  1.0000
  P   P1        1.0  0.17157110571861267  0.07151774317026138  0.9809519648551941  1.0000
  Zn  Zn1       1.0  0.9923061728477477  0.14326521754264832  0.20924949645996094  1.0000
  Zn  Zn2       1.0  0.005951845087110995  0.7107131481170654  0.4967830777168274  1.0000
