data_image0
_chemical_formula_structural       FIn10
_chemical_formula_sum              "F1 In10"
_cell_length_a       4.697885672258617
_cell_length_b       4.709700313877466
_cell_length_c       8.41597843170166
_cell_angle_alpha    89.04602713472059
_cell_angle_beta     89.69093800481146
_cell_angle_gamma    113.7629668762398

_space_group_name_H-M_alt    "P 1"
_space_group_IT_number       1

loop_
  _space_group_symop_operation_xyz
  'x, y, z'

loop_
  _atom_site_type_symbol
  _atom_site_label
  _atom_site_symmetry_multiplicity
  _atom_site_fract_x
  _atom_site_fract_y
  _atom_site_fract_z
  _atom_site_occupancy
  F   F1        1.0  0.7126889228820801  0.8864285945892334  0.8916569352149963  1.0000
  In  In1       1.0  0.9173641204833984  0.793357253074646  0.7962257862091064  1.0000
  In  In2       1.0  0.5415335893630981  0.7828219532966614  0.5269050002098083  1.0000
  In  In3       1.0  0.8846640586853027  0.12813031673431396  0.1498013138771057  1.0000
  In  In4       1.0  0.3733079731464386  0.3449256122112274  0.8239779472351074  1.0000
  In  In5       1.0  0.3679393231868744  0.6276472806930542  0.9824500679969788  1.0000
  In  In6       1.0  0.9011140465736389  0.5302407145500183  0.09104612469673157  1.0000
  In  In7       1.0  0.8942785263061523  0.7047190070152283  0.8275927305221558  1.0000
  In  In8       1.0  0.39354705810546875  0.8343071937561035  0.2592422664165497  1.0000
  In  In9       1.0  0.16497939825057983  0.42785727977752686  0.7570233941078186  1.0000
  In  In10      1.0  0.6575890779495239  0.5692078471183777  0.6205206513404846  1.0000
