data_image0
_chemical_formula_structural       FIn9S
_chemical_formula_sum              "F1 In9 S1"
_cell_length_a       4.699305460005748
_cell_length_b       5.423268262332843
_cell_length_c       5.75750207901001
_cell_angle_alpha    52.44766583775325
_cell_angle_beta     55.96512803677613
_cell_angle_gamma    64.48787882199758

_space_group_name_H-M_alt    "P 1"
_space_group_IT_number       1

loop_
  _space_group_symop_operation_xyz
  'x, y, z'

loop_
  _atom_site_type_symbol
  _atom_site_label
  _atom_site_symmetry_multiplicity
  _atom_site_fract_x
  _atom_site_fract_y
  _atom_site_fract_z
  _atom_site_occupancy
  F   F1        1.0  0.36467319726943975  0.09731336683034897  0.7615798711776735  1.0000
  In  In1       1.0  0.2896316349506378  0.9405021071434021  0.3168945908546448  1.0000
  In  In2       1.0  0.3423170745372773  0.7063947319984436  0.01914501190185547  1.0000
  In  In3       1.0  0.6961405277252198  0.792033851146698  0.990714192390442  1.0000
  In  In4       1.0  0.6761169433593751  0.6369485259056091  0.6913153529167175  1.0000
  In  In5       1.0  0.769193470478058  0.026898685842752457  0.9183137416839601  1.0000
  In  In6       1.0  0.7963670492172242  0.9281980395317078  0.30344194173812866  1.0000
  In  In7       1.0  0.7744099497795106  0.2587847113609314  0.880695939064026  1.0000
  In  In8       1.0  0.9913240671157838  0.20113036036491394  0.36338081955909735  1.0000
  In  In9       1.0  0.33376806974411016  0.7366336584091187  0.848883628845215  1.0000
  S   S1        1.0  0.9535815715789796  0.16236372292041779  0.018503699451684875  1.0000
