data_image0
_chemical_formula_structural       GeIIn3PPbSc2Zn2
_chemical_formula_sum              "Ge1 I1 In3 P1 Pb1 Sc2 Zn2"
_cell_length_a       5.984302836933956
_cell_length_b       5.919211922002181
_cell_length_c       6.828356742858887
_cell_angle_alpha    115.46713089794544
_cell_angle_beta     102.41325809715634
_cell_angle_gamma    106.66841579056312

_space_group_name_H-M_alt    "P 1"
_space_group_IT_number       1

loop_
  _space_group_symop_operation_xyz
  'x, y, z'

loop_
  _atom_site_type_symbol
  _atom_site_label
  _atom_site_symmetry_multiplicity
  _atom_site_fract_x
  _atom_site_fract_y
  _atom_site_fract_z
  _atom_site_occupancy
  Ge  Ge1       1.0  0.49472013115882874  0.2389523684978485  0.8537252545356752  1.0000
  I   I1        1.0  0.9613221287727356  0.6593142151832581  0.41247537732124334  1.0000
  In  In1       1.0  0.4838528037071228  0.3571697771549225  0.7037054896354675  1.0000
  In  In2       1.0  0.9662636518478394  0.8269990682601929  0.44209676980972296  1.0000
  In  In3       1.0  0.0700264722108841  0.5334275960922241  0.9900243878364564  1.0000
  P   P1        1.0  0.4782170057296753  0.12290255725383759  0.5122119784355164  1.0000
  Pb  Pb1       1.0  0.9700136184692383  0.9039501547813416  0.09915721416473383  1.0000
  Sc  Sc1       1.0  0.45217615365982056  0.7654236555099487  0.05436990782618523  1.0000
  Sc  Sc2       1.0  0.9682784080505371  0.16696234047412872  0.3175834119319916  1.0000
  Zn  Zn1       1.0  0.9846444725990295  0.5113722085952759  0.6321377754211426  1.0000
  Zn  Zn2       1.0  0.4785057306289673  0.5583959817886353  0.7306856513023376  1.0000
