data_image0
_chemical_formula_structural       FI2In2P2PtSc2Zn
_chemical_formula_sum              "F1 I2 In2 P2 Pt1 Sc2 Zn1"
_cell_length_a       5.881874225020954
_cell_length_b       5.952022867391341
_cell_length_c       7.439579963684082
_cell_angle_alpha    117.08280947052641
_cell_angle_beta     110.29458848129545
_cell_angle_gamma    93.1362663297322

_space_group_name_H-M_alt    "P 1"
_space_group_IT_number       1

loop_
  _space_group_symop_operation_xyz
  'x, y, z'

loop_
  _atom_site_type_symbol
  _atom_site_label
  _atom_site_symmetry_multiplicity
  _atom_site_fract_x
  _atom_site_fract_y
  _atom_site_fract_z
  _atom_site_occupancy
  F   F1        1.0  0.5765429139137268  0.06263826787471771  0.6762831807136536  1.0000
  I   I1        1.0  0.6534085273742676  0.8963280916213989  0.13843992352485657  1.0000
  I   I2        1.0  0.49556034803390503  0.6443106532096863  0.5084266066551208  1.0000
  In  In1       1.0  0.0775347501039505  0.08422085642814636  0.7543466091156006  1.0000
  In  In2       1.0  0.9913926720619202  0.10054485499858856  0.4917849898338318  1.0000
  P   P1        1.0  0.3721217215061188  0.8792160749435425  0.7240231037139893  1.0000
  P   P2        1.0  0.11710748821496964  0.4342602789402008  0.511096715927124  1.0000
  Pt  Pt1       1.0  0.1758871227502823  0.40753334760665894  0.4711954891681671  1.0000
  Sc  Sc1       1.0  0.7129101157188416  0.41679030656814575  0.40602266788482666  1.0000
  Sc  Sc2       1.0  0.008880424313247204  0.6258607506752014  0.9536638855934143  1.0000
  Zn  Zn1       1.0  0.6870319843292236  0.8785145878791809  0.2265898585319519  1.0000
