data_image0
_chemical_formula_structural       Ga3O3
_chemical_formula_sum              "Ga3 O3"
_cell_length_a       4.352994361037615
_cell_length_b       4.678097816118568
_cell_length_c       6.149968147277832
_cell_angle_alpha    108.83303160044932
_cell_angle_beta     92.17270233097827
_cell_angle_gamma    110.31520736550985

_space_group_name_H-M_alt    "P 1"
_space_group_IT_number       1

loop_
  _space_group_symop_operation_xyz
  'x, y, z'

loop_
  _atom_site_type_symbol
  _atom_site_label
  _atom_site_symmetry_multiplicity
  _atom_site_fract_x
  _atom_site_fract_y
  _atom_site_fract_z
  _atom_site_occupancy
  Ga  Ga1       1.0  0.7845787405967712  0.3448896110057831  0.9656171798706056  1.0000
  Ga  Ga2       1.0  0.5448771715164185  0.07798038423061371  0.10067283362150194  1.0000
  Ga  Ga3       1.0  0.294373095035553  0.1977623552083969  0.9540226459503175  1.0000
  O   O1        1.0  0.7766376733779907  0.8320024013519287  0.3974562883377076  1.0000
  O   O2        1.0  0.301500529050827  0.18517248332500458  0.3886904120445252  1.0000
  O   O3        1.0  0.9625285267829895  0.5399999618530273  0.6076498627662659  1.0000
