data_image0
_chemical_formula_structural       Ga3O3
_chemical_formula_sum              "Ga3 O3"
_cell_length_a       3.875992599560485
_cell_length_b       4.158484198758482
_cell_length_c       4.01504373550415
_cell_angle_alpha    103.07355067540969
_cell_angle_beta     106.77955671268036
_cell_angle_gamma    104.21584647026899

_space_group_name_H-M_alt    "P 1"
_space_group_IT_number       1

loop_
  _space_group_symop_operation_xyz
  'x, y, z'

loop_
  _atom_site_type_symbol
  _atom_site_label
  _atom_site_symmetry_multiplicity
  _atom_site_fract_x
  _atom_site_fract_y
  _atom_site_fract_z
  _atom_site_occupancy
  Ga  Ga1       1.0  0.8195691704750061  0.11514903604984283  0.5566558837890625  1.0000
  Ga  Ga2       1.0  0.16633133590221405  0.5020660758018494  0.9765514135360718  1.0000
  Ga  Ga3       1.0  0.5322986841201782  0.2697841227054596  0.9703535437583923  1.0000
  O   O1        1.0  0.9547277092933655  0.012535004876554012  0.2284591048955918  1.0000
  O   O2        1.0  0.46302592754364014  0.5195738673210144  0.7405543923377991  1.0000
  O   O3        1.0  0.0680854469537735  0.982711672782898  0.7126390337944031  1.0000
