data_image0
_chemical_formula_structural       Ga2O4
_chemical_formula_sum              "Ga2 O4"
_cell_length_a       2.9779044968916746
_cell_length_b       2.958612300564438
_cell_length_c       4.52654504776001
_cell_angle_alpha    116.14971455276724
_cell_angle_beta     102.2280553747271
_cell_angle_gamma    82.3531563652477

_space_group_name_H-M_alt    "P 1"
_space_group_IT_number       1

loop_
  _space_group_symop_operation_xyz
  'x, y, z'

loop_
  _atom_site_type_symbol
  _atom_site_label
  _atom_site_symmetry_multiplicity
  _atom_site_fract_x
  _atom_site_fract_y
  _atom_site_fract_z
  _atom_site_occupancy
  Ga  Ga1       1.0  0.09936659038066863  0.5708931684494019  0.5014980435371399  1.0000
  Ga  Ga2       1.0  0.44466626644134516  0.237709179520607  0.371570885181427  1.0000
  O   O1        1.0  0.9250980615615844  0.5999180674552917  0.6720981597900391  1.0000
  O   O2        1.0  0.9766602516174315  0.09714297205209732  0.2540414333343506  1.0000
  O   O3        1.0  0.42405065894126887  0.06430412083864212  0.01305561512708664  1.0000
  O   O4        1.0  0.5984550714492798  0.8682642579078674  0.5593729019165039  1.0000
