data_image0
_chemical_formula_structural       Ga3O3
_chemical_formula_sum              "Ga3 O3"
_cell_length_a       5.248096873758719
_cell_length_b       5.2436287218099915
_cell_length_c       5.583311080932617
_cell_angle_alpha    105.5886297071115
_cell_angle_beta     104.3165825994202
_cell_angle_gamma    112.13171915968042

_space_group_name_H-M_alt    "P 1"
_space_group_IT_number       1

loop_
  _space_group_symop_operation_xyz
  'x, y, z'

loop_
  _atom_site_type_symbol
  _atom_site_label
  _atom_site_symmetry_multiplicity
  _atom_site_fract_x
  _atom_site_fract_y
  _atom_site_fract_z
  _atom_site_occupancy
  Ga  Ga1       1.0  0.7988846898078918  0.12803800404071808  0.40038830041885376  1.0000
  Ga  Ga2       1.0  0.9219925999641418  0.5020024180412292  0.16718345880508428  1.0000
  Ga  Ga3       1.0  0.4669598340988159  0.8760913014411926  0.16072353720664984  1.0000
  O   O1        1.0  0.9215179085731506  0.8035950064659119  0.6654045581817627  1.0000
  O   O2        1.0  0.5142541527748108  0.27995187044143677  0.146836057305336  1.0000
  O   O3        1.0  0.5479315519332886  0.5236641764640808  0.9046751856803895  1.0000
