data_image0
_chemical_formula_structural       Zr7
_chemical_formula_sum              "Zr7"
_cell_length_a       5.224805205442497
_cell_length_b       5.5783014309217105
_cell_length_c       6.008984565734863
_cell_angle_alpha    120.66779294753064
_cell_angle_beta     91.44047468429406
_cell_angle_gamma    86.25111337576926

_space_group_name_H-M_alt    "P 1"
_space_group_IT_number       1

loop_
  _space_group_symop_operation_xyz
  'x, y, z'

loop_
  _atom_site_type_symbol
  _atom_site_label
  _atom_site_symmetry_multiplicity
  _atom_site_fract_x
  _atom_site_fract_y
  _atom_site_fract_z
  _atom_site_occupancy
  Zr  Zr1       1.0  0.15474402904510498  0.7460448741912842  0.9247458577156067  1.0000
  Zr  Zr2       1.0  0.65786212682724  0.6359221339225769  0.08608059585094452  1.0000
  Zr  Zr3       1.0  0.6560381650924683  0.6926959753036499  0.3460148274898529  1.0000
  Zr  Zr4       1.0  0.6619537472724915  0.9568110108375548  0.719456672668457  1.0000
  Zr  Zr5       1.0  0.15912272036075592  0.22444733977317807  0.7119776606559753  1.0000
  Zr  Zr6       1.0  0.153443843126297  0.8602060675621032  0.9306747317314148  1.0000
  Zr  Zr7       1.0  0.6525670289993286  0.43117311596870417  0.5232954025268555  1.0000
