data_image0
_chemical_formula_structural       F3Ge4ORb5U3
_chemical_formula_sum              "F3 Ge4 O1 Rb5 U3"
_cell_length_a       6.6814204744202925
_cell_length_b       6.943245353715499
_cell_length_c       9.047674179077148
_cell_angle_alpha    109.98134712463772
_cell_angle_beta     101.78555686361982
_cell_angle_gamma    109.55232478603146

_space_group_name_H-M_alt    "P 1"
_space_group_IT_number       1

loop_
  _space_group_symop_operation_xyz
  'x, y, z'

loop_
  _atom_site_type_symbol
  _atom_site_label
  _atom_site_symmetry_multiplicity
  _atom_site_fract_x
  _atom_site_fract_y
  _atom_site_fract_z
  _atom_site_occupancy
  F   F1        1.0  0.9154462218284607  0.5017032027244568  0.04690316691994667  1.0000
  F   F2        1.0  0.03769262507557869  0.5543020963668823  0.6630696058273315  1.0000
  F   F3        1.0  0.3945784866809845  0.7785666584968567  0.40059366822242737  1.0000
  Ge  Ge1       1.0  0.14996230602264404  0.7027127742767334  0.6656610369682312  1.0000
  Ge  Ge2       1.0  0.9994405508041382  0.572895348072052  0.7783437371253967  1.0000
  Ge  Ge3       1.0  0.953909158706665  0.3488805592060089  0.9603426456451416  1.0000
  Ge  Ge4       1.0  0.8774993419647217  0.7664485573768616  0.0945378765463829  1.0000
  O   O1        1.0  0.36159178614616394  0.10142312943935394  0.13678929209709167  1.0000
  Rb  Rb1       1.0  0.4485829770565033  0.9865865111351013  0.20059387385845184  1.0000
  Rb  Rb2       1.0  0.8885820508003235  0.5790560245513916  0.36325538158416754  1.0000
  Rb  Rb3       1.0  0.24441079795360565  0.5171462297439575  0.08064071089029315  1.0000
  Rb  Rb4       1.0  0.38559019565582275  0.9093310832977295  0.24129064381122595  1.0000
  Rb  Rb5       1.0  0.4625794589519501  0.09750671684741974  0.13627901673316956  1.0000
  U   U1        1.0  0.9058384299278259  0.4502614736557007  0.48789942264556885  1.0000
  U   U2        1.0  0.9032738208770752  0.8749021887779236  0.6280131936073303  1.0000
  U   U3        1.0  0.33017775416374207  0.19308605790138245  0.8491013646125793  1.0000
