data_image0
_chemical_formula_structural       F3GeORb7U4
_chemical_formula_sum              "F3 Ge1 O1 Rb7 U4"
_cell_length_a       6.6274644691720725
_cell_length_b       6.878661134467707
_cell_length_c       9.03970718383789
_cell_angle_alpha    97.77870610762349
_cell_angle_beta     90.66543572956985
_cell_angle_gamma    111.80550531281905

_space_group_name_H-M_alt    "P 1"
_space_group_IT_number       1

loop_
  _space_group_symop_operation_xyz
  'x, y, z'

loop_
  _atom_site_type_symbol
  _atom_site_label
  _atom_site_symmetry_multiplicity
  _atom_site_fract_x
  _atom_site_fract_y
  _atom_site_fract_z
  _atom_site_occupancy
  F   F1        1.0  0.9787951111793518  0.08492230623960496  0.33462831377983093  1.0000
  F   F2        1.0  0.8595123291015625  0.40360608696937567  0.5544805526733398  1.0000
  F   F3        1.0  0.43929216265678406  0.6914502382278443  0.97705078125  1.0000
  Ge  Ge1       1.0  0.6751601696014404  0.24577660858631137  0.5507596135139465  1.0000
  O   O1        1.0  0.4855014681816101  0.03244026377797127  0.5983943939208984  1.0000
  Rb  Rb1       1.0  0.16552460193634033  0.07371027022600174  0.08363074064254761  1.0000
  Rb  Rb2       1.0  0.5015853047370911  0.46883621811866766  0.022479334846138954  1.0000
  Rb  Rb3       1.0  0.6898679137229919  0.5949336886405945  0.048240792006254196  1.0000
  Rb  Rb4       1.0  0.16741159558296204  0.2789299488067627  0.1179511621594429  1.0000
  Rb  Rb5       1.0  0.664584755897522  0.07937014847993851  0.09235299378633499  1.0000
  Rb  Rb6       1.0  0.412090003490448  0.2189542353153229  0.3579099774360657  1.0000
  Rb  Rb7       1.0  0.6873833537101746  0.797475814819336  0.5791565775871277  1.0000
  U   U1        1.0  0.12805162370204926  0.006891408003866673  0.43153199553489685  1.0000
  U   U2        1.0  0.16735780239105233  0.9845768809318544  0.02298295870423317  1.0000
  U   U3        1.0  0.7838191986083984  0.17600248754024508  0.2614988684654236  1.0000
  U   U4        1.0  0.9842648506164551  0.14270645380020142  0.4935036897659302  1.0000
