data_image0
_chemical_formula_structural       BF5O3Rb6U
_chemical_formula_sum              "B1 F5 O3 Rb6 U1"
_cell_length_a       6.9368589304807236
_cell_length_b       7.307009444860785
_cell_length_c       7.8514323234558105
_cell_angle_alpha    102.00105624530066
_cell_angle_beta     100.72903671095254
_cell_angle_gamma    97.50699185307083

_space_group_name_H-M_alt    "P 1"
_space_group_IT_number       1

loop_
  _space_group_symop_operation_xyz
  'x, y, z'

loop_
  _atom_site_type_symbol
  _atom_site_label
  _atom_site_symmetry_multiplicity
  _atom_site_fract_x
  _atom_site_fract_y
  _atom_site_fract_z
  _atom_site_occupancy
  B   B1        1.0  0.6596484780311584  0.381844699382782  0.5054110884666443  1.0000
  F   F1        1.0  0.13580136001110077  0.9916881918907166  0.7827120423316956  1.0000
  F   F2        1.0  0.6717190742492676  0.4957774877548218  0.3936452865600586  1.0000
  F   F3        1.0  0.1622346192598343  0.1529087871313095  0.9002295136451721  1.0000
  F   F4        1.0  0.15782387554645538  0.3977964222431183  0.671241044998169  1.0000
  F   F5        1.0  0.16195933520793915  0.24325306713581085  0.2911437451839447  1.0000
  O   O1        1.0  0.9931173920631409  0.8353461623191833  0.20893441140651703  1.0000
  O   O2        1.0  0.6450601816177368  0.8369827270507812  0.007097727153450278  1.0000
  O   O3        1.0  0.4913361966609955  0.9857777953147888  0.3411608934402466  1.0000
  Rb  Rb1       1.0  0.6555812358856201  0.23653042316436768  0.5047677755355835  1.0000
  Rb  Rb2       1.0  0.6579620242118835  0.37652090191841125  0.4217078685760498  1.0000
  Rb  Rb3       1.0  0.6552087068557739  0.8374722003936768  0.7430474162101746  1.0000
  Rb  Rb4       1.0  0.6579721570014954  0.28504636883735657  0.9296159148216248  1.0000
  Rb  Rb5       1.0  0.15617305040359497  0.29952502250671387  0.2503983676433563  1.0000
  Rb  Rb6       1.0  0.15638232231140137  0.3490460216999054  0.48058083653450007  1.0000
  U   U1        1.0  0.16309776902198792  0.40393248200416565  0.9006367325782776  1.0000
