data_image0
_chemical_formula_structural       F4O3Rb7U2
_chemical_formula_sum              "F4 O3 Rb7 U2"
_cell_length_a       7.70452044025445
_cell_length_b       7.936041646173582
_cell_length_c       8.881173133850098
_cell_angle_alpha    116.62878405463915
_cell_angle_beta     112.21060916524512
_cell_angle_gamma    93.1091951954751

_space_group_name_H-M_alt    "P 1"
_space_group_IT_number       1

loop_
  _space_group_symop_operation_xyz
  'x, y, z'

loop_
  _atom_site_type_symbol
  _atom_site_label
  _atom_site_symmetry_multiplicity
  _atom_site_fract_x
  _atom_site_fract_y
  _atom_site_fract_z
  _atom_site_occupancy
  F   F1        1.0  0.3854869306087494  0.5525506734848022  0.3996175527572632  1.0000
  F   F2        1.0  0.4090326726436615  0.8036630749702455  0.9087036848068237  1.0000
  F   F3        1.0  0.892073392868042  0.32320597767829895  0.16785095632076263  1.0000
  F   F4        1.0  0.9893080592155457  0.715109646320343  0.6472501158714294  1.0000
  O   O1        1.0  0.4033150374889374  0.4533278942108155  0.5834458470344543  1.0000
  O   O2        1.0  0.8870548009872437  0.8055748939514161  0.44903072714805603  1.0000
  O   O3        1.0  0.8781666159629822  0.9856175184249879  0.8312268257141113  1.0000
  Rb  Rb1       1.0  0.8924812078475952  0.9801418781280519  0.44632166624069214  1.0000
  Rb  Rb2       1.0  0.8951131105422974  0.11744599789381029  0.23937346041202545  1.0000
  Rb  Rb3       1.0  0.6515057682991028  0.10005585849285127  0.8983315229415894  1.0000
  Rb  Rb4       1.0  0.6542752385139465  0.34078189730644226  0.2958278954029083  1.0000
  Rb  Rb5       1.0  0.4070640802383423  0.024345111101865772  0.7301886081695557  1.0000
  Rb  Rb6       1.0  0.9159009456634521  0.02776768431067467  0.3501523137092591  1.0000
  Rb  Rb7       1.0  0.16525521874427795  0.7227223515510559  0.8847543597221375  1.0000
  U   U1        1.0  0.9019584059715271  0.10162412375211717  0.4960761964321136  1.0000
  U   U2        1.0  0.3840084671974182  0.5977913737297058  0.6404604315757751  1.0000
