data_image0
_chemical_formula_structural       BCF2Ge2RuU8Zn
_chemical_formula_sum              "B1 C1 F2 Ge2 Ru1 U8 Zn1"
_cell_length_a       6.699356711652134
_cell_length_b       6.880601896634743
_cell_length_c       9.843588829040527
_cell_angle_alpha    104.53263324374231
_cell_angle_beta     95.8280392527302
_cell_angle_gamma    112.37989114557617

_space_group_name_H-M_alt    "P 1"
_space_group_IT_number       1

loop_
  _space_group_symop_operation_xyz
  'x, y, z'

loop_
  _atom_site_type_symbol
  _atom_site_label
  _atom_site_symmetry_multiplicity
  _atom_site_fract_x
  _atom_site_fract_y
  _atom_site_fract_z
  _atom_site_occupancy
  B   B1        1.0  0.7373332381248473  0.20193615555763245  0.4366050958633423  1.0000
  C   C1        1.0  0.7963324189186095  0.9536516666412354  0.8406229615211487  1.0000
  F   F1        1.0  0.24700285494327542  0.021512100473046303  0.9587845206260681  1.0000
  F   F2        1.0  0.7519840002059935  0.12068794667720795  0.27330878376960754  1.0000
  Ge  Ge1       1.0  0.9275073409080504  0.7399603724479675  0.12044730037450788  1.0000
  Ge  Ge2       1.0  0.7167676091194152  0.7501598596572876  0.6148495078086853  1.0000
  Ru  Ru1       1.0  0.9883983731269835  0.004143646918237209  0.8126624226570129  1.0000
  U   U1        1.0  0.22561949491500852  0.36491480469703674  0.5868381261825562  1.0000
  U   U2        1.0  0.9246134757995604  0.08937590569257736  0.9787039160728455  1.0000
  U   U3        1.0  0.7390608191490172  0.6528162360191345  0.26292383670806885  1.0000
  U   U4        1.0  0.2123131453990936  0.5011574625968933  0.46597135066986084  1.0000
  U   U5        1.0  0.18223308026790616  0.3659205436706543  0.4333893060684204  1.0000
  U   U6        1.0  0.3046208620071411  0.8580613136291504  0.45453259348869324  1.0000
  U   U7        1.0  0.734142243862152  0.5400508642196655  0.10121112316846848  1.0000
  U   U8        1.0  0.4472095668315887  0.922980010509491  0.4223628640174866  1.0000
  Zn  Zn1       1.0  0.9653241038322448  0.23503178358078003  0.4213712513446808  1.0000
