data_image0
_chemical_formula_structural       AsF3Ge2LiO2ReU6
_chemical_formula_sum              "As1 F3 Ge2 Li1 O2 Re1 U6"
_cell_length_a       6.53986854083919
_cell_length_b       6.956789987939396
_cell_length_c       6.9134697914123535
_cell_angle_alpha    108.27829354302527
_cell_angle_beta     113.51641313435127
_cell_angle_gamma    108.39466738829938

_space_group_name_H-M_alt    "P 1"
_space_group_IT_number       1

loop_
  _space_group_symop_operation_xyz
  'x, y, z'

loop_
  _atom_site_type_symbol
  _atom_site_label
  _atom_site_symmetry_multiplicity
  _atom_site_fract_x
  _atom_site_fract_y
  _atom_site_fract_z
  _atom_site_occupancy
  As  As1       1.0  0.8610780239105225  0.2601592242717743  0.9560143947601318  1.0000
  F   F1        1.0  0.8740110397338867  0.4112051725387574  0.08917484432458878  1.0000
  F   F2        1.0  0.3508581817150116  0.12008997052907945  0.11196725815534592  1.0000
  F   F3        1.0  0.5124371051788331  0.8110926151275636  0.4034367799758911  1.0000
  Ge  Ge1       1.0  0.33889809250831604  0.6752320528030396  0.7025983333587646  1.0000
  Ge  Ge2       1.0  0.6296483278274536  0.10613451898097993  0.6067743897438049  1.0000
  Li  Li1       1.0  0.13266532123088837  0.13711287081241608  0.32752904295921326  1.0000
  O   O1        1.0  0.2774774730205536  0.6638748049736023  0.508495032787323  1.0000
  O   O2        1.0  0.9021244049072266  0.3074598014354706  0.9173075556755066  1.0000
  Re  Re1       1.0  0.8794513940811157  0.7660576105117799  0.4434587061405182  1.0000
  U   U1        1.0  0.8053333163261414  0.3911369740962983  0.613653302192688  1.0000
  U   U2        1.0  0.13956235349178314  0.1463494598865509  0.06486821919679642  1.0000
  U   U3        1.0  0.3994526565074922  0.7375085949897767  0.931645393371582  1.0000
  U   U4        1.0  0.1392354518175125  0.7153132557868958  0.05905701592564583  1.0000
  U   U5        1.0  0.877126157283783  0.8828490376472474  0.12496785074472426  1.0000
  U   U6        1.0  0.6430314779281616  0.1303323209285736  0.6634106636047363  1.0000
