data_image0
_chemical_formula_structural       AsEuGe3I2LuPV2Zn
_chemical_formula_sum              "As1 Eu1 Ge3 I2 Lu1 P1 V2 Zn1"
_cell_length_a       6.359250430434859
_cell_length_b       6.320064668325753
_cell_length_c       7.643528461456299
_cell_angle_alpha    91.08728590027232
_cell_angle_beta     90.56645432198437
_cell_angle_gamma    111.05713186254457

_space_group_name_H-M_alt    "P 1"
_space_group_IT_number       1

loop_
  _space_group_symop_operation_xyz
  'x, y, z'

loop_
  _atom_site_type_symbol
  _atom_site_label
  _atom_site_symmetry_multiplicity
  _atom_site_fract_x
  _atom_site_fract_y
  _atom_site_fract_z
  _atom_site_occupancy
  As  As1       1.0  0.2694171071052551  0.6555958390235901  0.9968317151069641  1.0000
  Eu  Eu1       1.0  0.9951613545417786  0.8318941593170166  0.03785260394215584  1.0000
  Ge  Ge1       1.0  0.48897552490234375  0.9989946484565735  0.4982911944389343  1.0000
  Ge  Ge2       1.0  0.9933435916900635  0.5133801698684692  0.9445204734802246  1.0000
  Ge  Ge3       1.0  0.6641678810119629  0.7294071912765503  0.3706018924713135  1.0000
  I   I1        1.0  0.22280612587928772  0.348872572183609  0.7723228931427003  1.0000
  I   I2        1.0  0.7357926368713379  0.5718693733215332  0.7131218314170837  1.0000
  Lu  Lu1       1.0  0.9364694952964783  0.38573259115219116  0.8983122706413269  1.0000
  P   P1        1.0  0.6964552998542786  0.008486980572342873  0.06697309762239456  1.0000
  V   V1        1.0  0.49313992261886597  0.7293131947517395  0.9508012533187866  1.0000
  V   V2        1.0  0.9544259309768677  0.6742089986801147  0.31256070733070374  1.0000
  Zn  Zn1       1.0  0.4320398271083832  0.8217119574546814  0.956524670124054  1.0000
