data_image0
_chemical_formula_structural       AsGe4I2LuPtTbZnZr
_chemical_formula_sum              "As1 Ge4 I2 Lu1 Pt1 Tb1 Zn1 Zr1"
_cell_length_a       6.695736393324053
_cell_length_b       6.95767737148835
_cell_length_c       7.791106700897217
_cell_angle_alpha    115.85889615936355
_cell_angle_beta     105.46746974811906
_cell_angle_gamma    91.76938104146595

_space_group_name_H-M_alt    "P 1"
_space_group_IT_number       1

loop_
  _space_group_symop_operation_xyz
  'x, y, z'

loop_
  _atom_site_type_symbol
  _atom_site_label
  _atom_site_symmetry_multiplicity
  _atom_site_fract_x
  _atom_site_fract_y
  _atom_site_fract_z
  _atom_site_occupancy
  As  As1       1.0  0.9553714394569396  0.959177553653717  0.7814449071884154  1.0000
  Ge  Ge1       1.0  0.21094332635402677  0.9041372537612915  0.9751713275909423  1.0000
  Ge  Ge2       1.0  0.19342163205146787  0.7045517563819885  0.07489727437496191  1.0000
  Ge  Ge3       1.0  0.2132594287395477  0.01958739012479782  0.34270122647285456  1.0000
  Ge  Ge4       1.0  0.7100912928581238  0.007036265451461077  0.24413312971591944  1.0000
  I   I1        1.0  0.7175247669219971  0.6833797097206116  0.36924356222152704  1.0000
  I   I2        1.0  0.7015549540519714  0.7347394824028015  0.1526934802532196  1.0000
  Lu  Lu1       1.0  0.7181119918823242  0.9167503714561462  0.5535749793052673  1.0000
  Pt  Pt1       1.0  0.21630574762821195  0.465674489736557  0.2798111140727997  1.0000
  Tb  Tb1       1.0  0.21655428409576413  0.16906364262104034  0.631087303161621  1.0000
  Zn  Zn1       1.0  0.7208116054534912  0.7297905683517456  0.3529008328914642  1.0000
  Zr  Zr1       1.0  0.7112491726875305  0.9259684681892395  0.2992774546146393  1.0000
