data_image0
_chemical_formula_structural       CsEr2Ge4I2LuPbV
_chemical_formula_sum              "Cs1 Er2 Ge4 I2 Lu1 Pb1 V1"
_cell_length_a       6.362455999162997
_cell_length_b       7.571769076613634
_cell_length_c       7.931629180908203
_cell_angle_alpha    108.83501109237106
_cell_angle_beta     108.18110785387228
_cell_angle_gamma    90.25320608109136

_space_group_name_H-M_alt    "P 1"
_space_group_IT_number       1

loop_
  _space_group_symop_operation_xyz
  'x, y, z'

loop_
  _atom_site_type_symbol
  _atom_site_label
  _atom_site_symmetry_multiplicity
  _atom_site_fract_x
  _atom_site_fract_y
  _atom_site_fract_z
  _atom_site_occupancy
  Cs  Cs1       1.0  0.2757411301136017  0.8870432376861571  0.7832326292991638  1.0000
  Er  Er1       1.0  0.5582963228225708  0.5999621152877808  0.32653889060020447  1.0000
  Er  Er2       1.0  0.28319960832595825  0.6612730026245117  0.04207960143685341  1.0000
  Ge  Ge1       1.0  0.7685796022415161  0.16581439971923828  0.37391501665115356  1.0000
  Ge  Ge2       1.0  0.28603219985961914  0.8916708230972289  0.09945926815271378  1.0000
  Ge  Ge3       1.0  0.28017082810401917  0.9569960236549376  0.017303740605711937  1.0000
  Ge  Ge4       1.0  0.31208285689353943  0.5555261373519897  0.6679051518440247  1.0000
  I   I1        1.0  0.2870575189590454  0.6787570118904114  0.69786536693573  1.0000
  I   I2        1.0  0.8546457886695862  0.8843421339988707  0.8994511961936951  1.0000
  Lu  Lu1       1.0  0.7934165000915527  0.729910135269165  0.09839865565299988  1.0000
  Pb  Pb1       1.0  0.8027986288070679  0.26438620686531067  0.06708677113056183  1.0000
  V   V1        1.0  0.8092664480209351  0.8576396703720092  0.2600661516189575  1.0000
