data_image0
_chemical_formula_structural       CeEuGe2I2LuRuSbZn2Zr
_chemical_formula_sum              "Ce1 Eu1 Ge2 I2 Lu1 Ru1 Sb1 Zn2 Zr1"
_cell_length_a       6.560615388608186
_cell_length_b       8.691591053690905
_cell_length_c       9.06102180480957
_cell_angle_alpha    123.03092397170164
_cell_angle_beta     89.8163421722386
_cell_angle_gamma    90.25347641665307

_space_group_name_H-M_alt    "P 1"
_space_group_IT_number       1

loop_
  _space_group_symop_operation_xyz
  'x, y, z'

loop_
  _atom_site_type_symbol
  _atom_site_label
  _atom_site_symmetry_multiplicity
  _atom_site_fract_x
  _atom_site_fract_y
  _atom_site_fract_z
  _atom_site_occupancy
  Ce  Ce1       1.0  0.016807321459054947  0.24218666553497312  0.8879988193511963  1.0000
  Eu  Eu1       1.0  0.5154459476470947  0.6877448558807372  0.15593431890010823  1.0000
  Ge  Ge1       1.0  0.013922017067670822  0.7746089100837706  0.46480679512023915  1.0000
  Ge  Ge2       1.0  0.5176552534103394  0.2682788670063019  0.2062364965677261  1.0000
  I   I1        1.0  0.010871410369873047  0.766806125640869  0.6107372641563414  1.0000
  I   I2        1.0  0.509220540523529  0.033500611782073975  0.70502769947052  1.0000
  Lu  Lu1       1.0  0.5193524956703186  0.26419398188591003  0.4897262156009674  1.0000
  Ru  Ru1       1.0  0.5151890516281127  0.08311215043067931  0.33837598562240595  1.0000
  Sb  Sb1       1.0  0.015507559292018414  0.19979885220527646  0.6593313813209534  1.0000
  Zn  Zn1       1.0  0.014715720899403095  0.10294120013713835  0.570387601852417  1.0000
  Zn  Zn2       1.0  0.01436792965978384  0.7215563654899596  0.9246480464935303  1.0000
  Zr  Zr1       1.0  0.020208090543746948  0.2934313714504242  0.8145962953567505  1.0000
