data_image0
_chemical_formula_structural       ErGe7IrOs2Se
_chemical_formula_sum              "Er1 Ge7 Ir1 Os2 Se1"
_cell_length_a       6.829297132462015
_cell_length_b       7.169179415447275
_cell_length_c       6.9902849197387695
_cell_angle_alpha    107.72197584616256
_cell_angle_beta     106.31607825437304
_cell_angle_gamma    106.18809526381206

_space_group_name_H-M_alt    "P 1"
_space_group_IT_number       1

loop_
  _space_group_symop_operation_xyz
  'x, y, z'

loop_
  _atom_site_type_symbol
  _atom_site_label
  _atom_site_symmetry_multiplicity
  _atom_site_fract_x
  _atom_site_fract_y
  _atom_site_fract_z
  _atom_site_occupancy
  Er  Er1       1.0  0.6231961846351624  0.7930633425712585  0.30459743738174444  1.0000
  Ge  Ge1       1.0  0.32034793496131897  0.23195208609104156  0.13720989227294922  1.0000
  Ge  Ge2       1.0  0.21904629468917847  0.31411460041999817  0.4536421000957489  1.0000
  Ge  Ge3       1.0  0.6516861915588379  0.6220482587814331  0.617991030216217  1.0000
  Ge  Ge4       1.0  0.111308254301548  0.9003087282180786  0.6356671452522278  1.0000
  Ge  Ge5       1.0  0.5869413614273071  0.26807668805122375  0.5875670909881592  1.0000
  Ge  Ge6       1.0  0.6780178546905518  0.38394463062286377  0.308057576417923  1.0000
  Ge  Ge7       1.0  0.9119590520858765  0.9380156397819519  0.12468276917934423  1.0000
  Ir  Ir1       1.0  0.6318737268447876  0.6982428431510925  0.9849693775177002  1.0000
  Os  Os1       1.0  0.20039232075214386  0.041128575801849365  0.831062376499176  1.0000
  Os  Os2       1.0  0.6030018329620361  0.997357964515686  0.6448996067047119  1.0000
  Se  Se1       1.0  0.5666522979736328  0.7619853615760803  0.2120855152606964  1.0000
