data_image0
_chemical_formula_structural       Ge8I2IrOs
_chemical_formula_sum              "Ge8 I2 Ir1 Os1"
_cell_length_a       8.91882862155305
_cell_length_b       8.738511660246973
_cell_length_c       8.343363761901855
_cell_angle_alpha    109.67262233543462
_cell_angle_beta     110.72140731822371
_cell_angle_gamma    108.16144153424518

_space_group_name_H-M_alt    "P 1"
_space_group_IT_number       1

loop_
  _space_group_symop_operation_xyz
  'x, y, z'

loop_
  _atom_site_type_symbol
  _atom_site_label
  _atom_site_symmetry_multiplicity
  _atom_site_fract_x
  _atom_site_fract_y
  _atom_site_fract_z
  _atom_site_occupancy
  Ge  Ge1       1.0  0.06466271728277206  0.5914396643638611  0.6450358629226685  1.0000
  Ge  Ge2       1.0  0.045073334127664566  0.004426952917128801  0.10227107256650925  1.0000
  Ge  Ge3       1.0  0.6506566405296326  0.6677801609039307  0.3106090724468231  1.0000
  Ge  Ge4       1.0  0.5576702356338501  0.8688330054283142  0.049691192805766955  1.0000
  Ge  Ge5       1.0  0.3323839604854584  0.5092688202857971  0.929106056690216  1.0000
  Ge  Ge6       1.0  0.5596133470535278  0.2252856343984604  0.15094099938869476  1.0000
  Ge  Ge7       1.0  0.06490954756736755  0.5719715356826782  0.5073021054267883  1.0000
  Ge  Ge8       1.0  0.061035025864839554  0.5071646571159363  0.17216137051582334  1.0000
  I   I1        1.0  0.5639060139656067  0.9573115706443787  0.13655893504619587  1.0000
  I   I2        1.0  0.5317628979682922  0.5916656255722046  0.5413435101509093  1.0000
  Ir  Ir1       1.0  0.5711032152175903  0.5734918713569641  0.5036205649375914  1.0000
  Os  Os1       1.0  0.5635031461715698  0.42429259419441223  0.1437442302703857  1.0000
