data_image0
_chemical_formula_structural       AsZn2Zr8
_chemical_formula_sum              "As1 Zn2 Zr8"
_cell_length_a       6.160619456155238
_cell_length_b       6.064980963842507
_cell_length_c       8.201510429382324
_cell_angle_alpha    100.90350921525156
_cell_angle_beta     90.46550812010244
_cell_angle_gamma    88.44780874749692

_space_group_name_H-M_alt    "P 1"
_space_group_IT_number       1

loop_
  _space_group_symop_operation_xyz
  'x, y, z'

loop_
  _atom_site_type_symbol
  _atom_site_label
  _atom_site_symmetry_multiplicity
  _atom_site_fract_x
  _atom_site_fract_y
  _atom_site_fract_z
  _atom_site_occupancy
  As  As1       1.0  0.434995174407959  0.38450291752815247  0.4746561348438263  1.0000
  Zn  Zn1       1.0  0.35752832889556885  0.8641809225082397  0.7761756181716919  1.0000
  Zn  Zn2       1.0  0.347232460975647  0.21830660104751587  0.3182457387447357  1.0000
  Zr  Zr1       1.0  0.12176083773374557  0.38987189531326294  0.8722696304321289  1.0000
  Zr  Zr2       1.0  0.10947499424219131  0.326027512550354  0.6428160071372986  1.0000
  Zr  Zr3       1.0  0.7984950542449951  0.5109913945198059  0.1296186000108719  1.0000
  Zr  Zr4       1.0  0.4879072606563568  0.04226381704211235  0.47772520780563354  1.0000
  Zr  Zr5       1.0  0.34733545780181885  0.24278245866298676  0.40334832668304443  1.0000
  Zr  Zr6       1.0  0.9978839755058289  0.2871551513671875  0.0929805263876915  1.0000
  Zr  Zr7       1.0  0.8782494068145752  0.07214720547199249  0.8782329559326172  1.0000
  Zr  Zr8       1.0  0.6086012721061707  0.2597072422504425  0.6620127558708191  1.0000
