data_image0
_chemical_formula_structural       LuPb2ZnZr7
_chemical_formula_sum              "Lu1 Pb2 Zn1 Zr7"
_cell_length_a       5.065526488142195
_cell_length_b       4.862699698605791
_cell_length_c       8.350810050964355
_cell_angle_alpha    125.93351495937593
_cell_angle_beta     91.40306029901281
_cell_angle_gamma    88.32936848873148

_space_group_name_H-M_alt    "P 1"
_space_group_IT_number       1

loop_
  _space_group_symop_operation_xyz
  'x, y, z'

loop_
  _atom_site_type_symbol
  _atom_site_label
  _atom_site_symmetry_multiplicity
  _atom_site_fract_x
  _atom_site_fract_y
  _atom_site_fract_z
  _atom_site_occupancy
  Lu  Lu1       1.0  0.4716924726963043  0.5480791926383972  0.20001329481601712  1.0000
  Pb  Pb1       1.0  0.21731296181678772  0.9892983436584473  0.6533598899841309  1.0000
  Pb  Pb2       1.0  0.4940747320652008  0.4011323153972626  0.25273361802101135  1.0000
  Zn  Zn1       1.0  0.19155922532081604  0.38929906487464905  0.48057305812835693  1.0000
  Zr  Zr1       1.0  0.9966277480125427  0.3401179015636444  0.3707561492919922  1.0000
  Zr  Zr2       1.0  0.5063537359237671  0.4869197905063629  0.6596887707710266  1.0000
  Zr  Zr3       1.0  0.49501171708106995  0.6558762788772583  0.8685583472251892  1.0000
  Zr  Zr4       1.0  0.2254430502653122  0.5469772219657898  0.9623715281486511  1.0000
  Zr  Zr5       1.0  0.716700553894043  0.47040706872940063  0.7800144553184509  1.0000
  Zr  Zr6       1.0  0.7740318179130554  0.2329576313495636  0.27509093284606934  1.0000
  Zr  Zr7       1.0  0.9857770204544067  0.26707905530929565  0.28129029273986816  1.0000
