data_image0
_chemical_formula_structural       Sn3Zr8
_chemical_formula_sum              "Sn3 Zr8"
_cell_length_a       6.2609457071650345
_cell_length_b       6.138145063194661
_cell_length_c       6.2784247398376465
_cell_angle_alpha    95.4605497683202
_cell_angle_beta     85.84266962608527
_cell_angle_gamma    88.4796056202035

_space_group_name_H-M_alt    "P 1"
_space_group_IT_number       1

loop_
  _space_group_symop_operation_xyz
  'x, y, z'

loop_
  _atom_site_type_symbol
  _atom_site_label
  _atom_site_symmetry_multiplicity
  _atom_site_fract_x
  _atom_site_fract_y
  _atom_site_fract_z
  _atom_site_occupancy
  Sn  Sn1       1.0  0.7630310654640197  0.5283721685409546  0.3480615317821503  1.0000
  Sn  Sn2       1.0  0.761530041694641  0.5815916657447815  0.4014624953269959  1.0000
  Sn  Sn3       1.0  0.2568158507347107  0.8561336398124696  0.48437651991844183  1.0000
  Zr  Zr1       1.0  0.7672231197357177  0.7590232491493225  0.28823333978652954  1.0000
  Zr  Zr2       1.0  0.26637229323387146  0.17969904839992523  0.402910202741623  1.0000
  Zr  Zr3       1.0  0.7670481204986571  0.2909596264362335  0.022143781185150153  1.0000
  Zr  Zr4       1.0  0.26893967390060425  0.7809747457504272  0.5504484176635742  1.0000
  Zr  Zr5       1.0  0.26763343811035156  0.30340662598609924  0.15275287628173828  1.0000
  Zr  Zr6       1.0  0.764725625514984  0.5218559503555298  0.3204159140586853  1.0000
  Zr  Zr7       1.0  0.26765525341033936  0.6367220282554626  0.3793805837631226  1.0000
  Zr  Zr8       1.0  0.2674649655818939  0.6765437722206116  0.9313324689865113  1.0000
