data_image0
_chemical_formula_structural       GaZnZr9
_chemical_formula_sum              "Ga1 Zn1 Zr9"
_cell_length_a       4.791587219007107
_cell_length_b       3.164697499569301
_cell_length_c       5.909834384918213
_cell_angle_alpha    164.3666287179057
_cell_angle_beta     97.18149805098699
_cell_angle_gamma    95.21165780379756

_space_group_name_H-M_alt    "P 1"
_space_group_IT_number       1

loop_
  _space_group_symop_operation_xyz
  'x, y, z'

loop_
  _atom_site_type_symbol
  _atom_site_label
  _atom_site_symmetry_multiplicity
  _atom_site_fract_x
  _atom_site_fract_y
  _atom_site_fract_z
  _atom_site_occupancy
  Ga  Ga1       1.0  0.17215310037136078  0.7243672609329224  0.21648588776588437  1.0000
  Zn  Zn1       1.0  0.9356603622436523  0.14736096560955053  0.7093738913536072  1.0000
  Zr  Zr1       1.0  0.23584404587745667  0.97367924451828  0.8149027228355408  1.0000
  Zr  Zr2       1.0  0.6256830096244812  0.18516391515731814  0.20067518949508667  1.0000
  Zr  Zr3       1.0  0.31915172934532166  0.19133995473384857  0.2829371392726898  1.0000
  Zr  Zr4       1.0  0.26533687114715576  0.9240740537643433  0.6334211826324463  1.0000
  Zr  Zr5       1.0  0.1926157027482987  0.4366764128208164  0.8976091742515565  1.0000
  Zr  Zr6       1.0  0.9291286468505859  0.5761353373527527  0.09088263660669327  1.0000
  Zr  Zr7       1.0  0.6783267855644226  0.8420721292495729  0.4687061309814453  1.0000
  Zr  Zr8       1.0  0.6740188002586365  0.3181436955928803  0.500911295413971  1.0000
  Zr  Zr9       1.0  0.9371960759162903  0.8479838967323303  0.1633770167827606  1.0000
