data_image0
_chemical_formula_structural       FRuSn3Zr6
_chemical_formula_sum              "F1 Ru1 Sn3 Zr6"
_cell_length_a       5.556836712384434
_cell_length_b       7.172062331237227
_cell_length_c       7.429357051849365
_cell_angle_alpha    127.33064052698596
_cell_angle_beta     90.2044957748592
_cell_angle_gamma    90.63958317786316

_space_group_name_H-M_alt    "P 1"
_space_group_IT_number       1

loop_
  _space_group_symop_operation_xyz
  'x, y, z'

loop_
  _atom_site_type_symbol
  _atom_site_label
  _atom_site_symmetry_multiplicity
  _atom_site_fract_x
  _atom_site_fract_y
  _atom_site_fract_z
  _atom_site_occupancy
  F   F1        1.0  0.6355403065681458  0.8718920946121216  0.49533298611640925  1.0000
  Ru  Ru1       1.0  0.6523246765136719  0.6833199858665466  0.15521885454654694  1.0000
  Sn  Sn1       1.0  0.647551417350769  0.39295488595962524  0.012829694896936415  1.0000
  Sn  Sn2       1.0  0.6815207004547119  0.13513866066932678  0.7728989720344542  1.0000
  Sn  Sn3       1.0  0.14803223311901093  0.2528325319290161  0.16168224811553952  1.0000
  Zr  Zr1       1.0  0.17179293930530548  0.3294523358345032  0.8004549145698546  1.0000
  Zr  Zr2       1.0  0.6633708477020264  0.9434118270874023  0.9285643100738524  1.0000
  Zr  Zr3       1.0  0.15122199058532715  0.7372247576713562  0.08050321787595748  1.0000
  Zr  Zr4       1.0  0.14871886372566223  0.2558230459690094  0.9854545593261718  1.0000
  Zr  Zr5       1.0  0.4021527171134949  0.363176554441452  0.07562948018312454  1.0000
  Zr  Zr6       1.0  0.658978283405304  0.29395559430122375  0.023831745609641103  1.0000
