data_image0
_chemical_formula_structural       GaVZnZr8
_chemical_formula_sum              "Ga1 V1 Zn1 Zr8"
_cell_length_a       5.786924862421951
_cell_length_b       5.963105067793518
_cell_length_c       6.844211101531982
_cell_angle_alpha    125.34801887207612
_cell_angle_beta     88.94762872269384
_cell_angle_gamma    90.04315033372117

_space_group_name_H-M_alt    "P 1"
_space_group_IT_number       1

loop_
  _space_group_symop_operation_xyz
  'x, y, z'

loop_
  _atom_site_type_symbol
  _atom_site_label
  _atom_site_symmetry_multiplicity
  _atom_site_fract_x
  _atom_site_fract_y
  _atom_site_fract_z
  _atom_site_occupancy
  Ga  Ga1       1.0  0.4670322835445404  0.2451777458190918  0.791430950164795  1.0000
  V   V1        1.0  0.4713253378868103  0.7709837555885315  0.4032087326049805  1.0000
  Zn  Zn1       1.0  0.9702346920967102  0.7781537771224976  0.43688315153121954  1.0000
  Zr  Zr1       1.0  0.4656381905078888  0.9079978466033936  0.3825781345367432  1.0000
  Zr  Zr2       1.0  0.46994343400001526  0.7791833877563477  0.7942399978637696  1.0000
  Zr  Zr3       1.0  0.9728298783302307  0.818933367729187  0.1786284297704697  1.0000
  Zr  Zr4       1.0  0.4719645082950592  0.8168096542358398  0.7690375447273256  1.0000
  Zr  Zr5       1.0  0.9673072099685669  0.6824877262115479  0.866231918334961  1.0000
  Zr  Zr6       1.0  0.9724409580230713  0.5287613272666931  0.1714394837617874  1.0000
  Zr  Zr7       1.0  0.972743034362793  0.30084818601608276  0.29194915294647217  1.0000
  Zr  Zr8       1.0  0.9685457348823547  0.1761941909790039  0.8946303129196168  1.0000
