data_image0
_chemical_formula_structural       As2BiEr2IrPRu2SeZn
_chemical_formula_sum              "As2 Bi1 Er2 Ir1 P1 Ru2 Se1 Zn1"
_cell_length_a       5.331959347993877
_cell_length_b       7.405099892989702
_cell_length_c       7.800514221191406
_cell_angle_alpha    122.7075241889662
_cell_angle_beta     91.48078071385063
_cell_angle_gamma    90.2674500053098

_space_group_name_H-M_alt    "P 1"
_space_group_IT_number       1

loop_
  _space_group_symop_operation_xyz
  'x, y, z'

loop_
  _atom_site_type_symbol
  _atom_site_label
  _atom_site_symmetry_multiplicity
  _atom_site_fract_x
  _atom_site_fract_y
  _atom_site_fract_z
  _atom_site_occupancy
  As  As1       1.0  0.9607460498809814  0.9814760684967041  0.285748451948166  1.0000
  As  As2       1.0  0.02187819592654705  0.6657198071479797  0.2901462018489838  1.0000
  Bi  Bi1       1.0  0.5000299215316772  0.7876554131507874  0.9852156639099121  1.0000
  Er  Er1       1.0  0.5128000378608704  0.6642088294029236  0.5474391579627991  1.0000
  Er  Er2       1.0  0.5084596276283264  0.28486913442611694  0.7414717078208923  1.0000
  Ir  Ir1       1.0  0.29479843378067017  0.7525699138641357  0.6554587483406067  1.0000
  P   P1        1.0  0.501992404460907  0.5482587814331055  0.08083860576152807  1.0000
  Ru  Ru1       1.0  0.9316582679748535  0.5667077302932739  0.28342136740684515  1.0000
  Ru  Ru2       1.0  0.0017525681760162115  0.08373773843050003  0.021129844710230827  1.0000
  Se  Se1       1.0  0.4516562223434448  0.9964311718940735  0.7638718485832214  1.0000
  Zn  Zn1       1.0  0.039085038006305695  0.8530536890029907  0.40676185488700867  1.0000
