data_image0
_chemical_formula_structural       AsEr3FLuPtRbRuTbU
_chemical_formula_sum              "As1 Er3 F1 Lu1 Pt1 Rb1 Ru1 Tb1 U1"
_cell_length_a       5.3718997905878245
_cell_length_b       7.066230998748706
_cell_length_c       9.425006866455078
_cell_angle_alpha    114.92233782484223
_cell_angle_beta     90.12401535669183
_cell_angle_gamma    89.3247775088303

_space_group_name_H-M_alt    "P 1"
_space_group_IT_number       1

loop_
  _space_group_symop_operation_xyz
  'x, y, z'

loop_
  _atom_site_type_symbol
  _atom_site_label
  _atom_site_symmetry_multiplicity
  _atom_site_fract_x
  _atom_site_fract_y
  _atom_site_fract_z
  _atom_site_occupancy
  As  As1       1.0  0.8571768403053284  0.17213831841945648  0.37844526767730713  1.0000
  Er  Er1       1.0  0.8536794185638428  0.9561859369277954  0.1881326138973236  1.0000
  Er  Er2       1.0  0.3495939373970032  0.22406014800071716  0.3418591618537903  1.0000
  Er  Er3       1.0  0.8576362729072571  0.5222170352935791  0.10811005532741547  1.0000
  F   F1        1.0  0.3471928834915161  0.5130134224891663  0.3253389000892639  1.0000
  Lu  Lu1       1.0  0.8656126856803894  0.34969601035118103  0.1284559369087219  1.0000
  Pt  Pt1       1.0  0.855514407157898  0.9808430671691895  0.26397117972373957  1.0000
  Rb  Rb1       1.0  0.36157622933387756  0.8416230082511902  0.8639373183250427  1.0000
  Ru  Ru1       1.0  0.8487449288368225  0.5248972773551941  0.16845194995403293  1.0000
  Tb  Tb1       1.0  0.36179351806640625  0.6321505904197693  0.9153239130973816  1.0000
  U   U1        1.0  0.859978437423706  0.5409623384475708  0.26981472969055176  1.0000
