data_image0
_chemical_formula_structural       B4Er7
_chemical_formula_sum              "B4 Er7"
_cell_length_a       5.740091765794171
_cell_length_b       6.537656968940011
_cell_length_c       7.2335286140441895
_cell_angle_alpha    121.37490686481144
_cell_angle_beta     103.74281336818629
_cell_angle_gamma    91.85801759659235

_space_group_name_H-M_alt    "P 1"
_space_group_IT_number       1

loop_
  _space_group_symop_operation_xyz
  'x, y, z'

loop_
  _atom_site_type_symbol
  _atom_site_label
  _atom_site_symmetry_multiplicity
  _atom_site_fract_x
  _atom_site_fract_y
  _atom_site_fract_z
  _atom_site_occupancy
  B   B1        1.0  0.21099548041820526  0.008963316679000854  0.6654210686683655  1.0000
  B   B2        1.0  0.7041377425193787  0.9829071164131165  0.25488582253456116  1.0000
  B   B3        1.0  0.1908784806728363  0.41924241185188293  0.7520020604133606  1.0000
  B   B4        1.0  0.19210697710514069  0.5931437015533447  0.41672557592391973  1.0000
  Er  Er1       1.0  0.2210952341556549  0.8201350569725037  0.04826784506440163  1.0000
  Er  Er2       1.0  0.707170844078064  0.45955154299736023  0.787967324256897  1.0000
  Er  Er3       1.0  0.1884101927280426  0.3052075505256653  0.7425218820571899  1.0000
  Er  Er4       1.0  0.714530885219574  0.8362194895744324  0.6719009876251221  1.0000
  Er  Er5       1.0  0.7093029618263245  0.5726240277290344  0.6507467031478882  1.0000
  Er  Er6       1.0  0.20645788311958313  0.9474160075187683  0.20232520997524264  1.0000
  Er  Er7       1.0  0.6067169308662415  0.5705640912055969  0.2235101014375687  1.0000
