data_image0
_chemical_formula_structural       AsAuErFPbPt2RuSbSiZn
_chemical_formula_sum              "As1 Au1 Er1 F1 Pb1 Pt2 Ru1 Sb1 Si1 Zn1"
_cell_length_a       4.1735575678663235
_cell_length_b       2.4700264164664403
_cell_length_c       11.10328483581543
_cell_angle_alpha    104.84944164840437
_cell_angle_beta     98.93152261258146
_cell_angle_gamma    86.17428652938109

_space_group_name_H-M_alt    "P 1"
_space_group_IT_number       1

loop_
  _space_group_symop_operation_xyz
  'x, y, z'

loop_
  _atom_site_type_symbol
  _atom_site_label
  _atom_site_symmetry_multiplicity
  _atom_site_fract_x
  _atom_site_fract_y
  _atom_site_fract_z
  _atom_site_occupancy
  As  As1       1.0  0.855049729347229  0.8505578637123108  0.20586898922920227  1.0000
  Au  Au1       1.0  0.13675561547279358  0.9710831642150879  0.4295945167541504  1.0000
  Er  Er1       1.0  0.8813914060592651  0.17083442211151123  0.11748924106359482  1.0000
  F   F1        1.0  0.8388937711715698  0.9104174971580505  0.34951987862586975  1.0000
  Pb  Pb1       1.0  0.381987601518631  0.3660651743412018  0.14653055369853973  1.0000
  Pt  Pt1       1.0  0.373465359210968  0.07482359558343887  0.6539454460144043  1.0000
  Pt  Pt2       1.0  0.39689794182777405  0.6443060040473938  0.12892766296863556  1.0000
  Ru  Ru1       1.0  0.8998803496360779  0.629717230796814  0.10516271740198135  1.0000
  Sb  Sb1       1.0  0.8407443165779114  0.8201125264167786  0.8861998915672302  1.0000
  Si  Si1       1.0  0.7036924362182617  0.6510241627693176  0.739011824131012  1.0000
  Zn  Zn1       1.0  0.34530556201934814  0.8997732996940613  0.4504862129688263  1.0000
