data_image0
_chemical_formula_structural       B5Er6
_chemical_formula_sum              "B5 Er6"
_cell_length_a       4.866902147723356
_cell_length_b       6.420229504211141
_cell_length_c       6.8911871910095215
_cell_angle_alpha    128.92238173587302
_cell_angle_beta     93.22185066687057
_cell_angle_gamma    91.82673892414178

_space_group_name_H-M_alt    "P 1"
_space_group_IT_number       1

loop_
  _space_group_symop_operation_xyz
  'x, y, z'

loop_
  _atom_site_type_symbol
  _atom_site_label
  _atom_site_symmetry_multiplicity
  _atom_site_fract_x
  _atom_site_fract_y
  _atom_site_fract_z
  _atom_site_occupancy
  B   B1        1.0  0.6109870076179504  0.11952538788318634  0.11708597838878633  1.0000
  B   B2        1.0  0.10638934373855591  0.6390657424926758  0.5527992248535156  1.0000
  B   B3        1.0  0.3520309329032898  0.05905992537736893  0.1391277313232422  1.0000
  B   B4        1.0  0.6116459369659424  0.7189950346946716  0.12012880295515062  1.0000
  B   B5        1.0  0.11464964598417282  0.2981617748737335  0.20377101004123693  1.0000
  Er  Er1       1.0  0.610609769821167  0.1940946877002716  0.3465967476367951  1.0000
  Er  Er2       1.0  0.10846595466136932  0.8299387693405151  0.12491511553525932  1.0000
  Er  Er3       1.0  0.097531259059906  0.2513101398944855  0.9610304832458497  1.0000
  Er  Er4       1.0  0.11061597615480423  0.4646286368370056  0.26938408613204956  1.0000
  Er  Er5       1.0  0.11045071482658386  0.23311375081539154  0.2556184232234955  1.0000
  Er  Er6       1.0  0.6084523797035217  0.7571172714233398  0.9658313393592836  1.0000
