data_image0
_chemical_formula_structural       B2ErGaI2LiLuP2Tb
_chemical_formula_sum              "B2 Er1 Ga1 I2 Li1 Lu1 P2 Tb1"
_cell_length_a       5.27432504304213
_cell_length_b       7.635412244846451
_cell_length_c       9.216108322143555
_cell_angle_alpha    114.32153169011656
_cell_angle_beta     90.14271399824082
_cell_angle_gamma    89.93640963118472

_space_group_name_H-M_alt    "P 1"
_space_group_IT_number       1

loop_
  _space_group_symop_operation_xyz
  'x, y, z'

loop_
  _atom_site_type_symbol
  _atom_site_label
  _atom_site_symmetry_multiplicity
  _atom_site_fract_x
  _atom_site_fract_y
  _atom_site_fract_z
  _atom_site_occupancy
  B   B1        1.0  0.3488232493400574  0.754612922668457  0.9097762107849121  1.0000
  B   B2        1.0  0.34376874566078186  0.48982933163642883  0.17452687025070193  1.0000
  Er  Er1       1.0  0.8422967195510864  0.736716628074646  0.26369535923004156  1.0000
  Ga  Ga1       1.0  0.8371796607971191  0.21419960260391235  0.09262482076883317  1.0000
  I   I1        1.0  0.3475048542022705  0.8891959190368652  0.46003201603889465  1.0000
  I   I2        1.0  0.8419306874275208  0.4068000018596649  0.7118149995803833  1.0000
  Li  Li1       1.0  0.3469808101654053  0.5775310397148132  0.184214323759079  1.0000
  Lu  Lu1       1.0  0.842788577079773  0.4258619248867035  0.6675727367401123  1.0000
  P   P1        1.0  0.34746527671813965  0.9851908087730408  0.6496519446372987  1.0000
  P   P2        1.0  0.35165631771087646  0.05052919313311577  0.837195634841919  1.0000
  Tb  Tb1       1.0  0.868553876876831  0.9484226703643799  0.5511563420295715  1.0000
