data_image0
_chemical_formula_structural       DyFe3NiSi
_chemical_formula_sum              "Dy1 Fe3 Ni1 Si1"
_cell_length_a       4.84575766882324
_cell_length_b       5.291043871927755
_cell_length_c       5.438396453857422
_cell_angle_alpha    118.61263150573201
_cell_angle_beta     108.69118599540658
_cell_angle_gamma    88.60019793485739

_space_group_name_H-M_alt    "P 1"
_space_group_IT_number       1

loop_
  _space_group_symop_operation_xyz
  'x, y, z'

loop_
  _atom_site_type_symbol
  _atom_site_label
  _atom_site_symmetry_multiplicity
  _atom_site_fract_x
  _atom_site_fract_y
  _atom_site_fract_z
  _atom_site_occupancy
  Dy  Dy1       1.0  0.21161998808383942  0.08864890784025192  0.6863943338394165  1.0000
  Fe  Fe1       1.0  0.21265538036823273  0.08833962678909302  0.18919213116168979  1.0000
  Fe  Fe2       1.0  0.8270930051803589  0.3329644203186035  0.688856840133667  1.0000
  Fe  Fe3       1.0  0.8249472975730896  0.5890439748764038  0.6873932480812073  1.0000
  Ni  Ni1       1.0  0.5561450123786926  0.08168099820613861  0.38448002934455877  1.0000
  Si  Si1       1.0  0.6941307783126831  0.5925655364990234  0.8318787217140199  1.0000
