data_image0
_chemical_formula_structural       Fe5W
_chemical_formula_sum              "Fe5 W1"
_cell_length_a       4.218385399548649
_cell_length_b       4.617877713389324
_cell_length_c       4.289314270019531
_cell_angle_alpha    61.7134098747677
_cell_angle_beta     56.2072263382664
_cell_angle_gamma    59.46637373534252

_space_group_name_H-M_alt    "P 1"
_space_group_IT_number       1

loop_
  _space_group_symop_operation_xyz
  'x, y, z'

loop_
  _atom_site_type_symbol
  _atom_site_label
  _atom_site_symmetry_multiplicity
  _atom_site_fract_x
  _atom_site_fract_y
  _atom_site_fract_z
  _atom_site_occupancy
  Fe  Fe1       1.0  0.14813931286334991  0.8195854425430298  0.9157974123954773  1.0000
  Fe  Fe2       1.0  0.13350743055343628  0.23799073696136475  0.799979031085968  1.0000
  Fe  Fe3       1.0  0.43404728174209595  0.07835910469293594  0.2725130915641784  1.0000
  Fe  Fe4       1.0  0.9495581388473511  0.5197201371192932  0.5161446928977965  1.0000
  Fe  Fe5       1.0  0.7961254119873047  0.8590297698974609  0.7628036141395568  1.0000
  W   W1        1.0  0.5469298362731934  0.5928544998168945  0.2837562561035156  1.0000
