data_image0
_chemical_formula_structural       Ge2HMoNbSbVZr2
_chemical_formula_sum              "Ge2 H1 Mo1 Nb1 Sb1 V1 Zr2"
_cell_length_a       4.733237904106299
_cell_length_b       5.213633403006986
_cell_length_c       5.419466018676758
_cell_angle_alpha    114.39722557213402
_cell_angle_beta     91.06487312842899
_cell_angle_gamma    91.25756595682036

_space_group_name_H-M_alt    "P 1"
_space_group_IT_number       1

loop_
  _space_group_symop_operation_xyz
  'x, y, z'

loop_
  _atom_site_type_symbol
  _atom_site_label
  _atom_site_symmetry_multiplicity
  _atom_site_fract_x
  _atom_site_fract_y
  _atom_site_fract_z
  _atom_site_occupancy
  Ge  Ge1       1.0  0.6355612277984619  0.060317397117614746  0.577316403388977  1.0000
  Ge  Ge2       1.0  0.14546217024326324  0.4269258677959442  0.7590739727020264  1.0000
  H   H1        1.0  0.6475145816802979  0.07765943557024002  0.7955181002616882  1.0000
  Mo  Mo1       1.0  0.13556353747844696  0.6499202847480774  0.49322623014450073  1.0000
  Nb  Nb1       1.0  0.13776881992816925  0.060462623834609985  0.6011678576469421  1.0000
  Sb  Sb1       1.0  0.6368571519851685  0.083842933177948  0.6455568671226501  1.0000
  V   V1        1.0  0.6419902443885803  0.5096193552017212  0.6981227993965149  1.0000
  Zr  Zr1       1.0  0.6349438428878784  0.2972871959209442  0.12264997512102127  1.0000
  Zr  Zr2       1.0  0.1388237178325653  0.8346577882766724  0.20794560015201569  1.0000
