data_image0
_chemical_formula_structural       Nb9
_chemical_formula_sum              "Nb9"
_cell_length_a       4.160811724405719
_cell_length_b       4.9982526881827605
_cell_length_c       7.970852375030518
_cell_angle_alpha    124.6297055228043
_cell_angle_beta     90.23377084950675
_cell_angle_gamma    87.67896575813815

_space_group_name_H-M_alt    "P 1"
_space_group_IT_number       1

loop_
  _space_group_symop_operation_xyz
  'x, y, z'

loop_
  _atom_site_type_symbol
  _atom_site_label
  _atom_site_symmetry_multiplicity
  _atom_site_fract_x
  _atom_site_fract_y
  _atom_site_fract_z
  _atom_site_occupancy
  Nb  Nb1       1.0  0.2814287841320038  0.5139557123184204  0.8134772777557373  1.0000
  Nb  Nb2       1.0  0.7809030413627625  0.8661469221115112  0.30938622355461115  1.0000
  Nb  Nb3       1.0  0.2843034863471985  0.49867281317710876  0.3059142529964447  1.0000
  Nb  Nb4       1.0  0.2806912958621979  0.46315452456474304  0.308434396982193  1.0000
  Nb  Nb5       1.0  0.7756593823432922  0.8293342590332031  0.3479888439178467  1.0000
  Nb  Nb6       1.0  0.7806471586227417  0.6129589676856995  0.47413304448127747  1.0000
  Nb  Nb7       1.0  0.7806442975997925  0.8356100916862488  0.2164842039346695  1.0000
  Nb  Nb8       1.0  0.2829132378101349  0.02417023479938507  0.941663384437561  1.0000
  Nb  Nb9       1.0  0.7818982601165771  0.7622478008270264  0.36398813128471375  1.0000
