data_image0
_chemical_formula_structural       GeNNb5Sb2
_chemical_formula_sum              "Ge1 N1 Nb5 Sb2"
_cell_length_a       5.892419501451618
_cell_length_b       5.640834823439495
_cell_length_c       6.4176926612854
_cell_angle_alpha    66.97796683986707
_cell_angle_beta     66.5573931118384
_cell_angle_gamma    60.12057579074985

_space_group_name_H-M_alt    "P 1"
_space_group_IT_number       1

loop_
  _space_group_symop_operation_xyz
  'x, y, z'

loop_
  _atom_site_type_symbol
  _atom_site_label
  _atom_site_symmetry_multiplicity
  _atom_site_fract_x
  _atom_site_fract_y
  _atom_site_fract_z
  _atom_site_occupancy
  Ge  Ge1       1.0  0.5204854607582092  0.7249473929405212  0.9322153925895691  1.0000
  N   N1        1.0  0.9843211174011229  0.6604666709899902  0.14007821679115295  1.0000
  Nb  Nb1       1.0  0.017186671495437622  0.8943149447441101  0.9765946865081787  1.0000
  Nb  Nb2       1.0  0.48976105451583857  0.5985898971557617  0.3843958377838135  1.0000
  Nb  Nb3       1.0  0.49144539237022394  0.09038084000349045  0.23477800190448767  1.0000
  Nb  Nb4       1.0  0.9860507249832152  0.7907431125640869  0.9861637949943542  1.0000
  Nb  Nb5       1.0  0.48016038537025446  0.1627100557088852  0.769247829914093  1.0000
  Sb  Sb1       1.0  0.8632234930992125  0.9699313640594482  0.39739343523979187  1.0000
  Sb  Sb2       1.0  0.476636916399002  0.763089656829834  0.7665495276451111  1.0000
