data_image0
_chemical_formula_structural       Cd4Tb3
_chemical_formula_sum              "Cd4 Tb3"
_cell_length_a       5.369949785756319
_cell_length_b       5.1674130755890335
_cell_length_c       6.067834377288818
_cell_angle_alpha    143.90446263063194
_cell_angle_beta     85.22090548041042
_cell_angle_gamma    85.3504057623638

_space_group_name_H-M_alt    "P 1"
_space_group_IT_number       1

loop_
  _space_group_symop_operation_xyz
  'x, y, z'

loop_
  _atom_site_type_symbol
  _atom_site_label
  _atom_site_symmetry_multiplicity
  _atom_site_fract_x
  _atom_site_fract_y
  _atom_site_fract_z
  _atom_site_occupancy
  Cd  Cd1       1.0  0.17518827319145197  0.1385137885808947  0.8377127647399903  1.0000
  Cd  Cd2       1.0  0.6735197901725769  0.8156844973564148  0.028697164729237484  1.0000
  Cd  Cd3       1.0  0.6703017354011536  0.45961302518844604  0.0514053106307983  1.0000
  Cd  Cd4       1.0  0.4300795793533325  0.5750232338905334  0.2984843850135803  1.0000
  Tb  Tb1       1.0  0.4243917465209961  0.07592707872390747  0.0710938572883606  1.0000
  Tb  Tb2       1.0  0.9231194853782654  0.4349904358386993  0.044957175850868204  1.0000
  Tb  Tb3       1.0  0.17411495745182035  0.3671801388263704  0.6568176150321962  1.0000
