data_image0
_chemical_formula_structural       GeHINaNiO5Tb
_chemical_formula_sum              "Ge1 H1 I1 Na1 Ni1 O5 Tb1"
_cell_length_a       5.9728240544793865
_cell_length_b       5.964042574243947
_cell_length_c       6.020480155944824
_cell_angle_alpha    66.71806603617323
_cell_angle_beta     66.878785442825
_cell_angle_gamma    65.72776041926447

_space_group_name_H-M_alt    "P 1"
_space_group_IT_number       1

loop_
  _space_group_symop_operation_xyz
  'x, y, z'

loop_
  _atom_site_type_symbol
  _atom_site_label
  _atom_site_symmetry_multiplicity
  _atom_site_fract_x
  _atom_site_fract_y
  _atom_site_fract_z
  _atom_site_occupancy
  Ge  Ge1       1.0  0.7851346135139465  0.3841322064399719  0.5378212928771973  1.0000
  H   H1        1.0  0.8001129627227783  0.8974012136459351  0.3368399143218994  1.0000
  I   I1        1.0  0.4627070128917694  0.04266037419438362  0.8135701417922974  1.0000
  Na  Na1       1.0  0.22423669695854187  0.8216692209243774  0.5307331681251526  1.0000
  Ni  Ni1       1.0  0.9524677395820618  0.30210500955581665  0.07967244088649747  1.0000
  O   O1        1.0  0.9601137042045593  0.9016328454017639  0.2816398143768311  1.0000
  O   O2        1.0  0.6064416766166687  0.5156810283660889  0.3005861043930053  1.0000
  O   O3        1.0  0.7432025671005249  0.37355881929397583  0.8424510359764099  1.0000
  O   O4        1.0  0.06142396479845047  0.2664526402950287  0.3810874819755554  1.0000
  O   O5        1.0  0.07800568640232086  0.5853452682495117  0.9200677275657654  1.0000
  Tb  Tb1       1.0  0.31766700744628906  0.5525079369544983  0.12450268864631654  1.0000
