data_image0
_chemical_formula_structural       Na3Nd2O5Os
_chemical_formula_sum              "Na3 Nd2 O5 Os1"
_cell_length_a       4.850840742383801
_cell_length_b       5.718995935474272
_cell_length_c       6.754962921142578
_cell_angle_alpha    105.17218136414088
_cell_angle_beta     90.04659926552006
_cell_angle_gamma    115.09010945024981

_space_group_name_H-M_alt    "P 1"
_space_group_IT_number       1

loop_
  _space_group_symop_operation_xyz
  'x, y, z'

loop_
  _atom_site_type_symbol
  _atom_site_label
  _atom_site_symmetry_multiplicity
  _atom_site_fract_x
  _atom_site_fract_y
  _atom_site_fract_z
  _atom_site_occupancy
  Na  Na1       1.0  0.22766655683517456  0.8267056345939636  0.5481071472167969  1.0000
  Na  Na2       1.0  0.5608827471733093  0.48823311924934387  0.6995795369148254  1.0000
  Na  Na3       1.0  0.21139617264270782  0.8030651211738586  0.04120269790291786  1.0000
  Nd  Nd1       1.0  0.8896852731704712  0.13838258385658264  0.8664919137954712  1.0000
  Nd  Nd2       1.0  0.5599332451820374  0.4871676564216614  0.20993179082870483  1.0000
  O   O1        1.0  0.37805798649787903  0.14975708723068237  0.3661868572235107  1.0000
  O   O2        1.0  0.04280410706996918  0.4512764513492584  0.6892775297164917  1.0000
  O   O3        1.0  0.40785831212997437  0.15504999458789825  0.8922347426414489  1.0000
  O   O4        1.0  0.043967731297016144  0.4364613890647888  0.222541943192482  1.0000
  O   O5        1.0  0.7489052414894104  0.8703576922416687  0.5127652883529663  1.0000
  Os  Os1       1.0  0.9281101226806641  0.19814927875995636  0.4198291599750519  1.0000
