data_image0
_chemical_formula_structural       Na3Nd2O5Os
_chemical_formula_sum              "Na3 Nd2 O5 Os1"
_cell_length_a       4.723438741055253
_cell_length_b       5.900986584822008
_cell_length_c       6.916329383850098
_cell_angle_alpha    109.42195966070676
_cell_angle_beta     90.00133316204419
_cell_angle_gamma    113.14786463425948

_space_group_name_H-M_alt    "P 1"
_space_group_IT_number       1

loop_
  _space_group_symop_operation_xyz
  'x, y, z'

loop_
  _atom_site_type_symbol
  _atom_site_label
  _atom_site_symmetry_multiplicity
  _atom_site_fract_x
  _atom_site_fract_y
  _atom_site_fract_z
  _atom_site_occupancy
  Na  Na1       1.0  0.09286584705114365  0.2535494863986969  0.4478362500667572  1.0000
  Na  Na2       1.0  0.7342513203620911  0.5673898458480835  0.767491638660431  1.0000
  Na  Na3       1.0  0.747445285320282  0.5743285417556763  0.30149564146995544  1.0000
  Nd  Nd1       1.0  0.40777504444122314  0.8839157223701477  0.12830641865730288  1.0000
  Nd  Nd2       1.0  0.08280324190855026  0.25250643491744995  0.9497110247612  1.0000
  O   O1        1.0  0.5302838087081909  0.1419462263584137  0.8922045826911925  1.0000
  O   O2        1.0  0.2482922375202179  0.5926286578178406  0.7727952599525452  1.0000
  O   O3        1.0  0.5469818115234375  0.15310560166835785  0.4833792448043823  1.0000
  O   O4        1.0  0.9128028154373169  0.8988263607025146  0.10983582586050034  1.0000
  O   O5        1.0  0.25507616996765137  0.5857263803482056  0.30868059396743774  1.0000
  Os  Os1       1.0  0.39964091777801514  0.8845656514167786  0.6054909825325012  1.0000
