data_image0
_chemical_formula_structural       GeNaNdO6ScW
_chemical_formula_sum              "Ge1 Na1 Nd1 O6 Sc1 W1"
_cell_length_a       5.6957562370142645
_cell_length_b       5.683725599649516
_cell_length_c       5.966094970703125
_cell_angle_alpha    63.51868338321381
_cell_angle_beta     63.91015715997486
_cell_angle_gamma    61.299086330724435

_space_group_name_H-M_alt    "P 1"
_space_group_IT_number       1

loop_
  _space_group_symop_operation_xyz
  'x, y, z'

loop_
  _atom_site_type_symbol
  _atom_site_label
  _atom_site_symmetry_multiplicity
  _atom_site_fract_x
  _atom_site_fract_y
  _atom_site_fract_z
  _atom_site_occupancy
  Ge  Ge1       1.0  0.3239292502403259  0.06441190838813782  0.053980648517608636  1.0000
  Na  Na1       1.0  0.34010639786720276  0.06505945324897766  0.5284093022346497  1.0000
  Nd  Nd1       1.0  0.8581722378730774  0.5731164813041687  0.022058689966797846  1.0000
  O   O1        1.0  0.902582585811615  0.431650847196579  0.6712126731872559  1.0000
  O   O2        1.0  0.3811575174331665  0.5044918060302734  0.11730431020259857  1.0000
  O   O3        1.0  0.8141441345214844  0.9556421637535095  0.15751685202121732  1.0000
  O   O4        1.0  0.7820435166358948  0.9755492806434631  0.6733807921409607  1.0000
  O   O5        1.0  0.2890647053718567  0.6229919195175171  0.6685166954994202  1.0000
  O   O6        1.0  0.681122362613678  0.4165059030056  0.4309556782245636  1.0000
  Sc  Sc1       1.0  0.07130293548107147  0.7706511616706848  0.37734735012054443  1.0000
  W   W1        1.0  0.5954954028129578  0.3133198022842407  0.772002100944519  1.0000
