data_image0
_chemical_formula_structural       GaHIPt2Zn3Zr3
_chemical_formula_sum              "Ga1 H1 I1 Pt2 Zn3 Zr3"
_cell_length_a       5.570386916602942
_cell_length_b       5.661272746110897
_cell_length_c       6.078495979309082
_cell_angle_alpha    96.90806010041241
_cell_angle_beta     91.33524425957769
_cell_angle_gamma    92.73626070133488

_space_group_name_H-M_alt    "P 1"
_space_group_IT_number       1

loop_
  _space_group_symop_operation_xyz
  'x, y, z'

loop_
  _atom_site_type_symbol
  _atom_site_label
  _atom_site_symmetry_multiplicity
  _atom_site_fract_x
  _atom_site_fract_y
  _atom_site_fract_z
  _atom_site_occupancy
  Ga  Ga1       1.0  0.2995290160179138  0.1180926114320755  0.42266955971717834  1.0000
  H   H1        1.0  0.07792409509420395  0.448655366897583  0.749111533164978  1.0000
  I   I1        1.0  0.5848807692527771  0.354045569896698  0.5931923389434814  1.0000
  Pt  Pt1       1.0  0.10888499021530151  0.18609240651130676  0.5957276225090027  1.0000
  Pt  Pt2       1.0  0.3087916374206543  0.8219576478004456  0.6621960401535034  1.0000
  Zn  Zn1       1.0  0.058523427695035934  0.5842530727386475  0.8935568928718567  1.0000
  Zn  Zn2       1.0  0.7273635864257812  0.028853634372353554  0.22495007514953613  1.0000
  Zn  Zn3       1.0  0.5829145312309265  0.3861592411994934  0.39437466859817505  1.0000
  Zr  Zr1       1.0  0.07183724641799927  0.6517162322998047  0.9075375199317932  1.0000
  Zr  Zr2       1.0  0.6031752228736877  0.7562723755836487  0.636421263217926  1.0000
  Zr  Zr3       1.0  0.6073483228683472  0.6781192421913147  0.2446683794260025  1.0000
