data_image0
_chemical_formula_structural       Dy2GaGe2HIPbZn3
_chemical_formula_sum              "Dy2 Ga1 Ge2 H1 I1 Pb1 Zn3"
_cell_length_a       5.472608419080037
_cell_length_b       7.53240410460937
_cell_length_c       7.842822074890137
_cell_angle_alpha    109.21673236289998
_cell_angle_beta     92.13763782731519
_cell_angle_gamma    95.3707294963985

_space_group_name_H-M_alt    "P 1"
_space_group_IT_number       1

loop_
  _space_group_symop_operation_xyz
  'x, y, z'

loop_
  _atom_site_type_symbol
  _atom_site_label
  _atom_site_symmetry_multiplicity
  _atom_site_fract_x
  _atom_site_fract_y
  _atom_site_fract_z
  _atom_site_occupancy
  Dy  Dy1       1.0  0.4503634572029114  0.5291828513145447  0.6810702681541443  1.0000
  Dy  Dy2       1.0  0.4403524696826935  0.3328011631965637  0.35684627294540405  1.0000
  Ga  Ga1       1.0  0.9455490708351135  0.5031247138977051  0.4865483343601227  1.0000
  Ge  Ge1       1.0  0.4430158734321594  0.1985543668270111  0.2279500812292099  1.0000
  Ge  Ge2       1.0  0.9432815313339233  0.7088697552680969  0.02134769037365916  1.0000
  H   H1        1.0  0.43368494510650635  0.4649404585361481  0.39181554317474365  1.0000
  I   I1        1.0  0.9361104965209961  0.37330660223960876  0.12662871181964874  1.0000
  Pb  Pb1       1.0  0.9430420994758606  0.8474892973899841  0.5175465941429138  1.0000
  Zn  Zn1       1.0  0.4379686713218689  0.8747999668121339  0.11972612887620926  1.0000
  Zn  Zn2       1.0  0.4420374631881714  0.7548291683197021  0.5681050419807434  1.0000
  Zn  Zn3       1.0  0.941863477230072  0.2918601632118225  0.4941538870334625  1.0000
