data_image0
_chemical_formula_structural       Co5HMo3Ni2
_chemical_formula_sum              "Co5 H1 Mo3 Ni2"
_cell_length_a       5.390037847819146
_cell_length_b       4.886617626896553
_cell_length_c       5.219723701477051
_cell_angle_alpha    89.93391114871224
_cell_angle_beta     90.50072046968464
_cell_angle_gamma    89.60029196124793

_space_group_name_H-M_alt    "P 1"
_space_group_IT_number       1

loop_
  _space_group_symop_operation_xyz
  'x, y, z'

loop_
  _atom_site_type_symbol
  _atom_site_label
  _atom_site_symmetry_multiplicity
  _atom_site_fract_x
  _atom_site_fract_y
  _atom_site_fract_z
  _atom_site_occupancy
  Co  Co1       1.0  0.2913771867752075  0.25889086723327637  0.23209136724472046  1.0000
  Co  Co2       1.0  0.29332590103149414  0.17862312495708466  0.17376701533794403  1.0000
  Co  Co3       1.0  0.7966996431350708  0.7632619738578796  0.8809104561805725  1.0000
  Co  Co4       1.0  0.28966230154037476  0.13855810463428497  0.05390072241425514  1.0000
  Co  Co5       1.0  0.294153094291687  0.2565639019012451  0.9552741646766663  1.0000
  H   H1        1.0  0.297386109828949  0.25854241847991943  0.8890706896781921  1.0000
  Mo  Mo1       1.0  0.28349387645721436  0.9909473061561583  0.09261339902877808  1.0000
  Mo  Mo2       1.0  0.7930606007575989  0.6217592358589172  0.11629980802536011  1.0000
  Mo  Mo3       1.0  0.8179503083229065  0.3409166932106018  0.2916712462902069  1.0000
  Ni  Ni1       1.0  0.7977535128593445  0.37708044052124023  0.5978296995162964  1.0000
  Ni  Ni2       1.0  0.2942628562450409  0.7483896017074585  0.913982629776001  1.0000
