data_image0
_chemical_formula_structural       GaHI3MgPtZn3Zr
_chemical_formula_sum              "Ga1 H1 I3 Mg1 Pt1 Zn3 Zr1"
_cell_length_a       6.173304200580933
_cell_length_b       6.774015534029149
_cell_length_c       7.341590404510498
_cell_angle_alpha    65.54042379135889
_cell_angle_beta     69.00787138725329
_cell_angle_gamma    72.85213918686311

_space_group_name_H-M_alt    "P 1"
_space_group_IT_number       1

loop_
  _space_group_symop_operation_xyz
  'x, y, z'

loop_
  _atom_site_type_symbol
  _atom_site_label
  _atom_site_symmetry_multiplicity
  _atom_site_fract_x
  _atom_site_fract_y
  _atom_site_fract_z
  _atom_site_occupancy
  Ga  Ga1       1.0  0.4787934720516205  0.42880704998970026  0.5744277834892273  1.0000
  H   H1        1.0  0.4655040502548218  0.3680773675441742  0.5075043439865112  1.0000
  I   I1        1.0  0.4869289696216583  0.02318986877799034  0.8460361957550049  1.0000
  I   I2        1.0  0.47538965940475464  0.20452861487865448  0.03146322816610336  1.0000
  I   I3        1.0  0.9913042783737183  0.5471014976501465  0.87004154920578  1.0000
  Mg  Mg1       1.0  0.47270846366882324  0.9627643823623656  0.996013343334198  1.0000
  Pt  Pt1       1.0  0.498375803232193  0.7314984202384949  0.2892613708972931  1.0000
  Zn  Zn1       1.0  0.9867802858352661  0.5535485148429871  0.6644240617752075  1.0000
  Zn  Zn2       1.0  0.9904154539108276  0.6813707947731018  0.25132444500923157  1.0000
  Zn  Zn3       1.0  0.9872944951057434  0.6449775099754333  0.21378307044506073  1.0000
  Zr  Zr1       1.0  0.49197646975517273  0.165826216340065  0.48409339785575867  1.0000
