data_image0
_chemical_formula_structural       AlCoEuGdH2I2PtZn2
_chemical_formula_sum              "Al1 Co1 Eu1 Gd1 H2 I2 Pt1 Zn2"
_cell_length_a       5.509920601082335
_cell_length_b       5.796605351017216
_cell_length_c       7.810898303985596
_cell_angle_alpha    90.61970755653866
_cell_angle_beta     89.976063169366
_cell_angle_gamma    113.12852259737997

_space_group_name_H-M_alt    "P 1"
_space_group_IT_number       1

loop_
  _space_group_symop_operation_xyz
  'x, y, z'

loop_
  _atom_site_type_symbol
  _atom_site_label
  _atom_site_symmetry_multiplicity
  _atom_site_fract_x
  _atom_site_fract_y
  _atom_site_fract_z
  _atom_site_occupancy
  Al  Al1       1.0  0.6102826595306396  0.2720544934272766  0.03080989047884941  1.0000
  Co  Co1       1.0  0.05895840749144554  0.4774288833141327  0.7428776025772095  1.0000
  Eu  Eu1       1.0  0.5705980658531189  0.803467869758606  0.23751427233219147  1.0000
  Gd  Gd1       1.0  0.550407886505127  0.8247060179710388  0.6727277636528015  1.0000
  H   H1        1.0  0.5156145095825195  0.9963195323944092  0.05837905406951904  1.0000
  H   H2        1.0  0.5958023071289062  0.9861395955085754  0.7450745701789857  1.0000
  I   I1        1.0  0.5535390377044678  0.9166673421859741  0.16560028493404388  1.0000
  I   I2        1.0  0.03387106582522392  0.9063026905059814  0.5825672149658203  1.0000
  Pt  Pt1       1.0  0.03595566749572754  0.8733260631561279  0.0921197235584259  1.0000
  Zn  Zn1       1.0  0.033770814538002014  0.2921416461467743  0.37134572863578796  1.0000
  Zn  Zn2       1.0  0.025380533188581467  0.8829828500747681  0.8870518803596497  1.0000
