data_image0
_chemical_formula_structural       CCo5LuMoNi3
_chemical_formula_sum              "C1 Co5 Lu1 Mo1 Ni3"
_cell_length_a       5.213476912190963
_cell_length_b       5.179909225375711
_cell_length_c       5.672436237335205
_cell_angle_alpha    94.1658040617013
_cell_angle_beta     90.82976686961824
_cell_angle_gamma    89.55632008574221

_space_group_name_H-M_alt    "P 1"
_space_group_IT_number       1

loop_
  _space_group_symop_operation_xyz
  'x, y, z'

loop_
  _atom_site_type_symbol
  _atom_site_label
  _atom_site_symmetry_multiplicity
  _atom_site_fract_x
  _atom_site_fract_y
  _atom_site_fract_z
  _atom_site_occupancy
  C   C1        1.0  0.14080515503883362  0.3102278411388397  0.6373035907745361  1.0000
  Co  Co1       1.0  0.6380305886268616  0.5830750465393066  0.9157154560089111  1.0000
  Co  Co2       1.0  0.9080702066421509  0.9541210532188416  0.7961013317108154  1.0000
  Co  Co3       1.0  0.6392443180084229  0.3907177150249481  0.4270368218421936  1.0000
  Co  Co4       1.0  0.14059676229953766  0.7049199342727661  0.5742336511611938  1.0000
  Co  Co5       1.0  0.6347525715827942  0.19860437512397766  0.17209716141223907  1.0000
  Lu  Lu1       1.0  0.6247966885566711  0.627586305141449  0.6973330974578857  1.0000
  Mo  Mo1       1.0  0.6403878331184387  0.6483627557754517  0.4229571521282196  1.0000
  Ni  Ni1       1.0  0.1369747668504715  0.11000761389732361  0.4941423833370209  1.0000
  Ni  Ni2       1.0  0.1432843804359436  0.6993379592895508  0.36357370018959045  1.0000
  Ni  Ni3       1.0  0.14767368137836456  0.7940227389335632  0.852628231048584  1.0000
