data_image0
_chemical_formula_structural       PbTb5Zr
_chemical_formula_sum              "Pb1 Tb5 Zr1"
_cell_length_a       4.777787171464855
_cell_length_b       6.359952336480801
_cell_length_c       6.959048748016357
_cell_angle_alpha    129.01248141138277
_cell_angle_beta     96.79019399988563
_cell_angle_gamma    85.24845844066472

_space_group_name_H-M_alt    "P 1"
_space_group_IT_number       1

loop_
  _space_group_symop_operation_xyz
  'x, y, z'

loop_
  _atom_site_type_symbol
  _atom_site_label
  _atom_site_symmetry_multiplicity
  _atom_site_fract_x
  _atom_site_fract_y
  _atom_site_fract_z
  _atom_site_occupancy
  Pb  Pb1       1.0  0.7315727472305298  0.2998863458633423  0.44030919671058655  1.0000
  Tb  Tb1       1.0  0.23158955574035645  0.019725315272808075  0.36864885687828064  1.0000
  Tb  Tb2       1.0  0.9647232890129089  0.6971005201339722  0.8986598253250122  1.0000
  Tb  Tb3       1.0  0.2301417589187622  0.6792839169502258  0.6297554969787598  1.0000
  Tb  Tb4       1.0  0.7207455635070801  0.44826170802116394  0.786450982093811  1.0000
  Tb  Tb5       1.0  0.2283923476934433  0.26473554968833923  0.38762909173965454  1.0000
  Zr  Zr1       1.0  0.7135566473007202  0.8332381248474121  0.19568701088428497  1.0000
