data_image0
_chemical_formula_structural       ITb6
_chemical_formula_sum              "I1 Tb6"
_cell_length_a       5.562361400993944
_cell_length_b       6.691126463078363
_cell_length_c       7.084458827972412
_cell_angle_alpha    117.88181494910175
_cell_angle_beta     89.86719310774647
_cell_angle_gamma    88.59958312621731

_space_group_name_H-M_alt    "P 1"
_space_group_IT_number       1

loop_
  _space_group_symop_operation_xyz
  'x, y, z'

loop_
  _atom_site_type_symbol
  _atom_site_label
  _atom_site_symmetry_multiplicity
  _atom_site_fract_x
  _atom_site_fract_y
  _atom_site_fract_z
  _atom_site_occupancy
  I   I1        1.0  0.36076971888542175  0.9970569610595703  0.4821585118770599  1.0000
  Tb  Tb1       1.0  0.8648995161056519  0.11700748652219772  0.5744601488113403  1.0000
  Tb  Tb2       1.0  0.3631543219089508  0.2287648618221283  0.05529100447893142  1.0000
  Tb  Tb3       1.0  0.36565962433815  0.7913361191749573  0.9534564018249511  1.0000
  Tb  Tb4       1.0  0.3664621114730835  0.29938480257987976  0.39264553785324097  1.0000
  Tb  Tb5       1.0  0.8665805459022522  0.16314442455768585  0.21928708255290982  1.0000
  Tb  Tb6       1.0  0.8632971048355103  0.3058585226535797  0.9736267328262328  1.0000
