data_image0
_chemical_formula_structural       OTb6
_chemical_formula_sum              "O1 Tb6"
_cell_length_a       4.400752891111268
_cell_length_b       5.184536815300851
_cell_length_c       6.302041053771973
_cell_angle_alpha    92.88098567924501
_cell_angle_beta     92.25922635348853
_cell_angle_gamma    115.65151222547841

_space_group_name_H-M_alt    "P 1"
_space_group_IT_number       1

loop_
  _space_group_symop_operation_xyz
  'x, y, z'

loop_
  _atom_site_type_symbol
  _atom_site_label
  _atom_site_symmetry_multiplicity
  _atom_site_fract_x
  _atom_site_fract_y
  _atom_site_fract_z
  _atom_site_occupancy
  O   O1        1.0  0.6975741386413574  0.23182715475559235  0.5956000685691833  1.0000
  Tb  Tb1       1.0  0.38015639781951904  0.5219860672950745  0.49759516119956965  1.0000
  Tb  Tb2       1.0  0.8757950663566589  0.4199724793434143  0.7624950408935546  1.0000
  Tb  Tb3       1.0  0.8933930993080139  0.42701637744903564  0.6252051591873169  1.0000
  Tb  Tb4       1.0  0.4733829200267792  0.8466931581497192  0.37829852104187006  1.0000
  Tb  Tb5       1.0  0.9940581321716309  0.1041836142539978  0.36366224288940424  1.0000
  Tb  Tb6       1.0  0.9292083382606506  0.5453751683235168  0.5043982267379761  1.0000
