data_image0
_chemical_formula_structural       FeO2P6
_chemical_formula_sum              "Fe1 O2 P6"
_cell_length_a       6.065050893767923
_cell_length_b       6.404553609352848
_cell_length_c       6.649643421173096
_cell_angle_alpha    64.2601672153117
_cell_angle_beta     65.80202147598129
_cell_angle_gamma    64.60887131556842

_space_group_name_H-M_alt    "P 1"
_space_group_IT_number       1

loop_
  _space_group_symop_operation_xyz
  'x, y, z'

loop_
  _atom_site_type_symbol
  _atom_site_label
  _atom_site_symmetry_multiplicity
  _atom_site_fract_x
  _atom_site_fract_y
  _atom_site_fract_z
  _atom_site_occupancy
  Fe  Fe1       1.0  0.2452043741941452  0.605960488319397  0.015970176085829735  1.0000
  O   O1        1.0  0.37119725346565247  0.23961251974105838  0.9781415462493896  1.0000
  O   O2        1.0  0.8330395221710205  0.8581435084342958  0.9225704669952393  1.0000
  P   P1        1.0  0.1896599382162094  0.6551505327224731  0.4582705497741699  1.0000
  P   P2        1.0  0.8142268657684326  0.038770854473114014  0.734786331653595  1.0000
  P   P3        1.0  0.02544916793704033  0.014567538164556028  0.5971234440803528  1.0000
  P   P4        1.0  0.006834092084318399  0.37274378538131714  0.20992787182331082  1.0000
  P   P5        1.0  0.360873818397522  0.37319493293762207  0.8290320038795471  1.0000
  P   P6        1.0  0.7729352712631224  0.05964655056595803  0.7224763035774231  1.0000
