data_image0
_chemical_formula_structural       FeO3P5
_chemical_formula_sum              "Fe1 O3 P5"
_cell_length_a       6.107717050338792
_cell_length_b       5.731564600638478
_cell_length_c       5.563024997711182
_cell_angle_alpha    59.43883272925575
_cell_angle_beta     57.035786577707775
_cell_angle_gamma    58.45593583932787

_space_group_name_H-M_alt    "P 1"
_space_group_IT_number       1

loop_
  _space_group_symop_operation_xyz
  'x, y, z'

loop_
  _atom_site_type_symbol
  _atom_site_label
  _atom_site_symmetry_multiplicity
  _atom_site_fract_x
  _atom_site_fract_y
  _atom_site_fract_z
  _atom_site_occupancy
  Fe  Fe1       1.0  0.34269997477531433  0.024886038154363632  0.892881751060486  1.0000
  O   O1        1.0  0.6285945177078247  0.42727455496788025  0.13123804330825806  1.0000
  O   O2        1.0  0.07586823403835297  0.5309349894523621  0.8906905055046083  1.0000
  O   O3        1.0  0.3355556130409241  0.37967637181282043  0.7592478394508362  1.0000
  P   P1        1.0  0.8408054113388062  0.9720256924629211  0.2193574905395508  1.0000
  P   P2        1.0  0.48447561264038086  0.16615517437458038  0.3959749341011048  1.0000
  P   P3        1.0  0.7324939370155334  0.3872548043727875  0.9826569557189943  1.0000
  P   P4        1.0  0.8062115907669067  0.8848994374275208  0.6419729590415955  1.0000
  P   P5        1.0  0.294363796710968  0.7047284841537476  0.8206378221511842  1.0000
