data_image0
_chemical_formula_structural       Fe4O2P3
_chemical_formula_sum              "Fe4 O2 P3"
_cell_length_a       4.605057165707525
_cell_length_b       4.84214530170261
_cell_length_c       5.493014335632324
_cell_angle_alpha    81.0012902622348
_cell_angle_beta     78.00912912252008
_cell_angle_gamma    77.20310385440368

_space_group_name_H-M_alt    "P 1"
_space_group_IT_number       1

loop_
  _space_group_symop_operation_xyz
  'x, y, z'

loop_
  _atom_site_type_symbol
  _atom_site_label
  _atom_site_symmetry_multiplicity
  _atom_site_fract_x
  _atom_site_fract_y
  _atom_site_fract_z
  _atom_site_occupancy
  Fe  Fe1       1.0  0.00656889658421278  0.46501538157463074  0.3144198954105377  1.0000
  Fe  Fe2       1.0  0.6540377736091614  0.7817860841751099  0.5066394209861755  1.0000
  Fe  Fe3       1.0  0.14153051376342773  0.7050113677978516  0.6773797273635864  1.0000
  Fe  Fe4       1.0  0.4724762439727783  0.741070032119751  0.2801761031150818  1.0000
  O   O1        1.0  0.27159562706947327  0.8500077724456787  0.09572085738182068  1.0000
  O   O2        1.0  0.7603070735931396  0.40601614117622375  0.8816246390342712  1.0000
  P   P1        1.0  0.45231157541275024  0.22049890458583832  0.7001179456710815  1.0000
  P   P2        1.0  0.75216144323349  0.6588758826255798  0.5613004565238953  1.0000
  P   P3        1.0  0.758304238319397  0.4248983860015869  0.8170415163040161  1.0000
