data_image0
_chemical_formula_structural       O3P6
_chemical_formula_sum              "O3 P6"
_cell_length_a       4.978549011252629
_cell_length_b       4.487360660120118
_cell_length_c       7.827232837677002
_cell_angle_alpha    88.33297586186856
_cell_angle_beta     86.68152881400967
_cell_angle_gamma    69.61735534975077

_space_group_name_H-M_alt    "P 1"
_space_group_IT_number       1

loop_
  _space_group_symop_operation_xyz
  'x, y, z'

loop_
  _atom_site_type_symbol
  _atom_site_label
  _atom_site_symmetry_multiplicity
  _atom_site_fract_x
  _atom_site_fract_y
  _atom_site_fract_z
  _atom_site_occupancy
  O   O1        1.0  0.020452801138162613  0.1875794380903244  0.4955279231071473  1.0000
  O   O2        1.0  0.07455538958311081  0.07770420610904694  0.35400390625  1.0000
  O   O3        1.0  0.44017806649208063  0.9306427836418152  0.2508888244628906  1.0000
  P   P1        1.0  0.7468403577804565  0.824711263179779  0.04632209241390228  1.0000
  P   P2        1.0  0.7044946551322937  0.22991402447223663  0.7878587245941162  1.0000
  P   P3        1.0  0.3997432589530945  0.1564767062664032  0.022891970351338387  1.0000
  P   P4        1.0  0.2708388566970825  0.43276920914649963  0.9133660793304444  1.0000
  P   P5        1.0  0.12901131808757782  0.47547411918640137  0.016422979533672333  1.0000
  P   P6        1.0  0.7357411980628967  0.22265319526195526  0.6045767068862915  1.0000
