data_image0
_chemical_formula_structural       In8O2Zn
_chemical_formula_sum              "In8 O2 Zn1"
_cell_length_a       5.909446623533103
_cell_length_b       6.340050168279401
_cell_length_c       9.468728065490723
_cell_angle_alpha    78.91664937008717
_cell_angle_beta     77.70860941463044
_cell_angle_gamma    71.42456401592895

_space_group_name_H-M_alt    "P 1"
_space_group_IT_number       1

loop_
  _space_group_symop_operation_xyz
  'x, y, z'

loop_
  _atom_site_type_symbol
  _atom_site_label
  _atom_site_symmetry_multiplicity
  _atom_site_fract_x
  _atom_site_fract_y
  _atom_site_fract_z
  _atom_site_occupancy
  In  In1       1.0  0.45143517851829523  0.3618721663951874  0.9078187942504883  1.0000
  In  In2       1.0  0.9602072238922118  0.055346984416246414  0.24856871366500854  1.0000
  In  In3       1.0  0.45755895972251887  0.6807827353477478  0.13586880266666412  1.0000
  In  In4       1.0  0.46734741330146784  0.11805833131074905  0.28994813561439514  1.0000
  In  In5       1.0  0.46593225002288813  0.33700910210609436  0.7223856449127197  1.0000
  In  In6       1.0  0.45602071285247797  0.08588562905788422  0.26572543382644653  1.0000
  In  In7       1.0  0.9538195729255675  0.4241427183151245  0.8888760209083557  1.0000
  In  In8       1.0  0.4637703597545623  0.00930978637188673  0.5446534156799316  1.0000
  O   O1        1.0  0.7175666689872741  0.7830164432525635  0.05640137568116188  1.0000
  O   O2        1.0  0.03992979973554611  0.9070888757705688  0.7796282172203063  1.0000
  Zn  Zn1       1.0  0.9603499174118041  0.032461002469062805  0.795043408870697  1.0000
