data_image0
_chemical_formula_structural       FGe2In7O
_chemical_formula_sum              "F1 Ge2 In7 O1"
_cell_length_a       6.432664941128306
_cell_length_b       6.370917085004986
_cell_length_c       7.5181145668029785
_cell_angle_alpha    76.36431537617086
_cell_angle_beta     76.69716205507495
_cell_angle_gamma    75.31784798220546

_space_group_name_H-M_alt    "P 1"
_space_group_IT_number       1

loop_
  _space_group_symop_operation_xyz
  'x, y, z'

loop_
  _atom_site_type_symbol
  _atom_site_label
  _atom_site_symmetry_multiplicity
  _atom_site_fract_x
  _atom_site_fract_y
  _atom_site_fract_z
  _atom_site_occupancy
  F   F1        1.0  0.9627556204795836  0.5417112708091736  0.15897443890571594  1.0000
  Ge  Ge1       1.0  0.8042393326759338  0.11237257719039916  0.14514417946338656  1.0000
  Ge  Ge2       1.0  0.8038588166236877  0.07485521584749222  0.9740271568298342  1.0000
  In  In1       1.0  0.42533576488494873  0.9062994718551635  0.7522603273391724  1.0000
  In  In2       1.0  0.010955550707876717  0.9589192867279052  0.08881177753210068  1.0000
  In  In3       1.0  0.5391371250152588  0.6831616163253784  0.635188102722168  1.0000
  In  In4       1.0  0.5292547345161438  0.26549211144447327  0.5804190635681152  1.0000
  In  In5       1.0  0.01060038898140192  0.012120977975428103  0.020663021132349968  1.0000
  In  In6       1.0  0.1414596289396286  0.02982223220169544  0.8389405012130737  1.0000
  In  In7       1.0  0.190949484705925  0.09602289646863936  0.2700461447238922  1.0000
  O   O1        1.0  0.47084262967109675  0.14479997754096985  0.49139684438705444  1.0000
