data_image0
_chemical_formula_structural       GeIn7OZnZr
_chemical_formula_sum              "Ge1 In7 O1 Zn1 Zr1"
_cell_length_a       6.292672668874617
_cell_length_b       6.374716751867038
_cell_length_c       6.869224548339844
_cell_angle_alpha    67.75476571266867
_cell_angle_beta     66.6768597840914
_cell_angle_gamma    67.3060489123389

_space_group_name_H-M_alt    "P 1"
_space_group_IT_number       1

loop_
  _space_group_symop_operation_xyz
  'x, y, z'

loop_
  _atom_site_type_symbol
  _atom_site_label
  _atom_site_symmetry_multiplicity
  _atom_site_fract_x
  _atom_site_fract_y
  _atom_site_fract_z
  _atom_site_occupancy
  Ge  Ge1       1.0  0.28018277883529663  0.4480372667312622  0.72113436460495  1.0000
  In  In1       1.0  0.7684772610664368  0.5106847882270813  0.991859495639801  1.0000
  In  In2       1.0  0.3602147400379181  0.716668963432312  0.3559096157550812  1.0000
  In  In3       1.0  0.30711156129837036  0.8464663624763489  0.0010674780933186412  1.0000
  In  In4       1.0  0.826784074306488  0.7582305073738098  0.10757797211408615  1.0000
  In  In5       1.0  0.28017106652259827  0.06162094324827194  0.6435180306434631  1.0000
  In  In6       1.0  0.8519142866134644  0.4091779291629791  0.9084199666976929  1.0000
  In  In7       1.0  0.7855220437049866  0.4184185564517975  0.9517951607704163  1.0000
  O   O1        1.0  0.21511001884937286  0.23169869184494019  0.7241116762161255  1.0000
  Zn  Zn1       1.0  0.7737923264503479  0.6144701838493347  0.42367440462112427  1.0000
  Zr  Zr1       1.0  0.35418301820755005  0.49282485246658325  0.8567657470703125  1.0000
