data_image0
_chemical_formula_structural       GeIIn5O2VZn
_chemical_formula_sum              "Ge1 I1 In5 O2 V1 Zn1"
_cell_length_a       5.642161323648653
_cell_length_b       5.6933385809827195
_cell_length_c       7.357851028442383
_cell_angle_alpha    91.55909201387854
_cell_angle_beta     92.34642081888146
_cell_angle_gamma    118.09925313647199

_space_group_name_H-M_alt    "P 1"
_space_group_IT_number       1

loop_
  _space_group_symop_operation_xyz
  'x, y, z'

loop_
  _atom_site_type_symbol
  _atom_site_label
  _atom_site_symmetry_multiplicity
  _atom_site_fract_x
  _atom_site_fract_y
  _atom_site_fract_z
  _atom_site_occupancy
  Ge  Ge1       1.0  0.9728956818580626  0.042269088327884674  0.8390143513679504  1.0000
  I   I1        1.0  0.6966542601585388  0.44993293285369873  0.6352285146713257  1.0000
  In  In1       1.0  0.47780880331993103  0.29378464818000793  0.10240878164768219  1.0000
  In  In2       1.0  0.08746877312660217  0.3643186688423157  0.17035670578479767  1.0000
  In  In3       1.0  0.2021024525165558  0.14573349058628082  0.08421188592910767  1.0000
  In  In4       1.0  0.0727941021323204  0.7751774787902832  0.43848907947540283  1.0000
  In  In5       1.0  0.7633580565452576  0.32650837302207947  0.3199605941772461  1.0000
  O   O1        1.0  0.08385134488344193  0.15120811760425568  0.7447823286056519  1.0000
  O   O2        1.0  0.3069792687892914  0.7025412321090698  0.2819858193397522  1.0000
  V   V1        1.0  0.6680538058280945  0.26414671540260315  0.602475881576538  1.0000
  Zn  Zn1       1.0  0.705819845199585  0.5190615057945251  0.5525850057601929  1.0000
