data_image0
_chemical_formula_structural       In7NiO2Te
_chemical_formula_sum              "In7 Ni1 O2 Te1"
_cell_length_a       5.201540921973824
_cell_length_b       3.8642437433175574
_cell_length_c       3.363435983657837
_cell_angle_alpha    160.18738100001067
_cell_angle_beta     104.81213632089941
_cell_angle_gamma    92.94334858566658

_space_group_name_H-M_alt    "P 1"
_space_group_IT_number       1

loop_
  _space_group_symop_operation_xyz
  'x, y, z'

loop_
  _atom_site_type_symbol
  _atom_site_label
  _atom_site_symmetry_multiplicity
  _atom_site_fract_x
  _atom_site_fract_y
  _atom_site_fract_z
  _atom_site_occupancy
  In  In1       1.0  0.838337481021881  0.49668046832084656  0.6075711250305176  1.0000
  In  In2       1.0  0.6397989392280579  0.20654697716236103  0.6802675127983092  1.0000
  In  In3       1.0  0.6049168109893799  0.5160123109817505  0.8744311332702637  1.0000
  In  In4       1.0  0.6301299333572388  0.27070012688636774  0.2781903147697448  1.0000
  In  In5       1.0  0.11566825956106185  0.1436816155910492  0.7902277708053589  1.0000
  In  In6       1.0  0.1275622397661209  0.2838676869869232  0.2181631624698639  1.0000
  In  In7       1.0  0.8595929145812987  0.4596465528011322  0.0555422008037567  1.0000
  Ni  Ni1       1.0  0.12627978622913358  0.0017542511923237809  0.3667438030242919  1.0000
  O   O1        1.0  0.6350102424621582  0.17009885609149933  0.21130697429180145  1.0000
  O   O2        1.0  0.3101322650909424  0.8895218372344971  0.5682290196418762  1.0000
  Te  Te1       1.0  0.3136461675167084  0.8919529914855957  0.6539492011070251  1.0000
