data_image0
_chemical_formula_structural       In6O3STe
_chemical_formula_sum              "In6 O3 S1 Te1"
_cell_length_a       5.668636756960729
_cell_length_b       5.181625972763375
_cell_length_c       5.480278491973877
_cell_angle_alpha    117.92447912350315
_cell_angle_beta     116.53890610107203
_cell_angle_gamma    90.51714831946224

_space_group_name_H-M_alt    "P 1"
_space_group_IT_number       1

loop_
  _space_group_symop_operation_xyz
  'x, y, z'

loop_
  _atom_site_type_symbol
  _atom_site_label
  _atom_site_symmetry_multiplicity
  _atom_site_fract_x
  _atom_site_fract_y
  _atom_site_fract_z
  _atom_site_occupancy
  In  In1       1.0  0.8474409580230713  0.3624802827835083  0.7577087879180908  1.0000
  In  In2       1.0  0.35258033871650696  0.9325428009033203  0.9480012059211731  1.0000
  In  In3       1.0  0.37910518050193787  0.49611687660217285  0.22925108671188354  1.0000
  In  In4       1.0  0.8425338864326477  0.8428760766983032  0.2869364321231842  1.0000
  In  In5       1.0  0.34947046637535095  0.7207888960838318  0.5009751319885254  1.0000
  In  In6       1.0  0.8527870774269104  0.1887977123260498  0.7795118093490601  1.0000
  O   O1        1.0  0.7232986688613892  0.1869514137506485  0.8565812706947327  1.0000
  O   O2        1.0  0.20558573305606842  0.22045719623565674  0.8614893555641174  1.0000
  O   O3        1.0  0.004230489023029804  0.2129129022359848  0.8416209816932678  1.0000
  S   S1        1.0  0.3464134931564331  0.23403428494930267  0.9481551051139832  1.0000
  Te  Te1       1.0  0.8848439455032349  0.9064289331436157  0.923039436340332  1.0000
