data_image0
_chemical_formula_structural       Ba2EuInLuMnO6PbTbTi
_chemical_formula_sum              "Ba2 Eu1 In1 Lu1 Mn1 O6 Pb1 Tb1 Ti1"
_cell_length_a       5.73554561558588
_cell_length_b       5.5228591180789985
_cell_length_c       9.843239784240723
_cell_angle_alpha    79.27829249951944
_cell_angle_beta     71.56749593862081
_cell_angle_gamma    58.52217609527615

_space_group_name_H-M_alt    "P 1"
_space_group_IT_number       1

loop_
  _space_group_symop_operation_xyz
  'x, y, z'

loop_
  _atom_site_type_symbol
  _atom_site_label
  _atom_site_symmetry_multiplicity
  _atom_site_fract_x
  _atom_site_fract_y
  _atom_site_fract_z
  _atom_site_occupancy
  Ba  Ba1       1.0  0.025627123191952705  0.11455228924751282  0.046954311430454254  1.0000
  Ba  Ba2       1.0  0.47833219170570374  0.3279281556606293  0.9146716594696045  1.0000
  Eu  Eu1       1.0  0.5101140737533569  0.8413476347923279  0.10589361935853958  1.0000
  In  In1       1.0  0.9340141415596008  0.5642667412757874  0.04000585898756981  1.0000
  Lu  Lu1       1.0  0.9920030832290649  0.4884900152683258  0.8513903617858887  1.0000
  Mn  Mn1       1.0  0.45839443802833557  0.7919853925704956  0.7259839177131653  1.0000
  O   O1        1.0  0.5300254821777344  0.07011260837316513  0.957391083240509  1.0000
  O   O2        1.0  0.6623261570930481  0.23155583441257477  0.7605981230735779  1.0000
  O   O3        1.0  0.9512161016464233  0.9081516265869141  0.2651273012161255  1.0000
  O   O4        1.0  0.9825569987297058  0.747786283493042  0.27827420830726624  1.0000
  O   O5        1.0  0.4982840120792389  0.4792274832725525  0.10975368320941925  1.0000
  O   O6        1.0  0.4778769016265869  0.38031718134880066  0.7634493708610535  1.0000
  Pb  Pb1       1.0  0.49654853343963623  0.4723624289035797  0.5764399766921997  1.0000
  Tb  Tb1       1.0  0.5057433247566223  0.2961238920688629  0.1835743933916092  1.0000
  Ti  Ti1       1.0  0.9607651829719543  0.6988515853881836  0.6068019270896912  1.0000
