data_image0
_chemical_formula_structural       Ba2Mn2O7Tb2TlZn
_chemical_formula_sum              "Ba2 Mn2 O7 Tb2 Tl1 Zn1"
_cell_length_a       6.639285604585246
_cell_length_b       6.766209765742021
_cell_length_c       7.325718879699707
_cell_angle_alpha    72.13929557528456
_cell_angle_beta     68.95717576677546
_cell_angle_gamma    65.0421828241655

_space_group_name_H-M_alt    "P 1"
_space_group_IT_number       1

loop_
  _space_group_symop_operation_xyz
  'x, y, z'

loop_
  _atom_site_type_symbol
  _atom_site_label
  _atom_site_symmetry_multiplicity
  _atom_site_fract_x
  _atom_site_fract_y
  _atom_site_fract_z
  _atom_site_occupancy
  Ba  Ba1       1.0  0.14110593497753143  0.7200933694839478  0.87548828125  1.0000
  Ba  Ba2       1.0  0.6131220459938049  0.9761375784873962  0.41614988446235657  1.0000
  Mn  Mn1       1.0  0.7847908735275269  0.047515131533145905  0.4926125109195709  1.0000
  Mn  Mn2       1.0  0.4260139763355255  0.256624698638916  0.9333478212356567  1.0000
  O   O1        1.0  0.10011392086744308  0.5954421758651733  0.8528872728347778  1.0000
  O   O2        1.0  0.12749585509300232  0.8961760401725769  0.2910095751285553  1.0000
  O   O3        1.0  0.9307026863098145  0.17004543542861938  0.873867392539978  1.0000
  O   O4        1.0  0.11384015530347824  0.23445524275302887  0.5444203615188599  1.0000
  O   O5        1.0  0.5826179385185242  0.9515898823738098  0.39443328976631165  1.0000
  O   O6        1.0  0.5918166637420654  0.257959246635437  0.529940128326416  1.0000
  O   O7        1.0  0.6087775826454163  0.24260996282100677  0.31740638613700867  1.0000
  Tb  Tb1       1.0  0.10816240310668945  0.5249111652374268  0.3261299729347229  1.0000
  Tb  Tb2       1.0  0.6099416017532349  0.4804534614086151  0.48415589332580566  1.0000
  Tl  Tl1       1.0  0.09673832356929779  0.19330263137817383  0.506796658039093  1.0000
  Zn  Zn1       1.0  0.10687224566936493  0.5801323056221008  0.0732087567448616  1.0000
