data_image0
_chemical_formula_structural       AsBaIO5PbTb4TiZn
_chemical_formula_sum              "As1 Ba1 I1 O5 Pb1 Tb4 Ti1 Zn1"
_cell_length_a       5.2052057221776575
_cell_length_b       5.671391260529729
_cell_length_c       10.984703063964844
_cell_angle_alpha    91.11352111709286
_cell_angle_beta     92.32698297131324
_cell_angle_gamma    94.86295439498684

_space_group_name_H-M_alt    "P 1"
_space_group_IT_number       1

loop_
  _space_group_symop_operation_xyz
  'x, y, z'

loop_
  _atom_site_type_symbol
  _atom_site_label
  _atom_site_symmetry_multiplicity
  _atom_site_fract_x
  _atom_site_fract_y
  _atom_site_fract_z
  _atom_site_occupancy
  As  As1       1.0  0.37019020318984985  0.9895047545433044  0.673947811126709  1.0000
  Ba  Ba1       1.0  0.3623642325401306  0.482746958732605  0.26940059661865234  1.0000
  I   I1        1.0  0.3732559084892273  0.7339811325073242  0.7168821692466736  1.0000
  O   O1        1.0  0.8431079387664795  0.6664925813674927  0.8602281808853149  1.0000
  O   O2        1.0  0.3464755117893219  0.3620903789997101  0.8750407695770264  1.0000
  O   O3        1.0  0.8866816759109497  0.966640830039978  0.661696195602417  1.0000
  O   O4        1.0  0.7982810139656067  0.4164259433746338  0.5287449955940247  1.0000
  O   O5        1.0  0.8480615019798279  0.08360898494720459  0.6980617046356201  1.0000
  Pb  Pb1       1.0  0.8547770380973816  0.9144987463951111  0.37086018919944763  1.0000
  Tb  Tb1       1.0  0.8804108500480652  0.19568684697151184  0.512752890586853  1.0000
  Tb  Tb2       1.0  0.8691898584365845  0.9500491619110107  0.1268927901983261  1.0000
  Tb  Tb3       1.0  0.3700973689556122  0.4463723599910736  0.7868648767471313  1.0000
  Tb  Tb4       1.0  0.8697965741157532  0.1309930980205536  0.24735994637012482  1.0000
  Ti  Ti1       1.0  0.3657310903072357  0.8538923263549805  0.6969336271286011  1.0000
  Zn  Zn1       1.0  0.34306997060775757  0.7963686585426331  0.8871837258338928  1.0000
