data_image0
_chemical_formula_structural       Mn10O4Tb
_chemical_formula_sum              "Mn10 O4 Tb1"
_cell_length_a       4.514329378437167
_cell_length_b       4.336935132723704
_cell_length_c       7.741188049316406
_cell_angle_alpha    84.15386474757594
_cell_angle_beta     75.80207658639658
_cell_angle_gamma    60.87660968286838

_space_group_name_H-M_alt    "P 1"
_space_group_IT_number       1

loop_
  _space_group_symop_operation_xyz
  'x, y, z'

loop_
  _atom_site_type_symbol
  _atom_site_label
  _atom_site_symmetry_multiplicity
  _atom_site_fract_x
  _atom_site_fract_y
  _atom_site_fract_z
  _atom_site_occupancy
  Mn  Mn1       1.0  0.6460735201835632  0.8641452789306641  0.7596770524978638  1.0000
  Mn  Mn2       1.0  0.16725768148899078  0.4549468159675598  0.22251343727111816  1.0000
  Mn  Mn3       1.0  0.6535232067108154  0.20050473511219025  0.9473830461502075  1.0000
  Mn  Mn4       1.0  0.6490800380706787  0.7031883001327515  0.8605867028236389  1.0000
  Mn  Mn5       1.0  0.8327245712280273  0.5593577027320862  0.5358973145484924  1.0000
  Mn  Mn6       1.0  0.166498601436615  0.6846352815628052  0.19666318595409393  1.0000
  Mn  Mn7       1.0  0.1448115110397339  0.8238933086395264  0.8893909454345703  1.0000
  Mn  Mn8       1.0  0.1522025763988495  0.5007413625717163  0.8090516328811646  1.0000
  Mn  Mn9       1.0  0.63664311170578  0.29681891202926636  0.01814096421003343  1.0000
  Mn  Mn10      1.0  0.6351497769355774  0.5952178239822388  0.328346312046051  1.0000
  O   O1        1.0  0.1858244240283966  0.5239500999450684  0.27550438046455383  1.0000
  O   O2        1.0  0.8831582069396973  0.10175096243619919  0.9187235832214357  1.0000
  O   O3        1.0  0.6461403369903564  0.2690196633338928  0.8559556007385254  1.0000
  O   O4        1.0  0.17019173502922058  0.43835586309432983  0.4138409495353699  1.0000
  Tb  Tb1       1.0  0.15742212533950806  0.49599480628967285  0.057707566767930984  1.0000
