data_image0
_chemical_formula_structural       HgMn9O4Tb
_chemical_formula_sum              "Hg1 Mn9 O4 Tb1"
_cell_length_a       5.496963830920593
_cell_length_b       5.9008372440960075
_cell_length_c       6.912499904632568
_cell_angle_alpha    70.43353372396135
_cell_angle_beta     59.21898346785362
_cell_angle_gamma    59.76549706630369

_space_group_name_H-M_alt    "P 1"
_space_group_IT_number       1

loop_
  _space_group_symop_operation_xyz
  'x, y, z'

loop_
  _atom_site_type_symbol
  _atom_site_label
  _atom_site_symmetry_multiplicity
  _atom_site_fract_x
  _atom_site_fract_y
  _atom_site_fract_z
  _atom_site_occupancy
  Hg  Hg1       1.0  0.7110944390296936  0.926291286945343  0.44791141152381897  1.0000
  Mn  Mn1       1.0  0.5769553184509277  0.7487186193466187  0.9299253821372986  1.0000
  Mn  Mn2       1.0  0.4963199496269226  0.4296557605266571  0.5388112664222717  1.0000
  Mn  Mn3       1.0  0.6369615197181702  0.5136970281600952  0.4849128425121308  1.0000
  Mn  Mn4       1.0  0.10068031400442123  0.7921562790870667  0.8247116804122925  1.0000
  Mn  Mn5       1.0  0.18377205729484558  0.19321225583553314  0.7350204586982727  1.0000
  Mn  Mn6       1.0  0.2280576229095459  0.43851813673973083  0.27134862542152405  1.0000
  Mn  Mn7       1.0  0.24172843992710114  0.5122960805892944  0.12296102941036224  1.0000
  Mn  Mn8       1.0  0.9786896109580994  0.40112051367759705  0.8846297264099121  1.0000
  Mn  Mn9       1.0  0.4372664988040924  0.3064976930618286  0.7870557308197021  1.0000
  O   O1        1.0  0.743905246257782  0.9418524503707886  0.26954928040504456  1.0000
  O   O2        1.0  0.26821309328079224  0.12118794769048691  0.17927993834018707  1.0000
  O   O3        1.0  0.5330319404602051  0.48026829957962036  0.08676663786172867  1.0000
  O   O4        1.0  0.3245038092136383  0.10691116750240326  0.5560144186019897  1.0000
  Tb  Tb1       1.0  0.9905079007148743  0.3382473886013031  0.536769688129425  1.0000
