data_image0
_chemical_formula_structural       BaDyILiMn2O2PTb6
_chemical_formula_sum              "Ba1 Dy1 I1 Li1 Mn2 O2 P1 Tb6"
_cell_length_a       6.979431775916762
_cell_length_b       7.270420600996278
_cell_length_c       8.895854949951172
_cell_angle_alpha    113.15661654901668
_cell_angle_beta     114.67474157257433
_cell_angle_gamma    90.31739774223995

_space_group_name_H-M_alt    "P 1"
_space_group_IT_number       1

loop_
  _space_group_symop_operation_xyz
  'x, y, z'

loop_
  _atom_site_type_symbol
  _atom_site_label
  _atom_site_symmetry_multiplicity
  _atom_site_fract_x
  _atom_site_fract_y
  _atom_site_fract_z
  _atom_site_occupancy
  Ba  Ba1       1.0  0.8798031210899353  0.6490954756736755  0.662460207939148  1.0000
  Dy  Dy1       1.0  0.3443796932697296  0.9963173866271973  0.42832219600677496  1.0000
  I   I1        1.0  0.8171219229698181  0.9926408529281616  0.2304956912994386  1.0000
  Li  Li1       1.0  0.8572883605957031  0.7356881499290466  0.8611232042312622  1.0000
  Mn  Mn1       1.0  0.9043015241622925  0.438667356967926  0.35660314559936523  1.0000
  Mn  Mn2       1.0  0.8307309746742249  0.5884004831314087  0.6203248500823975  1.0000
  O   O1        1.0  0.8687599301338196  0.48156335949897766  0.32867118716239935  1.0000
  O   O2        1.0  0.08932851254940033  0.4230133891105652  0.4400777220726013  1.0000
  P   P1        1.0  0.38074949383735657  0.8827945590019226  0.7288450598716736  1.0000
  Tb  Tb1       1.0  0.3670259714126587  0.7488142848014832  0.26965069770812994  1.0000
  Tb  Tb2       1.0  0.3269287645816803  0.1573161780834198  0.007031402084976435  1.0000
  Tb  Tb3       1.0  0.36013299226760864  0.26289427280426025  0.5956602692604065  1.0000
  Tb  Tb4       1.0  0.626377522945404  0.4778786301612854  0.4526001811027527  1.0000
  Tb  Tb5       1.0  0.8728477954864502  0.21254529058933258  0.10245724767446518  1.0000
  Tb  Tb6       1.0  0.356585830450058  0.9172502160072327  0.13691593706607824  1.0000
