data_Li8Fe10Sn2O24
loop_
_atom_type_symbol
_atom_type_electronegativity
_atom_type_radius
_atom_type_ionic_radius
Li 0.9800 1.4500 0.9000
Fe 1.8300 1.4000 0.8525
Sn 1.9600 1.4500 0.8300
O 3.4400 0.6000 1.2600
_symmetry_space_group_name_H-M C2/m
_cell_length_a 5.1900
_cell_length_b 9.0806
_cell_length_c 10.3539
_cell_angle_alpha 90.0000
_cell_angle_beta 90.0628
_cell_angle_gamma 90.0000
_symmetry_Int_Tables_number 12
_chemical_formula_structural Li4Fe5SnO12
_chemical_formula_sum 'Li8 Fe10 Sn2 O24'
_cell_volume 489.5616
_cell_formula_units_Z 2
loop_
_symmetry_equiv_pos_site_id
_symmetry_equiv_pos_as_xyz
1 'x, y, z'
loop_
_atom_site_type_symbol
_atom_site_label
_atom_site_symmetry_multiplicity
_atom_site_fract_x
_atom_site_fract_y
_atom_site_fract_z
_atom_site_occupancy
Li Li0 8 0.0961 0.2530 0.7523 1
Fe Fe1 4 0.0000 0.1633 0.5000 1
Fe Fe2 4 0.0000 0.3367 0.0000 1
Fe Fe3 2 0.0000 0.5000 0.5000 1
Sn Sn4 2 0.0000 0.0000 0.0000 1
O O5 8 0.1526 0.3161 0.3952 1
O O6 8 0.1735 0.1760 0.1072 1
O O7 4 0.1366 0.0000 0.4042 1
O O8 4 0.1784 0.5000 0.0966 1

