data_U2Br8O18
loop_
_atom_type_symbol
_atom_type_electronegativity
_atom_type_radius
_atom_type_ionic_radius
U 1.3800 1.7500 0.9913
Br 2.9600 1.1500 0.8825
O 3.4400 0.6000 1.2600
_symmetry_space_group_name_H-M P4/n
_cell_length_a 9.8498
_cell_length_b 9.8498
_cell_length_c 5.9555
_cell_angle_alpha 90.0000
_cell_angle_beta 90.0000
_cell_angle_gamma 90.0000
_symmetry_Int_Tables_number 85
_chemical_formula_structural UBr4O9
_chemical_formula_sum 'U2 Br8 O18'
_cell_volume 579.9276
_cell_formula_units_Z 2
loop_
_symmetry_equiv_pos_site_id
_symmetry_equiv_pos_as_xyz
1 'x, y, z'
loop_
_atom_site_type_symbol
_atom_site_label
_atom_site_symmetry_multiplicity
_atom_site_fract_x
_atom_site_fract_y
_atom_site_fract_z
_atom_site_occupancy
U U0 2 0.0000 0.5000 0.8540 1
Br Br1 8 0.0969 0.7993 0.2880 1
O O2 8 0.0566 0.7878 0.9641 1
O O3 8 0.1335 0.3394 0.7357 1
O O4 2 0.0000 0.5000 0.1672 1

