data_K16U8Pd24S48
loop_
_atom_type_symbol
_atom_type_electronegativity
_atom_type_radius
_atom_type_ionic_radius
K 0.8200 2.2000 1.5200
U 1.3800 1.7500 0.9913
Pd 2.2000 1.4000 0.8462
S 2.5800 1.0000 0.8800
_symmetry_space_group_name_H-M Fmmm
_cell_length_a 9.7116
_cell_length_b 14.4987
_cell_length_c 16.1358
_cell_angle_alpha 90.0000
_cell_angle_beta 90.0000
_cell_angle_gamma 90.0000
_symmetry_Int_Tables_number 69
_chemical_formula_structural K2U(PdS2)3
_chemical_formula_sum 'K16 U8 Pd24 S48'
_cell_volume 2256.4687
_cell_formula_units_Z 8
loop_
_symmetry_equiv_pos_site_id
_symmetry_equiv_pos_as_xyz
1 'x, y, z'
loop_
_atom_site_type_symbol
_atom_site_label
_atom_site_symmetry_multiplicity
_atom_site_fract_x
_atom_site_fract_y
_atom_site_fract_z
_atom_site_occupancy
K K0 8 0.0000 0.2019 0.5000 1
K K1 8 0.2500 0.2500 0.2500 1
U U2 8 0.0000 0.0000 0.1675 1
Pd Pd3 16 0.1677 0.0000 0.3407 1
Pd Pd4 8 0.1710 0.0000 0.0000 1
S S5 32 0.1803 0.1126 0.8998 1
S S6 16 0.0000 0.1127 0.2948 1

