data_Be1Cu1As2
loop_
_atom_type_symbol
_atom_type_electronegativity
_atom_type_radius
_atom_type_ionic_radius
Be 1.5700 1.0500 0.5900
Cu 1.9000 1.3500 0.8200
As 2.1800 1.1500 0.6600
_symmetry_space_group_name_H-M Pmmm
_cell_length_a 2.7758
_cell_length_b 3.2955
_cell_length_c 6.4408
_cell_angle_alpha 90.0000
_cell_angle_beta 90.0000
_cell_angle_gamma 90.0000
_symmetry_Int_Tables_number 47
_chemical_formula_structural BeCuAs2
_chemical_formula_sum 'Be1 Cu1 As2'
_cell_volume 58.9978
_cell_formula_units_Z 1
loop_
_symmetry_equiv_pos_site_id
_symmetry_equiv_pos_as_xyz
1 'x, y, z'
loop_
_atom_site_type_symbol
_atom_site_label
_atom_site_symmetry_multiplicity
_atom_site_fract_x
_atom_site_fract_y
_atom_site_fract_z
_atom_site_occupancy
Be Be0 1 0.5000 0.5000 0.0000 1
Cu Cu1 1 0.5000 0.5000 0.5000 1
As As2 2 0.0000 0.0000 0.2337 1

