data_Sr4Mg4Ta4Tl4
loop_
_atom_type_symbol
_atom_type_electronegativity
_atom_type_radius
_atom_type_ionic_radius
Sr 0.9500 2.0000 1.3200
Mg 1.3100 1.5000 0.8600
Ta 1.5000 1.4500 0.8200
Tl 1.6200 1.9000 1.3325
_symmetry_space_group_name_H-M F-43m
_cell_length_a 7.4520
_cell_length_b 7.4520
_cell_length_c 7.4520
_cell_angle_alpha 90.0000
_cell_angle_beta 90.0000
_cell_angle_gamma 90.0000
_symmetry_Int_Tables_number 216
_chemical_formula_structural SrMgTaTl
_chemical_formula_sum 'Sr4 Mg4 Ta4 Tl4'
_cell_volume 413.8335
_cell_formula_units_Z 4
loop_
_symmetry_equiv_pos_site_id
_symmetry_equiv_pos_as_xyz
1 'x, y, z'
loop_
_atom_site_type_symbol
_atom_site_label
_atom_site_symmetry_multiplicity
_atom_site_fract_x
_atom_site_fract_y
_atom_site_fract_z
_atom_site_occupancy
Sr Sr0 4 0.2500 0.2500 0.2500 1
Mg Mg1 4 0.0000 0.0000 0.5000 1
Ta Ta2 4 0.2500 0.2500 0.7500 1
Tl Tl3 4 0.0000 0.0000 0.0000 1

