data_Ac4Ge4Os8
loop_
_atom_type_symbol
_atom_type_electronegativity
_atom_type_radius
_atom_type_ionic_radius
Ac 1.1000 1.9500 1.2600
Ge 2.0100 1.2500 0.7700
Os 2.2000 1.3000 0.6730
_symmetry_space_group_name_H-M Fm-3m
_cell_length_a 6.7777
_cell_length_b 6.7777
_cell_length_c 6.7777
_cell_angle_alpha 90.0000
_cell_angle_beta 90.0000
_cell_angle_gamma 90.0000
_symmetry_Int_Tables_number 225
_chemical_formula_structural AcGeOs2
_chemical_formula_sum 'Ac4 Ge4 Os8'
_cell_volume 311.3509
_cell_formula_units_Z 4
loop_
_symmetry_equiv_pos_site_id
_symmetry_equiv_pos_as_xyz
1 'x, y, z'
loop_
_atom_site_type_symbol
_atom_site_label
_atom_site_symmetry_multiplicity
_atom_site_fract_x
_atom_site_fract_y
_atom_site_fract_z
_atom_site_occupancy
Ac Ac0 4 0.0000 0.0000 0.5000 1
Ge Ge1 4 0.0000 0.0000 0.0000 1
Os Os2 8 0.2500 0.2500 0.2500 1

