data_V4Cr2Fe2
loop_
_atom_type_symbol
_atom_type_electronegativity
_atom_type_radius
_atom_type_ionic_radius
V 1.6300 1.3500 0.7775
Cr 1.6600 1.4000 0.9400
Fe 1.8300 1.4000 0.8525
_symmetry_space_group_name_H-M Cmm2
_cell_length_a 2.8961
_cell_length_b 4.1064
_cell_length_c 8.1044
_cell_angle_alpha 90.0000
_cell_angle_beta 90.0000
_cell_angle_gamma 90.0000
_symmetry_Int_Tables_number 35
_chemical_formula_structural V2CrFe
_chemical_formula_sum 'V4 Cr2 Fe2'
_cell_volume 96.1532
_cell_formula_units_Z 2
loop_
_symmetry_equiv_pos_site_id
_symmetry_equiv_pos_as_xyz
1 'x, y, z'
loop_
_atom_site_type_symbol
_atom_site_label
_atom_site_symmetry_multiplicity
_atom_site_fract_x
_atom_site_fract_y
_atom_site_fract_z
_atom_site_occupancy
V V0 2 0.0000 0.0000 0.0101 1
V V1 2 0.0000 0.5000 0.7416 1
Cr Cr2 2 0.0000 0.0000 0.4908 1
Fe Fe3 2 0.0000 0.5000 0.2576 1

