data_Te1Mo1Pt1
loop_
_atom_type_symbol
_atom_type_electronegativity
_atom_type_radius
_atom_type_ionic_radius
Te 2.1000 1.4000 1.2933
Mo 2.1600 1.4500 0.7750
Pt 2.2800 1.3500 0.8050
_symmetry_space_group_name_H-M P3m1
_cell_length_a 3.2074
_cell_length_b 3.2074
_cell_length_c 6.4335
_cell_angle_alpha 90.0000
_cell_angle_beta 90.0000
_cell_angle_gamma 120.0000
_symmetry_Int_Tables_number 156
_chemical_formula_structural TeMoPt
_chemical_formula_sum 'Te1 Mo1 Pt1'
_cell_volume 57.3623
_cell_formula_units_Z 1
loop_
_symmetry_equiv_pos_site_id
_symmetry_equiv_pos_as_xyz
1 'x, y, z'
loop_
_atom_site_type_symbol
_atom_site_label
_atom_site_symmetry_multiplicity
_atom_site_fract_x
_atom_site_fract_y
_atom_site_fract_z
_atom_site_occupancy
Te Te0 1 0.3333 0.6667 0.6899 1
Mo Mo1 1 0.0000 0.0000 0.9973 1
Pt Pt2 1 0.6667 0.3333 0.3128 1

