data_Sr6Tc3Pb3
loop_
_atom_type_symbol
_atom_type_electronegativity
_atom_type_radius
_atom_type_ionic_radius
Sr 0.9500 2.0000 1.3200
Tc 1.9000 1.3500 0.7417
Pb 2.3300 1.8000 1.1225
_symmetry_space_group_name_H-M R-3m
_cell_length_a 3.6634
_cell_length_b 3.6634
_cell_length_c 31.1936
_cell_angle_alpha 90.0000
_cell_angle_beta 90.0000
_cell_angle_gamma 120.0000
_symmetry_Int_Tables_number 166
_chemical_formula_structural Sr2TcPb
_chemical_formula_sum 'Sr6 Tc3 Pb3'
_cell_volume 362.3049
_cell_formula_units_Z 3
loop_
_symmetry_equiv_pos_site_id
_symmetry_equiv_pos_as_xyz
1 'x, y, z'
loop_
_atom_site_type_symbol
_atom_site_label
_atom_site_symmetry_multiplicity
_atom_site_fract_x
_atom_site_fract_y
_atom_site_fract_z
_atom_site_occupancy
Sr Sr0 6 0.0000 0.0000 0.2596 1
Tc Tc1 3 0.0000 0.0000 0.0000 1
Pb Pb2 3 -0.0000 -0.0000 0.5000 1

