data_K3Al6Cd3
loop_
_atom_type_symbol
_atom_type_electronegativity
_atom_type_radius
_atom_type_ionic_radius
K 0.8200 2.2000 1.5200
Al 1.6100 1.2500 0.6750
Cd 1.6900 1.5500 1.0900
_symmetry_space_group_name_H-M R-3m
_cell_length_a 3.2412
_cell_length_b 3.2412
_cell_length_c 31.8366
_cell_angle_alpha 90.0000
_cell_angle_beta 90.0000
_cell_angle_gamma 120.0000
_symmetry_Int_Tables_number 166
_chemical_formula_structural KAl2Cd
_chemical_formula_sum 'K3 Al6 Cd3'
_cell_volume 288.4147
_cell_formula_units_Z 3
loop_
_symmetry_equiv_pos_site_id
_symmetry_equiv_pos_as_xyz
1 'x, y, z'
loop_
_atom_site_type_symbol
_atom_site_label
_atom_site_symmetry_multiplicity
_atom_site_fract_x
_atom_site_fract_y
_atom_site_fract_z
_atom_site_occupancy
K K0 3 -0.0000 -0.0000 0.5000 1
Al Al1 6 0.0000 0.0000 0.2607 1
Cd Cd2 3 0.0000 0.0000 0.0000 1

