data_Mn2Ir1Pt1
loop_
_atom_type_symbol
_atom_type_electronegativity
_atom_type_radius
_atom_type_ionic_radius
Mn 1.5500 1.4000 0.6483
Ir 2.2000 1.3500 0.7650
Pt 2.2800 1.3500 0.8050
_symmetry_space_group_name_H-M P4/mmm
_cell_length_a 2.6379
_cell_length_b 2.6379
_cell_length_c 7.3920
_cell_angle_alpha 90.0000
_cell_angle_beta 90.0000
_cell_angle_gamma 90.0000
_symmetry_Int_Tables_number 123
_chemical_formula_structural Mn2IrPt
_chemical_formula_sum 'Mn2 Ir1 Pt1'
_cell_volume 51.5036
_cell_formula_units_Z 1
loop_
_symmetry_equiv_pos_site_id
_symmetry_equiv_pos_as_xyz
1 'x, y, z'
loop_
_atom_site_type_symbol
_atom_site_label
_atom_site_symmetry_multiplicity
_atom_site_fract_x
_atom_site_fract_y
_atom_site_fract_z
_atom_site_occupancy
Mn Mn0 2 0.0000 0.0000 0.2557 1
Ir Ir1 1 0.5000 0.5000 0.5000 1
Pt Pt2 1 0.5000 0.5000 0.0000 1

