data_Cd4Ru2Cl2
loop_
_atom_type_symbol
_atom_type_electronegativity
_atom_type_radius
_atom_type_ionic_radius
Cd 1.6900 1.5500 1.0900
Ru 2.2000 1.3000 0.6610
Cl 3.1600 1.0000 0.7800
_symmetry_space_group_name_H-M Immm
_cell_length_a 2.8625
_cell_length_b 4.2419
_cell_length_c 13.4839
_cell_angle_alpha 90.0000
_cell_angle_beta 90.0000
_cell_angle_gamma 90.0000
_symmetry_Int_Tables_number 71
_chemical_formula_structural Cd2RuCl
_chemical_formula_sum 'Cd4 Ru2 Cl2'
_cell_volume 163.9198
_cell_formula_units_Z 2
loop_
_symmetry_equiv_pos_site_id
_symmetry_equiv_pos_as_xyz
1 'x, y, z'
loop_
_atom_site_type_symbol
_atom_site_label
_atom_site_symmetry_multiplicity
_atom_site_fract_x
_atom_site_fract_y
_atom_site_fract_z
_atom_site_occupancy
Cd Cd0 4 0.0000 0.0000 0.3148 1
Ru Ru1 2 0.0000 0.5000 0.0000 1
Cl Cl2 2 0.0000 0.5000 0.5000 1

