data_Sc4Tl8Se4
loop_
_atom_type_symbol
_atom_type_electronegativity
_atom_type_radius
_atom_type_ionic_radius
Sc 1.3600 1.6000 0.8850
Tl 1.6200 1.9000 1.3325
Se 2.5500 1.1500 1.0133
_symmetry_space_group_name_H-M F-43m
_cell_length_a 7.3388
_cell_length_b 7.3388
_cell_length_c 7.3388
_cell_angle_alpha 90.0000
_cell_angle_beta 90.0000
_cell_angle_gamma 90.0000
_symmetry_Int_Tables_number 216
_chemical_formula_structural ScTl2Se
_chemical_formula_sum 'Sc4 Tl8 Se4'
_cell_volume 395.2499
_cell_formula_units_Z 4
loop_
_symmetry_equiv_pos_site_id
_symmetry_equiv_pos_as_xyz
1 'x, y, z'
loop_
_atom_site_type_symbol
_atom_site_label
_atom_site_symmetry_multiplicity
_atom_site_fract_x
_atom_site_fract_y
_atom_site_fract_z
_atom_site_occupancy
Sc Sc0 4 0.0000 0.0000 0.5000 1
Tl Tl1 4 0.0000 0.0000 0.0000 1
Tl Tl2 4 0.2500 0.2500 0.2500 1
Se Se3 4 0.2500 0.2500 0.7500 1

