data_K6Hf4
loop_
_atom_type_symbol
_atom_type_electronegativity
_atom_type_radius
_atom_type_ionic_radius
K 0.8200 2.2000 1.5200
Hf 1.3000 1.5500 0.8500
_symmetry_space_group_name_H-M C2/m
_cell_length_a 10.2087
_cell_length_b 3.2457
_cell_length_c 14.6362
_cell_angle_alpha 90.0000
_cell_angle_beta 103.5125
_cell_angle_gamma 90.0000
_symmetry_Int_Tables_number 12
_chemical_formula_structural K3Hf2
_chemical_formula_sum 'K6 Hf4'
_cell_volume 477.8426
_cell_formula_units_Z 2
loop_
_symmetry_equiv_pos_site_id
_symmetry_equiv_pos_as_xyz
1 'x, y, z'
loop_
_atom_site_type_symbol
_atom_site_label
_atom_site_symmetry_multiplicity
_atom_site_fract_x
_atom_site_fract_y
_atom_site_fract_z
_atom_site_occupancy
K K0 4 0.1155 0.5000 0.1628 1
K K1 2 0.0000 0.0000 0.5000 1
Hf Hf2 4 0.2250 0.0000 0.6251 1

