data_Hf4Zr4Co4Pt4
loop_
_atom_type_symbol
_atom_type_electronegativity
_atom_type_radius
_atom_type_ionic_radius
Hf 1.3000 1.5500 0.8500
Zr 1.3300 1.5500 0.8600
Co 1.8800 1.3500 0.7683
Pt 2.2800 1.3500 0.8050
_symmetry_space_group_name_H-M F-43m
_cell_length_a 6.4246
_cell_length_b 6.4246
_cell_length_c 6.4246
_cell_angle_alpha 90.0000
_cell_angle_beta 90.0000
_cell_angle_gamma 90.0000
_symmetry_Int_Tables_number 216
_chemical_formula_structural HfZrCoPt
_chemical_formula_sum 'Hf4 Zr4 Co4 Pt4'
_cell_volume 265.1799
_cell_formula_units_Z 4
loop_
_symmetry_equiv_pos_site_id
_symmetry_equiv_pos_as_xyz
1 'x, y, z'
loop_
_atom_site_type_symbol
_atom_site_label
_atom_site_symmetry_multiplicity
_atom_site_fract_x
_atom_site_fract_y
_atom_site_fract_z
_atom_site_occupancy
Hf Hf0 4 0.2500 0.2500 0.7500 1
Zr Zr1 4 0.0000 0.0000 0.0000 1
Co Co2 4 0.2500 0.2500 0.2500 1
Pt Pt3 4 0.0000 0.0000 0.5000 1

