data_Fe5Tc1
loop_
_atom_type_symbol
_atom_type_electronegativity
_atom_type_radius
_atom_type_ionic_radius
Fe 1.8300 1.4000 0.8525
Tc 1.9000 1.3500 0.7417
_symmetry_space_group_name_H-M P6/mmm
_cell_length_a 4.5861
_cell_length_b 4.5861
_cell_length_c 3.9687
_cell_angle_alpha 90.0000
_cell_angle_beta 90.0000
_cell_angle_gamma 120.0000
_symmetry_Int_Tables_number 191
_chemical_formula_structural Fe5Tc
_chemical_formula_sum 'Fe5 Tc1'
_cell_volume 72.9429
_cell_formula_units_Z 1
loop_
_symmetry_equiv_pos_site_id
_symmetry_equiv_pos_as_xyz
1 'x, y, z'
loop_
_atom_site_type_symbol
_atom_site_label
_atom_site_symmetry_multiplicity
_atom_site_fract_x
_atom_site_fract_y
_atom_site_fract_z
_atom_site_occupancy
Fe Fe0 3 0.0000 0.5000 0.5000 1
Fe Fe1 2 0.3333 0.6667 0.0000 1
Tc Tc2 1 0.0000 0.0000 0.0000 1

