data_Ba2Hf2Zr4
loop_
_atom_type_symbol
_atom_type_electronegativity
_atom_type_radius
_atom_type_ionic_radius
Ba 0.8900 2.1500 1.4900
Hf 1.3000 1.5500 0.8500
Zr 1.3300 1.5500 0.8600
_symmetry_space_group_name_H-M Cm
_cell_length_a 10.3709
_cell_length_b 3.2198
_cell_length_c 6.9620
_cell_angle_alpha 90.0000
_cell_angle_beta 93.8920
_cell_angle_gamma 90.0000
_symmetry_Int_Tables_number 8
_chemical_formula_structural BaHfZr2
_chemical_formula_sum 'Ba2 Hf2 Zr4'
_cell_volume 229.8360
_cell_formula_units_Z 2
loop_
_symmetry_equiv_pos_site_id
_symmetry_equiv_pos_as_xyz
1 'x, y, z'
loop_
_atom_site_type_symbol
_atom_site_label
_atom_site_symmetry_multiplicity
_atom_site_fract_x
_atom_site_fract_y
_atom_site_fract_z
_atom_site_occupancy
Ba Ba0 2 0.4991 0.0000 0.4992 1
Hf Hf1 2 0.2379 0.5000 0.1784 1
Zr Zr2 2 0.0014 0.0000 0.0041 1
Zr Zr3 2 0.2616 0.0000 0.8183 1

