data_Ga4Tc2Pb2
loop_
_atom_type_symbol
_atom_type_electronegativity
_atom_type_radius
_atom_type_ionic_radius
Ga 1.8100 1.3000 0.7600
Tc 1.9000 1.3500 0.7417
Pb 2.3300 1.8000 1.1225
_symmetry_space_group_name_H-M Amm2
_cell_length_a 4.3165
_cell_length_b 3.5216
_cell_length_c 10.2254
_cell_angle_alpha 90.0000
_cell_angle_beta 90.0000
_cell_angle_gamma 90.0000
_symmetry_Int_Tables_number 38
_chemical_formula_structural Ga2TcPb
_chemical_formula_sum 'Ga4 Tc2 Pb2'
_cell_volume 156.0445
_cell_formula_units_Z 2
loop_
_symmetry_equiv_pos_site_id
_symmetry_equiv_pos_as_xyz
1 'x, y, z'
loop_
_atom_site_type_symbol
_atom_site_label
_atom_site_symmetry_multiplicity
_atom_site_fract_x
_atom_site_fract_y
_atom_site_fract_z
_atom_site_occupancy
Ga Ga0 2 0.0000 0.0000 0.8159 1
Ga Ga1 2 0.5000 0.0000 0.3948 1
Tc Tc2 2 0.5000 0.0000 0.6949 1
Pb Pb3 2 0.0000 0.0000 0.0863 1

