data_V2Re2Hg2
loop_
_atom_type_symbol
_atom_type_electronegativity
_atom_type_radius
_atom_type_ionic_radius
V 1.6300 1.3500 0.7775
Re 1.9000 1.3500 0.7125
Hg 2.0000 1.5000 1.2450
_symmetry_space_group_name_H-M I4mm
_cell_length_a 3.2004
_cell_length_b 3.2004
_cell_length_c 9.6640
_cell_angle_alpha 90.0000
_cell_angle_beta 90.0000
_cell_angle_gamma 90.0000
_symmetry_Int_Tables_number 107
_chemical_formula_structural VReHg
_chemical_formula_sum 'V2 Re2 Hg2'
_cell_volume 98.7585
_cell_formula_units_Z 2
loop_
_symmetry_equiv_pos_site_id
_symmetry_equiv_pos_as_xyz
1 'x, y, z'
loop_
_atom_site_type_symbol
_atom_site_label
_atom_site_symmetry_multiplicity
_atom_site_fract_x
_atom_site_fract_y
_atom_site_fract_z
_atom_site_occupancy
V V0 2 0.0000 0.0000 0.6922 1
Re Re1 2 0.0000 0.0000 0.3074 1
Hg Hg2 2 0.0000 0.0000 0.0004 1

