data_Pu2Fe4
loop_
_atom_type_symbol
_atom_type_electronegativity
_atom_type_radius
_atom_type_ionic_radius
Pu 1.2800 1.7500 0.9675
Fe 1.8300 1.4000 0.8525
_symmetry_space_group_name_H-M P4_2/mnm
_cell_length_a 5.7134
_cell_length_b 5.7134
_cell_length_c 3.9396
_cell_angle_alpha 90.0000
_cell_angle_beta 90.0000
_cell_angle_gamma 90.0000
_symmetry_Int_Tables_number 136
_chemical_formula_structural PuFe2
_chemical_formula_sum 'Pu2 Fe4'
_cell_volume 129.0661
_cell_formula_units_Z 2
loop_
_symmetry_equiv_pos_site_id
_symmetry_equiv_pos_as_xyz
1 'x, y, z'
loop_
_atom_site_type_symbol
_atom_site_label
_atom_site_symmetry_multiplicity
_atom_site_fract_x
_atom_site_fract_y
_atom_site_fract_z
_atom_site_occupancy
Pu Pu0 2 0.0000 0.0000 0.0000 1
Fe Fe1 4 0.1645 0.8355 0.5000 1

