data_Cd4Ga4Sn4W4
loop_
_atom_type_symbol
_atom_type_electronegativity
_atom_type_radius
_atom_type_ionic_radius
Cd 1.6900 1.5500 1.0900
Ga 1.8100 1.3000 0.7600
Sn 1.9600 1.4500 0.8300
W 2.3600 1.3500 0.7667
_symmetry_space_group_name_H-M F-43m
_cell_length_a 6.7847
_cell_length_b 6.7847
_cell_length_c 6.7847
_cell_angle_alpha 90.0000
_cell_angle_beta 90.0000
_cell_angle_gamma 90.0000
_symmetry_Int_Tables_number 216
_chemical_formula_structural CdGaSnW
_chemical_formula_sum 'Cd4 Ga4 Sn4 W4'
_cell_volume 312.3168
_cell_formula_units_Z 4
loop_
_symmetry_equiv_pos_site_id
_symmetry_equiv_pos_as_xyz
1 'x, y, z'
loop_
_atom_site_type_symbol
_atom_site_label
_atom_site_symmetry_multiplicity
_atom_site_fract_x
_atom_site_fract_y
_atom_site_fract_z
_atom_site_occupancy
Cd Cd0 4 0.0000 0.0000 0.5000 1
Ga Ga1 4 0.2500 0.2500 0.2500 1
Sn Sn2 4 0.2500 0.2500 0.7500 1
W W3 4 0.0000 0.0000 0.0000 1

