data_K4Ga4Re4Ir4
loop_
_atom_type_symbol
_atom_type_electronegativity
_atom_type_radius
_atom_type_ionic_radius
K 0.8200 2.2000 1.5200
Ga 1.8100 1.3000 0.7600
Re 1.9000 1.3500 0.7125
Ir 2.2000 1.3500 0.7650
_symmetry_space_group_name_H-M F-43m
_cell_length_a 6.4839
_cell_length_b 6.4839
_cell_length_c 6.4839
_cell_angle_alpha 90.0000
_cell_angle_beta 90.0000
_cell_angle_gamma 90.0000
_symmetry_Int_Tables_number 216
_chemical_formula_structural KGaReIr
_chemical_formula_sum 'K4 Ga4 Re4 Ir4'
_cell_volume 272.5959
_cell_formula_units_Z 4
loop_
_symmetry_equiv_pos_site_id
_symmetry_equiv_pos_as_xyz
1 'x, y, z'
loop_
_atom_site_type_symbol
_atom_site_label
_atom_site_symmetry_multiplicity
_atom_site_fract_x
_atom_site_fract_y
_atom_site_fract_z
_atom_site_occupancy
K K0 4 0.2500 0.2500 0.7500 1
Ga Ga1 4 0.0000 0.0000 0.5000 1
Re Re2 4 0.0000 0.0000 0.0000 1
Ir Ir3 4 0.2500 0.2500 0.2500 1

