data_Ni2As4Au2
loop_
_atom_type_symbol
_atom_type_electronegativity
_atom_type_radius
_atom_type_ionic_radius
Ni 1.9100 1.3500 0.7400
As 2.1800 1.1500 0.6600
Au 2.5400 1.3500 1.0700
_symmetry_space_group_name_H-M I4/mmm
_cell_length_a 4.1630
_cell_length_b 4.1630
_cell_length_c 7.6717
_cell_angle_alpha 90.0000
_cell_angle_beta 90.0000
_cell_angle_gamma 90.0000
_symmetry_Int_Tables_number 139
_chemical_formula_structural NiAs2Au
_chemical_formula_sum 'Ni2 As4 Au2'
_cell_volume 133.0714
_cell_formula_units_Z 2
loop_
_symmetry_equiv_pos_site_id
_symmetry_equiv_pos_as_xyz
1 'x, y, z'
loop_
_atom_site_type_symbol
_atom_site_label
_atom_site_symmetry_multiplicity
_atom_site_fract_x
_atom_site_fract_y
_atom_site_fract_z
_atom_site_occupancy
Ni Ni0 2 0.0000 0.0000 0.0000 1
As As1 4 0.0000 0.5000 0.2500 1
Au Au2 2 0.0000 0.0000 0.5000 1

