data_La2Tl4Pd2
loop_
_atom_type_symbol
_atom_type_electronegativity
_atom_type_radius
_atom_type_ionic_radius
La 1.1000 1.9500 1.1720
Tl 1.6200 1.9000 1.3325
Pd 2.2000 1.4000 0.8462
_symmetry_space_group_name_H-M Cmm2
_cell_length_a 4.9655
_cell_length_b 5.2123
_cell_length_c 8.2264
_cell_angle_alpha 90.0000
_cell_angle_beta 90.0000
_cell_angle_gamma 90.0000
_symmetry_Int_Tables_number 35
_chemical_formula_structural LaTl2Pd
_chemical_formula_sum 'La2 Tl4 Pd2'
_cell_volume 212.8573
_cell_formula_units_Z 2
loop_
_symmetry_equiv_pos_site_id
_symmetry_equiv_pos_as_xyz
1 'x, y, z'
loop_
_atom_site_type_symbol
_atom_site_label
_atom_site_symmetry_multiplicity
_atom_site_fract_x
_atom_site_fract_y
_atom_site_fract_z
_atom_site_occupancy
La La0 2 0.0000 0.0000 0.4544 1
Tl Tl1 2 0.0000 0.0000 0.0308 1
Tl Tl2 2 0.0000 0.5000 0.7586 1
Pd Pd3 2 0.0000 0.5000 0.2562 1

