data_Ca4Y4Pd4W4
loop_
_atom_type_symbol
_atom_type_electronegativity
_atom_type_radius
_atom_type_ionic_radius
Ca 1.0000 1.8000 1.1400
Y 1.2200 1.8000 1.0400
Pd 2.2000 1.4000 0.8462
W 2.3600 1.3500 0.7667
_symmetry_space_group_name_H-M F-43m
_cell_length_a 7.0088
_cell_length_b 7.0088
_cell_length_c 7.0088
_cell_angle_alpha 90.0000
_cell_angle_beta 90.0000
_cell_angle_gamma 90.0000
_symmetry_Int_Tables_number 216
_chemical_formula_structural CaYPdW
_chemical_formula_sum 'Ca4 Y4 Pd4 W4'
_cell_volume 344.2980
_cell_formula_units_Z 4
loop_
_symmetry_equiv_pos_site_id
_symmetry_equiv_pos_as_xyz
1 'x, y, z'
loop_
_atom_site_type_symbol
_atom_site_label
_atom_site_symmetry_multiplicity
_atom_site_fract_x
_atom_site_fract_y
_atom_site_fract_z
_atom_site_occupancy
Ca Ca0 4 0.2500 0.2500 0.2500 1
Y Y1 4 0.0000 0.0000 0.0000 1
Pd Pd2 4 0.2500 0.2500 0.7500 1
W W3 4 0.0000 0.0000 0.5000 1

