data_Li2Te4Se2
loop_
_atom_type_symbol
_atom_type_electronegativity
_atom_type_radius
_atom_type_ionic_radius
Li 0.9800 1.4500 0.9000
Te 2.1000 1.4000 1.2933
Se 2.5500 1.1500 1.0133
_symmetry_space_group_name_H-M Immm
_cell_length_a 3.9661
_cell_length_b 4.1213
_cell_length_c 12.4601
_cell_angle_alpha 90.0000
_cell_angle_beta 90.0000
_cell_angle_gamma 90.0000
_symmetry_Int_Tables_number 71
_chemical_formula_structural LiTe2Se
_chemical_formula_sum 'Li2 Te4 Se2'
_cell_volume 203.8128
_cell_formula_units_Z 2
loop_
_symmetry_equiv_pos_site_id
_symmetry_equiv_pos_as_xyz
1 'x, y, z'
loop_
_atom_site_type_symbol
_atom_site_label
_atom_site_symmetry_multiplicity
_atom_site_fract_x
_atom_site_fract_y
_atom_site_fract_z
_atom_site_occupancy
Li Li0 2 0.0000 0.5000 0.5000 1
Te Te1 4 0.0000 0.0000 0.2994 1
Se Se2 2 0.0000 0.5000 0.0000 1

