data_Ge2B4Te2
loop_
_atom_type_symbol
_atom_type_electronegativity
_atom_type_radius
_atom_type_ionic_radius
Ge 2.0100 1.2500 0.7700
B 2.0400 0.8500 0.4100
Te 2.1000 1.4000 1.2933
_symmetry_space_group_name_H-M Immm
_cell_length_a 3.2647
_cell_length_b 5.9807
_cell_length_c 6.4817
_cell_angle_alpha 90.0000
_cell_angle_beta 90.0000
_cell_angle_gamma 90.0000
_symmetry_Int_Tables_number 71
_chemical_formula_structural GeB2Te
_chemical_formula_sum 'Ge2 B4 Te2'
_cell_volume 126.8764
_cell_formula_units_Z 2
loop_
_symmetry_equiv_pos_site_id
_symmetry_equiv_pos_as_xyz
1 'x, y, z'
loop_
_atom_site_type_symbol
_atom_site_label
_atom_site_symmetry_multiplicity
_atom_site_fract_x
_atom_site_fract_y
_atom_site_fract_z
_atom_site_occupancy
Ge Ge0 2 0.0000 0.5000 0.5000 1
B B1 4 0.0000 0.0000 0.2291 1
Te Te2 2 0.0000 0.5000 0.0000 1

