data_Na2Be1Tc1
loop_
_atom_type_symbol
_atom_type_electronegativity
_atom_type_radius
_atom_type_ionic_radius
Na 0.9300 1.8000 1.1600
Be 1.5700 1.0500 0.5900
Tc 1.9000 1.3500 0.7417
_symmetry_space_group_name_H-M P4mm
_cell_length_a 3.0580
_cell_length_b 3.0580
_cell_length_c 8.6387
_cell_angle_alpha 90.0000
_cell_angle_beta 90.0000
_cell_angle_gamma 90.0000
_symmetry_Int_Tables_number 99
_chemical_formula_structural Na2BeTc
_chemical_formula_sum 'Na2 Be1 Tc1'
_cell_volume 80.8251
_cell_formula_units_Z 1
loop_
_symmetry_equiv_pos_site_id
_symmetry_equiv_pos_as_xyz
1 'x, y, z'
loop_
_atom_site_type_symbol
_atom_site_label
_atom_site_symmetry_multiplicity
_atom_site_fract_x
_atom_site_fract_y
_atom_site_fract_z
_atom_site_occupancy
Na Na0 1 0.0000 0.0000 0.9329 1
Na Na1 1 0.5000 0.5000 0.3081 1
Be Be2 1 0.5000 0.5000 0.6729 1
Tc Tc3 1 0.0000 0.0000 0.5861 1

