data_Bi5Sb1
loop_
_atom_type_symbol
_atom_type_electronegativity
_atom_type_radius
_atom_type_ionic_radius
Bi 2.0200 1.6000 1.0350
Sb 2.0500 1.4500 0.8300
_symmetry_space_group_name_H-M P6/mmm
_cell_length_a 6.4108
_cell_length_b 6.4108
_cell_length_c 5.9215
_cell_angle_alpha 90.0000
_cell_angle_beta 90.0000
_cell_angle_gamma 120.0000
_symmetry_Int_Tables_number 191
_chemical_formula_structural Bi5Sb
_chemical_formula_sum 'Bi5 Sb1'
_cell_volume 210.2481
_cell_formula_units_Z 1
loop_
_symmetry_equiv_pos_site_id
_symmetry_equiv_pos_as_xyz
1 'x, y, z'
loop_
_atom_site_type_symbol
_atom_site_label
_atom_site_symmetry_multiplicity
_atom_site_fract_x
_atom_site_fract_y
_atom_site_fract_z
_atom_site_occupancy
Bi Bi0 3 0.0000 0.5000 0.5000 1
Bi Bi1 2 0.3333 0.6667 0.0000 1
Sb Sb2 1 0.0000 0.0000 0.0000 1

