data_Ba2Ir2Rh4
loop_
_atom_type_symbol
_atom_type_electronegativity
_atom_type_radius
_atom_type_ionic_radius
Ba 0.8900 2.1500 1.4900
Ir 2.2000 1.3500 0.7650
Rh 2.2800 1.3500 0.7450
_symmetry_space_group_name_H-M Imm2
_cell_length_a 2.9631
_cell_length_b 5.0618
_cell_length_c 10.3808
_cell_angle_alpha 90.0000
_cell_angle_beta 90.0000
_cell_angle_gamma 90.0000
_symmetry_Int_Tables_number 44
_chemical_formula_structural BaIrRh2
_chemical_formula_sum 'Ba2 Ir2 Rh4'
_cell_volume 155.4813
_cell_formula_units_Z 2
loop_
_symmetry_equiv_pos_site_id
_symmetry_equiv_pos_as_xyz
1 'x, y, z'
loop_
_atom_site_type_symbol
_atom_site_label
_atom_site_symmetry_multiplicity
_atom_site_fract_x
_atom_site_fract_y
_atom_site_fract_z
_atom_site_occupancy
Ba Ba0 2 0.0000 0.0000 0.5003 1
Ir Ir1 2 0.0000 0.5000 0.2800 1
Rh Rh2 2 0.0000 0.0000 0.9969 1
Rh Rh3 2 0.0000 0.5000 0.7227 1

