data_As10C48
loop_
_atom_type_symbol
_atom_type_electronegativity
_atom_type_radius
_atom_type_ionic_radius
As 2.1800 1.1500 0.6600
C 2.5500 0.7000 0.3000
_symmetry_space_group_name_H-M I-43m
_cell_length_a 8.3250
_cell_length_b 8.3250
_cell_length_c 8.3250
_cell_angle_alpha 90.0000
_cell_angle_beta 90.0000
_cell_angle_gamma 90.0000
_symmetry_Int_Tables_number 217
_chemical_formula_structural As5C24
_chemical_formula_sum 'As10 C48'
_cell_volume 576.9722
_cell_formula_units_Z 2
loop_
_symmetry_equiv_pos_site_id
_symmetry_equiv_pos_as_xyz
1 'x, y, z'
loop_
_atom_site_type_symbol
_atom_site_label
_atom_site_symmetry_multiplicity
_atom_site_fract_x
_atom_site_fract_y
_atom_site_fract_z
_atom_site_occupancy
As As0 8 0.1803 0.1803 0.1803 1
As As1 2 0.0000 0.0000 0.0000 1
C C2 24 0.0489 0.4348 0.5652 1
C C3 24 0.1374 0.2847 0.7153 1

