data_Na4Al2Te2
loop_
_atom_type_symbol
_atom_type_electronegativity
_atom_type_radius
_atom_type_ionic_radius
Na 0.9300 1.8000 1.1600
Al 1.6100 1.2500 0.6750
Te 2.1000 1.4000 1.2933
_symmetry_space_group_name_H-M I-4m2
_cell_length_a 4.5488
_cell_length_b 4.5488
_cell_length_c 10.3080
_cell_angle_alpha 90.0000
_cell_angle_beta 90.0000
_cell_angle_gamma 90.0000
_symmetry_Int_Tables_number 119
_chemical_formula_structural Na2AlTe
_chemical_formula_sum 'Na4 Al2 Te2'
_cell_volume 213.1689
_cell_formula_units_Z 2
loop_
_symmetry_equiv_pos_site_id
_symmetry_equiv_pos_as_xyz
1 'x, y, z'
loop_
_atom_site_type_symbol
_atom_site_label
_atom_site_symmetry_multiplicity
_atom_site_fract_x
_atom_site_fract_y
_atom_site_fract_z
_atom_site_occupancy
Na Na0 2 0.0000 0.0000 0.0000 1
Na Na1 2 0.0000 0.5000 0.7500 1
Al Al2 2 0.0000 0.5000 0.2500 1
Te Te3 2 0.0000 0.0000 0.5000 1

