data_Cu2B4Pd2
loop_
_atom_type_symbol
_atom_type_electronegativity
_atom_type_radius
_atom_type_ionic_radius
Cu 1.9000 1.3500 0.8200
B 2.0400 0.8500 0.4100
Pd 2.2000 1.4000 0.8462
_symmetry_space_group_name_H-M Amm2
_cell_length_a 3.0804
_cell_length_b 3.6214
_cell_length_c 7.7005
_cell_angle_alpha 90.0000
_cell_angle_beta 90.0000
_cell_angle_gamma 90.0000
_symmetry_Int_Tables_number 38
_chemical_formula_structural CuB2Pd
_chemical_formula_sum 'Cu2 B4 Pd2'
_cell_volume 85.7026
_cell_formula_units_Z 2
loop_
_symmetry_equiv_pos_site_id
_symmetry_equiv_pos_as_xyz
1 'x, y, z'
loop_
_atom_site_type_symbol
_atom_site_label
_atom_site_symmetry_multiplicity
_atom_site_fract_x
_atom_site_fract_y
_atom_site_fract_z
_atom_site_occupancy
Cu Cu0 2 0.0000 0.0000 0.0937 1
B B1 2 0.0000 0.0000 0.7967 1
B B2 2 0.5000 0.0000 0.6998 1
Pd Pd3 2 0.5000 0.0000 0.4106 1

