data_Ca2Ni4Ge2
loop_
_atom_type_symbol
_atom_type_electronegativity
_atom_type_radius
_atom_type_ionic_radius
Ca 1.0000 1.8000 1.1400
Ni 1.9100 1.3500 0.7400
Ge 2.0100 1.2500 0.7700
_symmetry_space_group_name_H-M Imm2
_cell_length_a 3.2307
_cell_length_b 4.4582
_cell_length_c 9.0368
_cell_angle_alpha 90.0000
_cell_angle_beta 90.0000
_cell_angle_gamma 90.0000
_symmetry_Int_Tables_number 44
_chemical_formula_structural CaNi2Ge
_chemical_formula_sum 'Ca2 Ni4 Ge2'
_cell_volume 130.2828
_cell_formula_units_Z 2
loop_
_symmetry_equiv_pos_site_id
_symmetry_equiv_pos_as_xyz
1 'x, y, z'
loop_
_atom_site_type_symbol
_atom_site_label
_atom_site_symmetry_multiplicity
_atom_site_fract_x
_atom_site_fract_y
_atom_site_fract_z
_atom_site_occupancy
Ca Ca0 2 0.0000 0.0000 0.5068 1
Ni Ni1 2 0.0000 0.0000 0.9822 1
Ni Ni2 2 0.0000 0.5000 0.7258 1
Ge Ge3 2 0.0000 0.5000 0.2853 1

