data_Mn1B1Ru1
loop_
_atom_type_symbol
_atom_type_electronegativity
_atom_type_radius
_atom_type_ionic_radius
Mn 1.5500 1.4000 0.6483
B 2.0400 0.8500 0.4100
Ru 2.2000 1.3000 0.6610
_symmetry_space_group_name_H-M P3m1
_cell_length_a 2.8652
_cell_length_b 2.8652
_cell_length_c 4.5132
_cell_angle_alpha 90.0000
_cell_angle_beta 90.0000
_cell_angle_gamma 120.0000
_symmetry_Int_Tables_number 156
_chemical_formula_structural MnBRu
_chemical_formula_sum 'Mn1 B1 Ru1'
_cell_volume 31.9586
_cell_formula_units_Z 1
loop_
_symmetry_equiv_pos_site_id
_symmetry_equiv_pos_as_xyz
1 'x, y, z'
loop_
_atom_site_type_symbol
_atom_site_label
_atom_site_symmetry_multiplicity
_atom_site_fract_x
_atom_site_fract_y
_atom_site_fract_z
_atom_site_occupancy
Mn Mn0 1 0.3333 0.6667 0.2647 1
B B1 1 0.0000 0.0000 0.0088 1
Ru Ru2 1 0.6667 0.3333 0.7265 1

