data_Na2Hf2Cd4
loop_
_atom_type_symbol
_atom_type_electronegativity
_atom_type_radius
_atom_type_ionic_radius
Na 0.9300 1.8000 1.1600
Hf 1.3000 1.5500 0.8500
Cd 1.6900 1.5500 1.0900
_symmetry_space_group_name_H-M Imm2
_cell_length_a 3.0181
_cell_length_b 5.4236
_cell_length_c 11.4393
_cell_angle_alpha 90.0000
_cell_angle_beta 90.0000
_cell_angle_gamma 90.0000
_symmetry_Int_Tables_number 44
_chemical_formula_structural NaHfCd2
_chemical_formula_sum 'Na2 Hf2 Cd4'
_cell_volume 186.9558
_cell_formula_units_Z 2
loop_
_symmetry_equiv_pos_site_id
_symmetry_equiv_pos_as_xyz
1 'x, y, z'
loop_
_atom_site_type_symbol
_atom_site_label
_atom_site_symmetry_multiplicity
_atom_site_fract_x
_atom_site_fract_y
_atom_site_fract_z
_atom_site_occupancy
Na Na0 2 0.0000 0.5000 0.2636 1
Hf Hf1 2 0.0000 0.0000 0.4757 1
Cd Cd2 2 0.0000 0.0000 0.0164 1
Cd Cd3 2 0.0000 0.5000 0.7443 1

