data_Be2Cd4Te2
loop_
_atom_type_symbol
_atom_type_electronegativity
_atom_type_radius
_atom_type_ionic_radius
Be 1.5700 1.0500 0.5900
Cd 1.6900 1.5500 1.0900
Te 2.1000 1.4000 1.2933
_symmetry_space_group_name_H-M Cmmm
_cell_length_a 4.0728
_cell_length_b 4.8136
_cell_length_c 8.9187
_cell_angle_alpha 90.0000
_cell_angle_beta 90.0000
_cell_angle_gamma 90.0000
_symmetry_Int_Tables_number 65
_chemical_formula_structural BeCd2Te
_chemical_formula_sum 'Be2 Cd4 Te2'
_cell_volume 175.6334
_cell_formula_units_Z 2
loop_
_symmetry_equiv_pos_site_id
_symmetry_equiv_pos_as_xyz
1 'x, y, z'
loop_
_atom_site_type_symbol
_atom_site_label
_atom_site_symmetry_multiplicity
_atom_site_fract_x
_atom_site_fract_y
_atom_site_fract_z
_atom_site_occupancy
Be Be0 2 0.0000 0.5000 0.0000 1
Cd Cd1 4 0.0000 0.0000 0.1796 1
Te Te2 2 0.0000 0.5000 0.5000 1

