data_Cu3Pb6Br3
loop_
_atom_type_symbol
_atom_type_electronegativity
_atom_type_radius
_atom_type_ionic_radius
Cu 1.9000 1.3500 0.8200
Pb 2.3300 1.8000 1.1225
Br 2.9600 1.1500 0.8825
_symmetry_space_group_name_H-M R-3m
_cell_length_a 4.0230
_cell_length_b 4.0230
_cell_length_c 23.4570
_cell_angle_alpha 90.0000
_cell_angle_beta 90.0000
_cell_angle_gamma 120.0000
_symmetry_Int_Tables_number 166
_chemical_formula_structural CuPb2Br
_chemical_formula_sum 'Cu3 Pb6 Br3'
_cell_volume 329.2509
_cell_formula_units_Z 3
loop_
_symmetry_equiv_pos_site_id
_symmetry_equiv_pos_as_xyz
1 'x, y, z'
loop_
_atom_site_type_symbol
_atom_site_label
_atom_site_symmetry_multiplicity
_atom_site_fract_x
_atom_site_fract_y
_atom_site_fract_z
_atom_site_occupancy
Cu Cu0 3 -0.0000 -0.0000 0.5000 1
Pb Pb1 6 0.0000 0.0000 0.2319 1
Br Br2 3 0.0000 0.0000 0.0000 1

