data_Cd2Ge2Pd4
loop_
_atom_type_symbol
_atom_type_electronegativity
_atom_type_radius
_atom_type_ionic_radius
Cd 1.6900 1.5500 1.0900
Ge 2.0100 1.2500 0.7700
Pd 2.2000 1.4000 0.8462
_symmetry_space_group_name_H-M Cm
_cell_length_a 9.8002
_cell_length_b 3.1450
_cell_length_c 4.6367
_cell_angle_alpha 90.0000
_cell_angle_beta 106.2329
_cell_angle_gamma 90.0000
_symmetry_Int_Tables_number 8
_chemical_formula_structural CdGePd2
_chemical_formula_sum 'Cd2 Ge2 Pd4'
_cell_volume 138.0544
_cell_formula_units_Z 2
loop_
_symmetry_equiv_pos_site_id
_symmetry_equiv_pos_as_xyz
1 'x, y, z'
loop_
_atom_site_type_symbol
_atom_site_label
_atom_site_symmetry_multiplicity
_atom_site_fract_x
_atom_site_fract_y
_atom_site_fract_z
_atom_site_occupancy
Cd Cd0 2 0.4987 0.0000 0.5494 1
Ge Ge1 2 0.2407 0.5000 0.1674 1
Pd Pd2 2 0.0140 0.0000 0.0663 1
Pd Pd3 2 0.2466 0.0000 0.7169 1

