data_Zn3Sn6Te3
loop_
_atom_type_symbol
_atom_type_electronegativity
_atom_type_radius
_atom_type_ionic_radius
Zn 1.6500 1.3500 0.8800
Sn 1.9600 1.4500 0.8300
Te 2.1000 1.4000 1.2933
_symmetry_space_group_name_H-M R-3m
_cell_length_a 3.4174
_cell_length_b 3.4174
_cell_length_c 30.4774
_cell_angle_alpha 90.0000
_cell_angle_beta 90.0000
_cell_angle_gamma 120.0000
_symmetry_Int_Tables_number 166
_chemical_formula_structural ZnSn2Te
_chemical_formula_sum 'Zn3 Sn6 Te3'
_cell_volume 307.9633
_cell_formula_units_Z 3
loop_
_symmetry_equiv_pos_site_id
_symmetry_equiv_pos_as_xyz
1 'x, y, z'
loop_
_atom_site_type_symbol
_atom_site_label
_atom_site_symmetry_multiplicity
_atom_site_fract_x
_atom_site_fract_y
_atom_site_fract_z
_atom_site_occupancy
Zn Zn0 3 -0.0000 -0.0000 0.5000 1
Sn Sn1 6 0.0000 0.0000 0.2396 1
Te Te2 3 0.0000 0.0000 0.0000 1

