data_Zr1Cd2Hg1
loop_
_atom_type_symbol
_atom_type_electronegativity
_atom_type_radius
_atom_type_ionic_radius
Zr 1.3300 1.5500 0.8600
Cd 1.6900 1.5500 1.0900
Hg 2.0000 1.5000 1.2450
_symmetry_space_group_name_H-M Pmm2
_cell_length_a 3.0750
_cell_length_b 4.4601
_cell_length_c 6.4209
_cell_angle_alpha 90.0000
_cell_angle_beta 90.0000
_cell_angle_gamma 90.0000
_symmetry_Int_Tables_number 25
_chemical_formula_structural ZrCd2Hg
_chemical_formula_sum 'Zr1 Cd2 Hg1'
_cell_volume 87.7246
_cell_formula_units_Z 1
loop_
_symmetry_equiv_pos_site_id
_symmetry_equiv_pos_as_xyz
1 'x, y, z'
loop_
_atom_site_type_symbol
_atom_site_label
_atom_site_symmetry_multiplicity
_atom_site_fract_x
_atom_site_fract_y
_atom_site_fract_z
_atom_site_occupancy
Zr Zr0 1 0.5000 0.5000 0.7437 1
Cd Cd1 1 0.0000 0.0000 0.0005 1
Cd Cd2 1 0.5000 0.5000 0.2435 1
Hg Hg3 1 0.0000 0.0000 0.5123 1

