data_Zr2Ti4Be2
loop_
_atom_type_symbol
_atom_type_electronegativity
_atom_type_radius
_atom_type_ionic_radius
Zr 1.3300 1.5500 0.8600
Ti 1.5400 1.4000 0.8517
Be 1.5700 1.0500 0.5900
_symmetry_space_group_name_H-M Amm2
_cell_length_a 4.1079
_cell_length_b 3.1124
_cell_length_c 10.6770
_cell_angle_alpha 90.0000
_cell_angle_beta 90.0000
_cell_angle_gamma 90.0000
_symmetry_Int_Tables_number 38
_chemical_formula_structural ZrTi2Be
_chemical_formula_sum 'Zr2 Ti4 Be2'
_cell_volume 136.4732
_cell_formula_units_Z 2
loop_
_symmetry_equiv_pos_site_id
_symmetry_equiv_pos_as_xyz
1 'x, y, z'
loop_
_atom_site_type_symbol
_atom_site_label
_atom_site_symmetry_multiplicity
_atom_site_fract_x
_atom_site_fract_y
_atom_site_fract_z
_atom_site_occupancy
Zr Zr0 2 0.0000 0.0000 0.0820 1
Ti Ti1 2 0.0000 0.0000 0.8105 1
Ti Ti2 2 0.5000 0.0000 0.4041 1
Be Be3 2 0.5000 0.0000 0.6848 1

