data_Ca2Be1B1
loop_
_atom_type_symbol
_atom_type_electronegativity
_atom_type_radius
_atom_type_ionic_radius
Ca 1.0000 1.8000 1.1400
Be 1.5700 1.0500 0.5900
B 2.0400 0.8500 0.4100
_symmetry_space_group_name_H-M P4mm
_cell_length_a 3.1244
_cell_length_b 3.1244
_cell_length_c 8.1607
_cell_angle_alpha 90.0000
_cell_angle_beta 90.0000
_cell_angle_gamma 90.0000
_symmetry_Int_Tables_number 99
_chemical_formula_structural Ca2BeB
_chemical_formula_sum 'Ca2 Be1 B1'
_cell_volume 79.8811
_cell_formula_units_Z 1
loop_
_symmetry_equiv_pos_site_id
_symmetry_equiv_pos_as_xyz
1 'x, y, z'
loop_
_atom_site_type_symbol
_atom_site_label
_atom_site_symmetry_multiplicity
_atom_site_fract_x
_atom_site_fract_y
_atom_site_fract_z
_atom_site_occupancy
Ca Ca0 1 0.0000 0.0000 0.9212 1
Ca Ca1 1 0.5000 0.5000 0.3379 1
Be Be2 1 0.5000 0.5000 0.6621 1
B B3 1 0.0000 0.0000 0.5787 1

