data_Ca2Cr2Sb4
loop_
_atom_type_symbol
_atom_type_electronegativity
_atom_type_radius
_atom_type_ionic_radius
Ca 1.0000 1.8000 1.1400
Cr 1.6600 1.4000 0.9400
Sb 2.0500 1.4500 0.8300
_symmetry_space_group_name_H-M I-4m2
_cell_length_a 4.2724
_cell_length_b 4.2724
_cell_length_c 10.3464
_cell_angle_alpha 90.0000
_cell_angle_beta 90.0000
_cell_angle_gamma 90.0000
_symmetry_Int_Tables_number 119
_chemical_formula_structural CaCrSb2
_chemical_formula_sum 'Ca2 Cr2 Sb4'
_cell_volume 189.4776
_cell_formula_units_Z 2
loop_
_symmetry_equiv_pos_site_id
_symmetry_equiv_pos_as_xyz
1 'x, y, z'
loop_
_atom_site_type_symbol
_atom_site_label
_atom_site_symmetry_multiplicity
_atom_site_fract_x
_atom_site_fract_y
_atom_site_fract_z
_atom_site_occupancy
Ca Ca0 2 0.0000 0.0000 0.5000 1
Cr Cr1 2 0.0000 0.5000 0.2500 1
Sb Sb2 2 0.0000 0.0000 0.0000 1
Sb Sb3 2 0.0000 0.5000 0.7500 1

