data_K4Al2Ag2
loop_
_atom_type_symbol
_atom_type_electronegativity
_atom_type_radius
_atom_type_ionic_radius
K 0.8200 2.2000 1.5200
Al 1.6100 1.2500 0.6750
Ag 1.9300 1.6000 1.0867
_symmetry_space_group_name_H-M Amm2
_cell_length_a 4.6408
_cell_length_b 5.2266
_cell_length_c 12.5962
_cell_angle_alpha 90.0000
_cell_angle_beta 90.0000
_cell_angle_gamma 90.0000
_symmetry_Int_Tables_number 38
_chemical_formula_structural K2AlAg
_chemical_formula_sum 'K4 Al2 Ag2'
_cell_volume 306.9238
_cell_formula_units_Z 2
loop_
_symmetry_equiv_pos_site_id
_symmetry_equiv_pos_as_xyz
1 'x, y, z'
loop_
_atom_site_type_symbol
_atom_site_label
_atom_site_symmetry_multiplicity
_atom_site_fract_x
_atom_site_fract_y
_atom_site_fract_z
_atom_site_occupancy
K K0 2 0.0000 0.0000 0.1063 1
K K1 2 0.5000 0.0000 0.4011 1
Al Al2 2 0.5000 0.0000 0.7059 1
Ag Ag3 2 0.0000 0.0000 0.7945 1

