data_Li8Bi4Cl4
loop_
_atom_type_symbol
_atom_type_electronegativity
_atom_type_radius
_atom_type_ionic_radius
Li 0.9800 1.4500 0.9000
Bi 2.0200 1.6000 1.0350
Cl 3.1600 1.0000 0.7800
_symmetry_space_group_name_H-M F-43m
_cell_length_a 7.3441
_cell_length_b 7.3441
_cell_length_c 7.3441
_cell_angle_alpha 90.0000
_cell_angle_beta 90.0000
_cell_angle_gamma 90.0000
_symmetry_Int_Tables_number 216
_chemical_formula_structural Li2BiCl
_chemical_formula_sum 'Li8 Bi4 Cl4'
_cell_volume 396.1061
_cell_formula_units_Z 4
loop_
_symmetry_equiv_pos_site_id
_symmetry_equiv_pos_as_xyz
1 'x, y, z'
loop_
_atom_site_type_symbol
_atom_site_label
_atom_site_symmetry_multiplicity
_atom_site_fract_x
_atom_site_fract_y
_atom_site_fract_z
_atom_site_occupancy
Li Li0 4 0.0000 0.0000 0.0000 1
Li Li1 4 0.2500 0.2500 0.7500 1
Bi Bi2 4 0.0000 0.0000 0.5000 1
Cl Cl3 4 0.2500 0.2500 0.2500 1

