data_Nb1Tl1Ge2
loop_
_atom_type_symbol
_atom_type_electronegativity
_atom_type_radius
_atom_type_ionic_radius
Nb 1.6000 1.4500 0.8200
Tl 1.6200 1.9000 1.3325
Ge 2.0100 1.2500 0.7700
_symmetry_space_group_name_H-M P4mm
_cell_length_a 3.6456
_cell_length_b 3.6456
_cell_length_c 6.1068
_cell_angle_alpha 90.0000
_cell_angle_beta 90.0000
_cell_angle_gamma 90.0000
_symmetry_Int_Tables_number 99
_chemical_formula_structural NbTlGe2
_chemical_formula_sum 'Nb1 Tl1 Ge2'
_cell_volume 81.0918
_cell_formula_units_Z 1
loop_
_symmetry_equiv_pos_site_id
_symmetry_equiv_pos_as_xyz
1 'x, y, z'
loop_
_atom_site_type_symbol
_atom_site_label
_atom_site_symmetry_multiplicity
_atom_site_fract_x
_atom_site_fract_y
_atom_site_fract_z
_atom_site_occupancy
Nb Nb0 1 0.0000 0.0000 0.4453 1
Tl Tl1 1 0.5000 0.5000 0.7607 1
Ge Ge2 1 0.0000 0.0000 0.0131 1
Ge Ge3 1 0.5000 0.5000 0.2810 1

