data_Ge6Te6
loop_
_atom_type_symbol
_atom_type_electronegativity
_atom_type_radius
_atom_type_ionic_radius
Ge 2.0100 1.2500 0.7700
Te 2.1000 1.4000 1.2933
_symmetry_space_group_name_H-M Cm
_cell_length_a 12.3773
_cell_length_b 4.0333
_cell_length_c 7.0154
_cell_angle_alpha 90.0000
_cell_angle_beta 109.7386
_cell_angle_gamma 90.0000
_symmetry_Int_Tables_number 8
_chemical_formula_structural GeTe
_chemical_formula_sum 'Ge6 Te6'
_cell_volume 329.5299
_cell_formula_units_Z 6
loop_
_symmetry_equiv_pos_site_id
_symmetry_equiv_pos_as_xyz
1 'x, y, z'
loop_
_atom_site_type_symbol
_atom_site_label
_atom_site_symmetry_multiplicity
_atom_site_fract_x
_atom_site_fract_y
_atom_site_fract_z
_atom_site_occupancy
Ge Ge0 2 0.0733 0.5000 0.8418 1
Ge Ge1 2 0.1836 0.5000 0.3674 1
Ge Ge2 2 0.3457 0.0000 0.6965 1
Te Te3 2 0.2008 0.0000 0.0286 1
Te Te4 2 0.3743 0.0000 0.2833 1
Te Te5 2 0.4749 0.5000 0.6234 1

