data_Pd2Pb2W4
loop_
_atom_type_symbol
_atom_type_electronegativity
_atom_type_radius
_atom_type_ionic_radius
Pd 2.2000 1.4000 0.8462
Pb 2.3300 1.8000 1.1225
W 2.3600 1.3500 0.7667
_symmetry_space_group_name_H-M I4/mmm
_cell_length_a 3.9160
_cell_length_b 3.9160
_cell_length_c 9.2253
_cell_angle_alpha 90.0000
_cell_angle_beta 90.0000
_cell_angle_gamma 90.0000
_symmetry_Int_Tables_number 139
_chemical_formula_structural PdPbW2
_chemical_formula_sum 'Pd2 Pb2 W4'
_cell_volume 141.4134
_cell_formula_units_Z 2
loop_
_symmetry_equiv_pos_site_id
_symmetry_equiv_pos_as_xyz
1 'x, y, z'
loop_
_atom_site_type_symbol
_atom_site_label
_atom_site_symmetry_multiplicity
_atom_site_fract_x
_atom_site_fract_y
_atom_site_fract_z
_atom_site_occupancy
Pd Pd0 2 0.0000 0.0000 0.0000 1
Pb Pb1 2 0.0000 0.0000 0.5000 1
W W2 4 0.0000 0.5000 0.2500 1

