data_Ba2Mn2Nb4
loop_
_atom_type_symbol
_atom_type_electronegativity
_atom_type_radius
_atom_type_ionic_radius
Ba 0.8900 2.1500 1.4900
Mn 1.5500 1.4000 0.6483
Nb 1.6000 1.4500 0.8200
_symmetry_space_group_name_H-M Immm
_cell_length_a 3.0363
_cell_length_b 5.5681
_cell_length_c 10.4604
_cell_angle_alpha 90.0000
_cell_angle_beta 90.0000
_cell_angle_gamma 90.0000
_symmetry_Int_Tables_number 71
_chemical_formula_structural BaMnNb2
_chemical_formula_sum 'Ba2 Mn2 Nb4'
_cell_volume 176.7075
_cell_formula_units_Z 2
loop_
_symmetry_equiv_pos_site_id
_symmetry_equiv_pos_as_xyz
1 'x, y, z'
loop_
_atom_site_type_symbol
_atom_site_label
_atom_site_symmetry_multiplicity
_atom_site_fract_x
_atom_site_fract_y
_atom_site_fract_z
_atom_site_occupancy
Ba Ba0 2 0.0000 0.5000 0.5000 1
Mn Mn1 2 0.0000 0.5000 0.0000 1
Nb Nb2 4 0.0000 0.0000 0.3083 1

