data_Y2Sb1Os1
loop_
_atom_type_symbol
_atom_type_electronegativity
_atom_type_radius
_atom_type_ionic_radius
Y 1.2200 1.8000 1.0400
Sb 2.0500 1.4500 0.8300
Os 2.2000 1.3000 0.6730
_symmetry_space_group_name_H-M P4mm
_cell_length_a 3.3548
_cell_length_b 3.3548
_cell_length_c 8.5039
_cell_angle_alpha 90.0000
_cell_angle_beta 90.0000
_cell_angle_gamma 90.0000
_symmetry_Int_Tables_number 99
_chemical_formula_structural Y2SbOs
_chemical_formula_sum 'Y2 Sb1 Os1'
_cell_volume 95.7808
_cell_formula_units_Z 1
loop_
_symmetry_equiv_pos_site_id
_symmetry_equiv_pos_as_xyz
1 'x, y, z'
loop_
_atom_site_type_symbol
_atom_site_label
_atom_site_symmetry_multiplicity
_atom_site_fract_x
_atom_site_fract_y
_atom_site_fract_z
_atom_site_occupancy
Y Y0 1 0.0000 0.0000 0.9567 1
Y Y1 1 0.5000 0.5000 0.3139 1
Sb Sb2 1 0.5000 0.5000 0.6993 1
Os Os3 1 0.0000 0.0000 0.5301 1

