data_Sr1Nb2Pb1
loop_
_atom_type_symbol
_atom_type_electronegativity
_atom_type_radius
_atom_type_ionic_radius
Sr 0.9500 2.0000 1.3200
Nb 1.6000 1.4500 0.8200
Pb 2.3300 1.8000 1.1225
_symmetry_space_group_name_H-M Pm
_cell_length_a 3.2926
_cell_length_b 4.9719
_cell_length_c 7.5098
_cell_angle_alpha 90.0000
_cell_angle_beta 100.8916
_cell_angle_gamma 90.0000
_symmetry_Int_Tables_number 6
_chemical_formula_structural SrNb2Pb
_chemical_formula_sum 'Sr1 Nb2 Pb1'
_cell_volume 121.4816
_cell_formula_units_Z 1
loop_
_symmetry_equiv_pos_site_id
_symmetry_equiv_pos_as_xyz
1 'x, y, z'
loop_
_atom_site_type_symbol
_atom_site_label
_atom_site_symmetry_multiplicity
_atom_site_fract_x
_atom_site_fract_y
_atom_site_fract_z
_atom_site_occupancy
Sr Sr0 1 0.1978 0.5000 0.7494 1
Nb Nb1 1 0.7726 0.5000 0.1779 1
Nb Nb2 1 0.9639 0.0000 0.1067 1
Pb Pb3 1 0.5657 0.0000 0.5659 1

