data_Nb12Ru20
loop_
_atom_type_symbol
_atom_type_electronegativity
_atom_type_radius
_atom_type_ionic_radius
Nb 1.6000 1.4500 0.8200
Ru 2.2000 1.3000 0.6610
_symmetry_space_group_name_H-M I4/mcm
_cell_length_a 9.9026
_cell_length_b 9.9026
_cell_length_c 5.0705
_cell_angle_alpha 90.0000
_cell_angle_beta 90.0000
_cell_angle_gamma 90.0000
_symmetry_Int_Tables_number 140
_chemical_formula_structural Nb3Ru5
_chemical_formula_sum 'Nb12 Ru20'
_cell_volume 495.3553
_cell_formula_units_Z 4
loop_
_symmetry_equiv_pos_site_id
_symmetry_equiv_pos_as_xyz
1 'x, y, z'
loop_
_atom_site_type_symbol
_atom_site_label
_atom_site_symmetry_multiplicity
_atom_site_fract_x
_atom_site_fract_y
_atom_site_fract_z
_atom_site_occupancy
Nb Nb0 8 0.1646 0.3354 0.5000 1
Nb Nb1 4 0.0000 0.0000 0.2500 1
Ru Ru2 16 0.0789 0.2263 0.0000 1
Ru Ru3 4 0.0000 0.5000 0.2500 1

