data_Ta16Be4Ir4
loop_
_atom_type_symbol
_atom_type_electronegativity
_atom_type_radius
_atom_type_ionic_radius
Ta 1.5000 1.4500 0.8200
Be 1.5700 1.0500 0.5900
Ir 2.2000 1.3500 0.7650
_symmetry_space_group_name_H-M F-43m
_cell_length_a 7.5052
_cell_length_b 7.5052
_cell_length_c 7.5052
_cell_angle_alpha 90.0000
_cell_angle_beta 90.0000
_cell_angle_gamma 90.0000
_symmetry_Int_Tables_number 216
_chemical_formula_structural Ta4BeIr
_chemical_formula_sum 'Ta16 Be4 Ir4'
_cell_volume 422.7608
_cell_formula_units_Z 4
loop_
_symmetry_equiv_pos_site_id
_symmetry_equiv_pos_as_xyz
1 'x, y, z'
loop_
_atom_site_type_symbol
_atom_site_label
_atom_site_symmetry_multiplicity
_atom_site_fract_x
_atom_site_fract_y
_atom_site_fract_z
_atom_site_occupancy
Ta Ta0 16 0.1244 0.3756 0.1244 1
Be Be1 4 0.2500 0.2500 0.7500 1
Ir Ir2 4 0.0000 0.0000 0.0000 1

