data_Np4Zn8Ru4
loop_
_atom_type_symbol
_atom_type_electronegativity
_atom_type_radius
_atom_type_ionic_radius
Np 1.3600 1.7500 1.0000
Zn 1.6500 1.3500 0.8800
Ru 2.2000 1.3000 0.6610
_symmetry_space_group_name_H-M Fm-3m
_cell_length_a 6.4074
_cell_length_b 6.4074
_cell_length_c 6.4074
_cell_angle_alpha 90.0000
_cell_angle_beta 90.0000
_cell_angle_gamma 90.0000
_symmetry_Int_Tables_number 225
_chemical_formula_structural NpZn2Ru
_chemical_formula_sum 'Np4 Zn8 Ru4'
_cell_volume 263.0570
_cell_formula_units_Z 4
loop_
_symmetry_equiv_pos_site_id
_symmetry_equiv_pos_as_xyz
1 'x, y, z'
loop_
_atom_site_type_symbol
_atom_site_label
_atom_site_symmetry_multiplicity
_atom_site_fract_x
_atom_site_fract_y
_atom_site_fract_z
_atom_site_occupancy
Np Np0 4 0.0000 0.0000 0.5000 1
Zn Zn1 8 0.2500 0.2500 0.2500 1
Ru Ru2 4 0.0000 0.0000 0.0000 1

