data_Li4Nb4Au4
loop_
_atom_type_symbol
_atom_type_electronegativity
_atom_type_radius
_atom_type_ionic_radius
Li 0.9800 1.4500 0.9000
Nb 1.6000 1.4500 0.8200
Au 2.5400 1.3500 1.0700
_symmetry_space_group_name_H-M Fmm2
_cell_length_a 3.3432
_cell_length_b 4.3329
_cell_length_c 14.2637
_cell_angle_alpha 90.0000
_cell_angle_beta 90.0000
_cell_angle_gamma 90.0000
_symmetry_Int_Tables_number 42
_chemical_formula_structural LiNbAu
_chemical_formula_sum 'Li4 Nb4 Au4'
_cell_volume 206.5702
_cell_formula_units_Z 4
loop_
_symmetry_equiv_pos_site_id
_symmetry_equiv_pos_as_xyz
1 'x, y, z'
loop_
_atom_site_type_symbol
_atom_site_label
_atom_site_symmetry_multiplicity
_atom_site_fract_x
_atom_site_fract_y
_atom_site_fract_z
_atom_site_occupancy
Li Li0 4 0.0000 0.0000 0.6577 1
Nb Nb1 4 0.0000 0.0000 0.3376 1
Au Au2 4 0.0000 0.0000 0.0048 1

