data_Y9Fe27
loop_
_atom_type_symbol
_atom_type_electronegativity
_atom_type_radius
_atom_type_ionic_radius
Y 1.2200 1.8000 1.0400
Fe 1.8300 1.4000 0.8525
_symmetry_space_group_name_H-M R-3m
_cell_length_a 5.1568
_cell_length_b 5.1568
_cell_length_c 24.2265
_cell_angle_alpha 90.0000
_cell_angle_beta 90.0000
_cell_angle_gamma 120.0000
_symmetry_Int_Tables_number 166
_chemical_formula_structural YFe3
_chemical_formula_sum 'Y9 Fe27'
_cell_volume 558.1511
_cell_formula_units_Z 9
loop_
_symmetry_equiv_pos_site_id
_symmetry_equiv_pos_as_xyz
1 'x, y, z'
loop_
_atom_site_type_symbol
_atom_site_label
_atom_site_symmetry_multiplicity
_atom_site_fract_x
_atom_site_fract_y
_atom_site_fract_z
_atom_site_occupancy
Y Y0 6 0.0000 0.0000 0.1418 1
Y Y1 3 0.0000 0.0000 0.0000 1
Fe Fe2 18 0.0020 0.5010 0.9185 1
Fe Fe3 6 0.0000 0.0000 0.3328 1
Fe Fe4 3 -0.0000 -0.0000 0.5000 1

