data_Yb4Nd4Pd4
loop_
_atom_type_symbol
_atom_type_electronegativity
_atom_type_radius
_atom_type_ionic_radius
Yb 1.1000 1.7500 1.0840
Nd 1.1400 1.8500 1.2765
Pd 2.2000 1.4000 0.8462
_symmetry_space_group_name_H-M F-43m
_cell_length_a 6.7464
_cell_length_b 6.7464
_cell_length_c 6.7464
_cell_angle_alpha 90.0000
_cell_angle_beta 90.0000
_cell_angle_gamma 90.0000
_symmetry_Int_Tables_number 216
_chemical_formula_structural YbNdPd
_chemical_formula_sum 'Yb4 Nd4 Pd4'
_cell_volume 307.0548
_cell_formula_units_Z 4
loop_
_symmetry_equiv_pos_site_id
_symmetry_equiv_pos_as_xyz
1 'x, y, z'
loop_
_atom_site_type_symbol
_atom_site_label
_atom_site_symmetry_multiplicity
_atom_site_fract_x
_atom_site_fract_y
_atom_site_fract_z
_atom_site_occupancy
Yb Yb0 4 0.0000 0.0000 0.0000 1
Nd Nd1 4 0.2500 0.2500 0.7500 1
Pd Pd2 4 0.2500 0.2500 0.2500 1

