data_Na2Nd4Os2O12
loop_
_atom_type_symbol
_atom_type_electronegativity
_atom_type_radius
_atom_type_ionic_radius
Na 0.9300 1.8000 1.1600
Nd 1.1400 1.8500 1.2765
Os 2.2000 1.3000 0.6730
O 3.4400 0.6000 1.2600
_symmetry_space_group_name_H-M P2_1/c
_cell_length_a 5.4419
_cell_length_b 5.9118
_cell_length_c 9.4673
_cell_angle_alpha 90.0000
_cell_angle_beta 124.0002
_cell_angle_gamma 90.0000
_symmetry_Int_Tables_number 14
_chemical_formula_structural NaNd2OsO6
_chemical_formula_sum 'Na2 Nd4 Os2 O12'
_cell_volume 253.7911
_cell_formula_units_Z 2
loop_
_symmetry_equiv_pos_site_id
_symmetry_equiv_pos_as_xyz
1 'x, y, z'
loop_
_atom_site_type_symbol
_atom_site_label
_atom_site_symmetry_multiplicity
_atom_site_fract_x
_atom_site_fract_y
_atom_site_fract_z
_atom_site_occupancy
Na Na0 2 0.5000 0.0000 0.0000 1
Nd Nd1 4 0.2764 0.0756 0.2527 1
Os Os2 2 0.0000 0.0000 0.5000 1
O O3 4 0.1080 0.0418 0.7319 1
O O4 4 0.2422 0.7182 0.5705 1
O O5 4 0.3451 0.1769 0.5528 1

