data_Tb4Ho4Zr8
loop_
_atom_type_symbol
_atom_type_electronegativity
_atom_type_radius
_atom_type_ionic_radius
Tb 1.1000 1.7500 0.9815
Ho 1.2300 1.7500 1.0410
Zr 1.3300 1.5500 0.8600
_symmetry_space_group_name_H-M Fm-3m
_cell_length_a 7.4932
_cell_length_b 7.4932
_cell_length_c 7.4932
_cell_angle_alpha 90.0000
_cell_angle_beta 90.0000
_cell_angle_gamma 90.0000
_symmetry_Int_Tables_number 225
_chemical_formula_structural TbHoZr2
_chemical_formula_sum 'Tb4 Ho4 Zr8'
_cell_volume 420.7152
_cell_formula_units_Z 4
loop_
_symmetry_equiv_pos_site_id
_symmetry_equiv_pos_as_xyz
1 'x, y, z'
loop_
_atom_site_type_symbol
_atom_site_label
_atom_site_symmetry_multiplicity
_atom_site_fract_x
_atom_site_fract_y
_atom_site_fract_z
_atom_site_occupancy
Tb Tb0 4 0.0000 0.0000 0.0000 1
Ho Ho1 4 0.0000 0.0000 0.5000 1
Zr Zr2 8 0.2500 0.2500 0.2500 1

