data_Eu12Ge20
loop_
_atom_type_symbol
_atom_type_electronegativity
_atom_type_radius
_atom_type_ionic_radius
Eu 1.2000 1.8500 1.1985
Ge 2.0100 1.2500 0.7700
_symmetry_space_group_name_H-M Cmcm
_cell_length_a 9.7461
_cell_length_b 7.9273
_cell_length_c 9.5026
_cell_angle_alpha 90.0000
_cell_angle_beta 90.0000
_cell_angle_gamma 90.0000
_symmetry_Int_Tables_number 63
_chemical_formula_structural Eu3Ge5
_chemical_formula_sum 'Eu12 Ge20'
_cell_volume 730.8295
_cell_formula_units_Z 4
loop_
_symmetry_equiv_pos_site_id
_symmetry_equiv_pos_as_xyz
1 'x, y, z'
loop_
_atom_site_type_symbol
_atom_site_label
_atom_site_symmetry_multiplicity
_atom_site_fract_x
_atom_site_fract_y
_atom_site_fract_z
_atom_site_occupancy
Eu Eu0 8 0.2087 0.0000 0.0000 1
Eu Eu1 4 0.0000 0.3525 0.7500 1
Ge Ge2 8 0.0000 0.2808 0.0522 1
Ge Ge3 8 0.1963 0.2875 0.2500 1
Ge Ge4 4 0.0000 0.0162 0.2500 1

