data_Dy8Y4Zn4
loop_
_atom_type_symbol
_atom_type_electronegativity
_atom_type_radius
_atom_type_ionic_radius
Dy 1.2200 1.7500 1.1310
Y 1.2200 1.8000 1.0400
Zn 1.6500 1.3500 0.8800
_symmetry_space_group_name_H-M Fm-3m
_cell_length_a 7.5122
_cell_length_b 7.5122
_cell_length_c 7.5122
_cell_angle_alpha 90.0000
_cell_angle_beta 90.0000
_cell_angle_gamma 90.0000
_symmetry_Int_Tables_number 225
_chemical_formula_structural Dy2YZn
_chemical_formula_sum 'Dy8 Y4 Zn4'
_cell_volume 423.9351
_cell_formula_units_Z 4
loop_
_symmetry_equiv_pos_site_id
_symmetry_equiv_pos_as_xyz
1 'x, y, z'
loop_
_atom_site_type_symbol
_atom_site_label
_atom_site_symmetry_multiplicity
_atom_site_fract_x
_atom_site_fract_y
_atom_site_fract_z
_atom_site_occupancy
Dy Dy0 8 0.2500 0.2500 0.2500 1
Y Y1 4 0.0000 0.0000 0.5000 1
Zn Zn2 4 0.0000 0.0000 0.0000 1

