data_Co4O12
loop_
_atom_type_symbol
_atom_type_electronegativity
_atom_type_radius
_atom_type_ionic_radius
Co 1.8800 1.3500 0.7683
O 3.4400 0.6000 1.2600
_symmetry_space_group_name_H-M C2/m
_cell_length_a 4.7109
_cell_length_b 8.4079
_cell_length_c 4.6674
_cell_angle_alpha 90.0000
_cell_angle_beta 110.4816
_cell_angle_gamma 90.0000
_symmetry_Int_Tables_number 12
_chemical_formula_structural CoO3
_chemical_formula_sum 'Co4 O12'
_cell_volume 172.9713
_cell_formula_units_Z 4
loop_
_symmetry_equiv_pos_site_id
_symmetry_equiv_pos_as_xyz
1 'x, y, z'
loop_
_atom_site_type_symbol
_atom_site_label
_atom_site_symmetry_multiplicity
_atom_site_fract_x
_atom_site_fract_y
_atom_site_fract_z
_atom_site_occupancy
Co Co0 4 0.0000 0.1658 0.0000 1
O O1 8 0.2491 0.1799 0.7657 1
O O2 4 0.1987 0.0000 0.2346 1

