data_image0
_chemical_formula_structural       Ca5O5
_chemical_formula_sum              "Ca5 O5"
_cell_length_a       6.174712963824269
_cell_length_b       6.665292835177081
_cell_length_c       6.370737552642822
_cell_angle_alpha    110.6881647154788
_cell_angle_beta     109.26830985854885
_cell_angle_gamma    109.20149251184185

_space_group_name_H-M_alt    "P 1"
_space_group_IT_number       1

loop_
  _space_group_symop_operation_xyz
  'x, y, z'

loop_
  _atom_site_type_symbol
  _atom_site_label
  _atom_site_symmetry_multiplicity
  _atom_site_fract_x
  _atom_site_fract_y
  _atom_site_fract_z
  _atom_site_occupancy
  Ca  Ca1       1.0  0.7315351366996765  0.35949790477752686  0.14883126318454742  1.0000
  Ca  Ca2       1.0  0.2400871813297272  0.595245897769928  0.42608761787414545  1.0000
  Ca  Ca3       1.0  0.9860336780548097  0.9013009667396545  0.977427840232849  1.0000
  Ca  Ca4       1.0  0.5296599268913269  0.9209598302841187  0.43152657151222223  1.0000
  Ca  Ca5       1.0  0.1290050894021988  0.08498253673315048  0.1538088023662567  1.0000
  O   O1        1.0  0.2654142677783966  0.5857959985733032  0.4064952135086059  1.0000
  O   O2        1.0  0.8963547945022583  0.5998508930206299  0.7511169910430907  1.0000
  O   O3        1.0  0.42764121294021606  0.2745846211910248  0.8072097897529601  1.0000
  O   O4        1.0  0.4270491600036621  0.8833368420600891  0.05308075994253151  1.0000
  O   O5        1.0  0.6693850755691528  0.21590299904346466  0.15597496926784515  1.0000
