data_image0
_chemical_formula_structural       Ca4O6
_chemical_formula_sum              "Ca4 O6"
_cell_length_a       5.921853509436403
_cell_length_b       6.461044273429314
_cell_length_c       7.7050957679748535
_cell_angle_alpha    106.93783608735055
_cell_angle_beta     104.68634487154915
_cell_angle_gamma    113.09009346268058

_space_group_name_H-M_alt    "P 1"
_space_group_IT_number       1

loop_
  _space_group_symop_operation_xyz
  'x, y, z'

loop_
  _atom_site_type_symbol
  _atom_site_label
  _atom_site_symmetry_multiplicity
  _atom_site_fract_x
  _atom_site_fract_y
  _atom_site_fract_z
  _atom_site_occupancy
  Ca  Ca1       1.0  0.4280436635017395  0.4996735453605652  0.35259416699409485  1.0000
  Ca  Ca2       1.0  0.04100925475358963  0.5115198493003845  0.9220060706138611  1.0000
  Ca  Ca3       1.0  0.3972088098526001  0.1303166300058365  0.8595653772354126  1.0000
  Ca  Ca4       1.0  0.36399391293525696  0.1264333873987198  0.659545361995697  1.0000
  O   O1        1.0  0.06688935309648514  0.4859486222267151  0.35972535610198975  1.0000
  O   O2        1.0  0.6073923707008362  0.8422660827636719  0.4582016170024871  1.0000
  O   O3        1.0  0.11230099201202393  0.4736573398113251  0.08226598799228668  1.0000
  O   O4        1.0  0.09008615463972092  0.8322677612304688  0.5540139675140381  1.0000
  O   O5        1.0  0.8384608030319214  0.8760653138160706  0.7580386400222778  1.0000
  O   O6        1.0  0.7998652458190918  0.8679612278938293  0.27305516600608826  1.0000
