data_image0
_chemical_formula_structural       Ca3O3Si4
_chemical_formula_sum              "Ca3 O3 Si4"
_cell_length_a       4.862368013604428
_cell_length_b       6.7392672141425285
_cell_length_c       6.805047512054443
_cell_angle_alpha    119.1432264698855
_cell_angle_beta     89.19405419043439
_cell_angle_gamma    89.76502098024794

_space_group_name_H-M_alt    "P 1"
_space_group_IT_number       1

loop_
  _space_group_symop_operation_xyz
  'x, y, z'

loop_
  _atom_site_type_symbol
  _atom_site_label
  _atom_site_symmetry_multiplicity
  _atom_site_fract_x
  _atom_site_fract_y
  _atom_site_fract_z
  _atom_site_occupancy
  Ca  Ca1       1.0  0.7163573503494263  0.42119506001472473  0.8482581973075867  1.0000
  Ca  Ca2       1.0  0.21932178735733032  0.23695442080497742  0.8942343592643738  1.0000
  Ca  Ca3       1.0  0.21841415762901306  0.9020099639892578  0.5582466721534729  1.0000
  O   O1        1.0  0.21528387069702148  0.04007340595126152  0.7603009343147278  1.0000
  O   O2        1.0  0.9754433631896973  0.995000422000885  0.32936236262321467  1.0000
  O   O3        1.0  0.21405474841594696  0.6411255598068237  0.8325800895690918  1.0000
  Si  Si1       1.0  0.7130571007728577  0.3442310690879822  0.5391774773597717  1.0000
  Si  Si2       1.0  0.7069958448410034  0.08091729879379272  0.07491520792245865  1.0000
  Si  Si3       1.0  0.7333582639694214  0.12763406336307526  0.8384278416633606  1.0000
  Si  Si4       1.0  0.21146473288536072  0.6579261422157288  0.833227813243866  1.0000
