data_image0
_chemical_formula_structural       AuCa4O3Si2
_chemical_formula_sum              "Au1 Ca4 O3 Si2"
_cell_length_a       5.90884412374806
_cell_length_b       6.427948308233218
_cell_length_c       6.147205352783203
_cell_angle_alpha    108.074577450623
_cell_angle_beta     106.60846677585225
_cell_angle_gamma    113.49916484251294

_space_group_name_H-M_alt    "P 1"
_space_group_IT_number       1

loop_
  _space_group_symop_operation_xyz
  'x, y, z'

loop_
  _atom_site_type_symbol
  _atom_site_label
  _atom_site_symmetry_multiplicity
  _atom_site_fract_x
  _atom_site_fract_y
  _atom_site_fract_z
  _atom_site_occupancy
  Au  Au1       1.0  0.9496867656707764  0.9258608818054199  0.7212746739387512  1.0000
  Ca  Ca1       1.0  0.6140838861465454  0.7682318687438965  0.17487941682338715  1.0000
  Ca  Ca2       1.0  0.9635170102119446  0.904015839099884  0.9107533693313599  1.0000
  Ca  Ca3       1.0  0.234812393784523  0.5569993257522583  0.9887323975563049  1.0000
  Ca  Ca4       1.0  0.9269174337387085  0.4334017336368561  0.4378198981285095  1.0000
  O   O1        1.0  0.604006290435791  0.10558526962995529  0.9404131174087524  1.0000
  O   O2        1.0  0.5655018091201782  0.9233496189117432  0.7550843358039856  1.0000
  O   O3        1.0  0.13713885843753815  0.5842264890670776  0.009221957996487617  1.0000
  Si  Si1       1.0  0.6064115762710571  0.4015425145626068  0.9245956540107727  1.0000
  Si  Si2       1.0  0.315626859664917  0.17006729543209076  0.43182647228240967  1.0000
