data_image0
_chemical_formula_structural       Ca2O5Si3
_chemical_formula_sum              "Ca2 O5 Si3"
_cell_length_a       5.827668343556063
_cell_length_b       4.440248139039789
_cell_length_c       5.898071765899658
_cell_angle_alpha    114.43565929754497
_cell_angle_beta     106.68909324464165
_cell_angle_gamma    128.16756961169523

_space_group_name_H-M_alt    "P 1"
_space_group_IT_number       1

loop_
  _space_group_symop_operation_xyz
  'x, y, z'

loop_
  _atom_site_type_symbol
  _atom_site_label
  _atom_site_symmetry_multiplicity
  _atom_site_fract_x
  _atom_site_fract_y
  _atom_site_fract_z
  _atom_site_occupancy
  Ca  Ca1       1.0  0.4948877394199372  0.1085708290338517  0.8886335492134094  1.0000
  Ca  Ca2       1.0  0.3151144981384278  0.19135172665119182  0.5953256487846375  1.0000
  O   O1        1.0  0.8326480388641357  0.9298314452171327  0.7563276886940002  1.0000
  O   O2        1.0  0.9916667342185974  0.8286274671554567  0.5365399122238159  1.0000
  O   O3        1.0  0.7833999991416932  0.3971970379352571  0.9722132086753845  1.0000
  O   O4        1.0  0.2678022980690003  0.7915855050086976  0.1637673377990722  1.0000
  O   O5        1.0  0.4676670134067539  0.5664560198783879  0.9000906944274903  1.0000
  Si  Si1       1.0  0.8049682378768921  0.17857187986373907  0.2064320892095566  1.0000
  Si  Si2       1.0  0.016699684783816417  0.48456016182899486  0.32430338859558105  1.0000
  Si  Si3       1.0  0.8287784457206726  0.1194698512554169  0.18497300148010257  1.0000
