data_image0
_chemical_formula_structural       Ca4O2Si4
_chemical_formula_sum              "Ca4 O2 Si4"
_cell_length_a       5.970148538167497
_cell_length_b       6.258915906828058
_cell_length_c       6.800433158874512
_cell_angle_alpha    65.48704121132901
_cell_angle_beta     65.90486530832055
_cell_angle_gamma    62.235877828324604

_space_group_name_H-M_alt    "P 1"
_space_group_IT_number       1

loop_
  _space_group_symop_operation_xyz
  'x, y, z'

loop_
  _atom_site_type_symbol
  _atom_site_label
  _atom_site_symmetry_multiplicity
  _atom_site_fract_x
  _atom_site_fract_y
  _atom_site_fract_z
  _atom_site_occupancy
  Ca  Ca1       1.0  0.4432331323623657  0.4364899694919586  0.7817864418029785  1.0000
  Ca  Ca2       1.0  0.05219019576907158  0.4787769913673401  0.13563956320285797  1.0000
  Ca  Ca3       1.0  0.5378928780555725  0.023842627182602882  0.39472243189811707  1.0000
  Ca  Ca4       1.0  0.026821693405508995  0.009123976342380047  0.35670748353004456  1.0000
  O   O1        1.0  0.90327388048172  0.40816137194633484  0.6812360286712646  1.0000
  O   O2        1.0  0.3422352969646454  0.5122541189193726  0.5670868754386902  1.0000
  Si  Si1       1.0  0.5485941171646118  0.6497933864593506  0.37696102261543274  1.0000
  Si  Si2       1.0  0.5413082242012024  0.013936923816800117  0.5381224155426024  1.0000
  Si  Si3       1.0  0.9727919697761536  0.9300237894058228  0.5561813712120056  1.0000
  Si  Si4       1.0  0.040298450738191605  0.6931909918785095  0.06159047409892082  1.0000
