data_image0
_chemical_formula_structural       F2Ga2K3P2
_chemical_formula_sum              "F2 Ga2 K3 P2"
_cell_length_a       5.740333359421809
_cell_length_b       4.702505291440288
_cell_length_c       6.724133491516113
_cell_angle_alpha    103.36791486677214
_cell_angle_beta     102.17328680393179
_cell_angle_gamma    125.68145379105304

_space_group_name_H-M_alt    "P 1"
_space_group_IT_number       1

loop_
  _space_group_symop_operation_xyz
  'x, y, z'

loop_
  _atom_site_type_symbol
  _atom_site_label
  _atom_site_symmetry_multiplicity
  _atom_site_fract_x
  _atom_site_fract_y
  _atom_site_fract_z
  _atom_site_occupancy
  F   F1        1.0  0.8831770420074463  0.5013993382453918  0.2435847520828247  1.0000
  F   F2        1.0  0.20249317586421967  0.8607645034790039  0.4512791633605957  1.0000
  Ga  Ga1       1.0  0.8707994818687439  0.45559969544410706  0.615060567855835  1.0000
  Ga  Ga2       1.0  0.28969693183898926  0.5243784189224243  0.7975096702575684  1.0000
  K   K1        1.0  0.8017839789390564  0.9844933152198792  0.9085699915885925  1.0000
  K   K2        1.0  0.7679541707038879  0.03595621883869171  0.07244326919317245  1.0000
  K   K3        1.0  0.2815505266189575  0.07698845118284225  0.3755068778991699  1.0000
  P   P1        1.0  0.16122952103614807  0.7747979164123535  0.33128049969673157  1.0000
  P   P2        1.0  0.4034552276134491  0.6504080295562744  0.020340571179986  1.0000
