data_image0
_chemical_formula_structural       F3KMn5
_chemical_formula_sum              "F3 K1 Mn5"
_cell_length_a       5.305161590211497
_cell_length_b       4.769998326331276
_cell_length_c       5.734941482543945
_cell_angle_alpha    98.61115221050436
_cell_angle_beta     95.77146301333559
_cell_angle_gamma    111.59332671639872

_space_group_name_H-M_alt    "P 1"
_space_group_IT_number       1

loop_
  _space_group_symop_operation_xyz
  'x, y, z'

loop_
  _atom_site_type_symbol
  _atom_site_label
  _atom_site_symmetry_multiplicity
  _atom_site_fract_x
  _atom_site_fract_y
  _atom_site_fract_z
  _atom_site_occupancy
  F   F1        1.0  0.8353921175003052  0.7099395394325256  0.4469115436077118  1.0000
  F   F2        1.0  0.3309774100780487  0.6856496930122375  0.3616199195384979  1.0000
  F   F3        1.0  0.9831886887550354  0.4078354239463806  0.6759917140007019  1.0000
  K   K1        1.0  0.4521840214729309  0.44150030612945557  0.3850353956222534  1.0000
  Mn  Mn1       1.0  0.4378691613674164  0.5193697810173035  0.33992937207221985  1.0000
  Mn  Mn2       1.0  0.49613678455352783  0.6218953132629395  0.749556303024292  1.0000
  Mn  Mn3       1.0  0.8891060948371887  0.024572154507040977  0.20462705194950104  1.0000
  Mn  Mn4       1.0  0.32673949003219604  0.04037933796644211  0.1340683102607727  1.0000
  Mn  Mn5       1.0  0.9865894317626953  0.6081283092498779  0.033279575407505035  1.0000
