data_image0
_chemical_formula_structural       B2Ce3Fe5
_chemical_formula_sum              "B2 Ce3 Fe5"
_cell_length_a       5.040945059266028
_cell_length_b       6.326026566495715
_cell_length_c       6.109886646270752
_cell_angle_alpha    78.40581847461193
_cell_angle_beta     67.22738160612872
_cell_angle_gamma    70.5122705585681

_space_group_name_H-M_alt    "P 1"
_space_group_IT_number       1

loop_
  _space_group_symop_operation_xyz
  'x, y, z'

loop_
  _atom_site_type_symbol
  _atom_site_label
  _atom_site_symmetry_multiplicity
  _atom_site_fract_x
  _atom_site_fract_y
  _atom_site_fract_z
  _atom_site_occupancy
  B   B1        1.0  0.12772367894649506  0.4099525511264801  0.9032860994338989  1.0000
  B   B2        1.0  0.5453365445137024  0.3715157210826874  0.15939383208751678  1.0000
  Ce  Ce1       1.0  0.5636370778083801  0.470956414937973  0.6784699559211731  1.0000
  Ce  Ce2       1.0  0.5544728636741638  0.3348115384578705  0.6306899785995483  1.0000
  Ce  Ce3       1.0  0.03638950735330582  0.32466790080070496  0.17740453779697418  1.0000
  Fe  Fe1       1.0  0.7046652436256409  0.09496838599443436  0.16578561067581177  1.0000
  Fe  Fe2       1.0  0.6649150252342224  0.8496173620223999  0.15683236718177795  1.0000
  Fe  Fe3       1.0  0.2800132632255554  0.837619423866272  0.7387242913246155  1.0000
  Fe  Fe4       1.0  0.911835253238678  0.4337835907936096  0.5891546010971069  1.0000
  Fe  Fe5       1.0  0.21745705604553223  0.10784650593996048  0.09863986819982529  1.0000
