data_image0
_chemical_formula_structural       B2Ce3Fe5
_chemical_formula_sum              "B2 Ce3 Fe5"
_cell_length_a       4.399655717122826
_cell_length_b       5.851073656741922
_cell_length_c       6.806058406829834
_cell_angle_alpha    77.19727762257136
_cell_angle_beta     70.06187937184251
_cell_angle_gamma    70.49391429609545

_space_group_name_H-M_alt    "P 1"
_space_group_IT_number       1

loop_
  _space_group_symop_operation_xyz
  'x, y, z'

loop_
  _atom_site_type_symbol
  _atom_site_label
  _atom_site_symmetry_multiplicity
  _atom_site_fract_x
  _atom_site_fract_y
  _atom_site_fract_z
  _atom_site_occupancy
  B   B1        1.0  0.042661894112825394  0.8119176626205444  0.1178169921040535  1.0000
  B   B2        1.0  0.3560177683830261  0.8437044620513916  0.48503702878952026  1.0000
  Ce  Ce1       1.0  0.6556779146194458  0.28863751888275146  0.10688000917434692  1.0000
  Ce  Ce2       1.0  0.25679513812065125  0.3244595527648926  0.567206621170044  1.0000
  Ce  Ce3       1.0  0.6749861836433411  0.019055532291531563  0.3338060975074768  1.0000
  Fe  Fe1       1.0  0.13141490519046783  0.0303344689309597  0.7886345982551575  1.0000
  Fe  Fe2       1.0  0.8132244944572449  0.8400426506996155  0.549613893032074  1.0000
  Fe  Fe3       1.0  0.6265214085578918  0.5297403931617737  0.40227171778678894  1.0000
  Fe  Fe4       1.0  0.6882243156433105  0.3833378255367279  0.5997953414916992  1.0000
  Fe  Fe5       1.0  0.07774278521537781  0.2875758707523346  0.5451831817626953  1.0000
