data_image0
_chemical_formula_structural       B4Ce2Fe3Mn
_chemical_formula_sum              "B4 Ce2 Fe3 Mn1"
_cell_length_a       3.9886932254305183
_cell_length_b       5.253459077365403
_cell_length_c       8.774970054626465
_cell_angle_alpha    104.23054123087708
_cell_angle_beta     93.36229229966108
_cell_angle_gamma    92.01162877922114

_space_group_name_H-M_alt    "P 1"
_space_group_IT_number       1

loop_
  _space_group_symop_operation_xyz
  'x, y, z'

loop_
  _atom_site_type_symbol
  _atom_site_label
  _atom_site_symmetry_multiplicity
  _atom_site_fract_x
  _atom_site_fract_y
  _atom_site_fract_z
  _atom_site_occupancy
  B   B1        1.0  0.7447310090065002  0.21911056339740753  0.7498586773872375  1.0000
  B   B2        1.0  0.24801628291606903  0.11373883485794067  0.29942283034324646  1.0000
  B   B3        1.0  0.40327051281929016  0.9753217697143555  0.7584518194198607  1.0000
  B   B4        1.0  0.7502660155296326  0.6189764142036438  0.05123339220881462  1.0000
  Ce  Ce1       1.0  0.20647117495536804  0.5714030265808105  0.5824574828147888  1.0000
  Ce  Ce2       1.0  0.7574478387832642  0.5553416609764099  0.1581587940454483  1.0000
  Fe  Fe1       1.0  0.25533172488212585  0.043559033423662186  0.9032388925552368  1.0000
  Fe  Fe2       1.0  0.7756549119949341  0.0247467290610075  0.5863455533981322  1.0000
  Fe  Fe3       1.0  0.2560169994831085  0.5408604741096497  0.5437847375869751  1.0000
  Mn  Mn1       1.0  0.824574887752533  0.29813411831855774  0.24359674751758575  1.0000
