data_image0
_chemical_formula_structural       BaGdPVY2
_chemical_formula_sum              "Ba1 Gd1 P1 V1 Y2"
_cell_length_a       3.8676293791534033
_cell_length_b       4.448943538608306
_cell_length_c       8.196791648864746
_cell_angle_alpha    92.14381184919246
_cell_angle_beta     98.11727839321358
_cell_angle_gamma    134.29567758356094

_space_group_name_H-M_alt    "P 1"
_space_group_IT_number       1

loop_
  _space_group_symop_operation_xyz
  'x, y, z'

loop_
  _atom_site_type_symbol
  _atom_site_label
  _atom_site_symmetry_multiplicity
  _atom_site_fract_x
  _atom_site_fract_y
  _atom_site_fract_z
  _atom_site_occupancy
  Ba  Ba1       1.0  0.6640612483024597  0.4382137358188629  0.41431930661201477  1.0000
  Gd  Gd1       1.0  0.054412368685007095  0.8006040453910828  0.27215129137039185  1.0000
  P   P1        1.0  0.6734532713890076  0.4318142831325531  0.9116600751876831  1.0000
  V   V1        1.0  0.10105746984481812  0.9898117780685425  0.41444554924964905  1.0000
  Y   Y1        1.0  0.3435710668563843  0.901272714138031  0.4383600950241089  1.0000
  Y   Y2        1.0  0.1093030720949173  0.4234102964401245  0.14288108050823212  1.0000
