data_image0
_chemical_formula_structural       NiP2PdPrY
_chemical_formula_sum              "Ni1 P2 Pd1 Pr1 Y1"
_cell_length_a       4.495964702459067
_cell_length_b       5.9302679587428075
_cell_length_c       6.294659614562988
_cell_angle_alpha    63.20816080769549
_cell_angle_beta     65.71501403188425
_cell_angle_gamma    67.55275656930348

_space_group_name_H-M_alt    "P 1"
_space_group_IT_number       1

loop_
  _space_group_symop_operation_xyz
  'x, y, z'

loop_
  _atom_site_type_symbol
  _atom_site_label
  _atom_site_symmetry_multiplicity
  _atom_site_fract_x
  _atom_site_fract_y
  _atom_site_fract_z
  _atom_site_occupancy
  Ni  Ni1       1.0  0.7745569944381714  0.8214176893234253  0.9910125732421875  1.0000
  P   P1        1.0  0.9635476469993591  0.32535845041275024  0.8220628499984741  1.0000
  P   P2        1.0  0.11202864348888397  0.5708972811698914  0.09238497912883759  1.0000
  Pd  Pd1       1.0  0.4102473258972168  0.326986700296402  0.7944011092185974  1.0000
  Pr  Pr1       1.0  0.8130789995193481  0.08821781724691391  0.43628010153770447  1.0000
  Y   Y1        1.0  0.43809622526168823  0.8771260380744934  0.765403151512146  1.0000
