data_image0
_chemical_formula_structural       FNiPdScY2
_chemical_formula_sum              "F1 Ni1 Pd1 Sc1 Y2"
_cell_length_a       3.519231934811287
_cell_length_b       4.501991478495842
_cell_length_c       6.290769577026367
_cell_angle_alpha    111.28388776098768
_cell_angle_beta     90.90679166710747
_cell_angle_gamma    94.62260412370776

_space_group_name_H-M_alt    "P 1"
_space_group_IT_number       1

loop_
  _space_group_symop_operation_xyz
  'x, y, z'

loop_
  _atom_site_type_symbol
  _atom_site_label
  _atom_site_symmetry_multiplicity
  _atom_site_fract_x
  _atom_site_fract_y
  _atom_site_fract_z
  _atom_site_occupancy
  F   F1        1.0  0.727388560771942  0.9618392586708069  0.978886067867279  1.0000
  Ni  Ni1       1.0  0.20567117631435392  0.7583240270614624  0.06617471575737  1.0000
  Pd  Pd1       1.0  0.23808024823665616  0.9902432560920715  0.956529438495636  1.0000
  Sc  Sc1       1.0  0.7392178177833556  0.9857640266418457  0.8198292851448059  1.0000
  Y   Y1        1.0  0.18943396210670468  0.36018726229667664  0.7219119071960449  1.0000
  Y   Y2        1.0  0.6868134737014769  0.28362998366355896  0.8218700885772705  1.0000
