data_image0
_chemical_formula_structural       AsGaIK2LuMoNNiPbSbSeZn2
_chemical_formula_sum              "As1 Ga1 I1 K2 Lu1 Mo1 N1 Ni1 Pb1 Sb1 Se1 Zn2"
_cell_length_a       6.0060081954881746
_cell_length_b       5.435911720091144
_cell_length_c       6.745580196380615
_cell_angle_alpha    143.99412914930147
_cell_angle_beta     93.53653916876603
_cell_angle_gamma    88.00790370189088

_space_group_name_H-M_alt    "P 1"
_space_group_IT_number       1

loop_
  _space_group_symop_operation_xyz
  'x, y, z'

loop_
  _atom_site_type_symbol
  _atom_site_label
  _atom_site_symmetry_multiplicity
  _atom_site_fract_x
  _atom_site_fract_y
  _atom_site_fract_z
  _atom_site_occupancy
  As  As1       1.0  0.1874619871377945  0.8157146573066711  0.07309520989656439  1.0000
  Ga  Ga1       1.0  0.7239922285079956  0.981504440307617  0.008083054795861045  1.0000
  I   I1        1.0  0.0993318259716034  0.08817324042320249  0.17427001893520352  1.0000
  K   K1        1.0  0.6372312903404236  0.5604834556579589  0.6678048372268676  1.0000
  K   K2        1.0  0.10606443136930466  0.7032617926597596  0.7632399797439575  1.0000
  Lu  Lu1       1.0  0.7202733755111694  0.7471712827682495  0.16184118390083302  1.0000
  Mo  Mo1       1.0  0.22078362107276917  0.6295458674430846  0.7768012881278991  1.0000
  N   N1        1.0  0.17011064291000366  0.657981038093567  0.7860123515129089  1.0000
  Ni  Ni1       1.0  0.638594388961792  0.05330720543861399  0.9695006012916565  1.0000
  Pb  Pb1       1.0  0.1149483397603035  0.718605816364288  0.8988638520240781  1.0000
  Sb  Sb1       1.0  0.7321015000343323  0.3187429010868072  0.26860404014587397  1.0000
  Se  Se1       1.0  0.14415299892425537  0.21403838694095612  0.4475412964820862  1.0000
  Zn  Zn1       1.0  0.6231176257133484  0.9029660224914551  0.00881500355899325  1.0000
  Zn  Zn2       1.0  0.6145246624946594  0.36081653833389277  0.19215033948421475  1.0000
