data_image0
_chemical_formula_structural       Au2CoCuIKNpPb2Se2UV2
_chemical_formula_sum              "Au2 Co1 Cu1 I1 K1 Np1 Pb2 Se2 U1 V2"
_cell_length_a       6.444483233892216
_cell_length_b       7.174340545492139
_cell_length_c       8.573295593261719
_cell_angle_alpha    116.93257090906864
_cell_angle_beta     91.55840152811382
_cell_angle_gamma    90.36484714695445

_space_group_name_H-M_alt    "P 1"
_space_group_IT_number       1

loop_
  _space_group_symop_operation_xyz
  'x, y, z'

loop_
  _atom_site_type_symbol
  _atom_site_label
  _atom_site_symmetry_multiplicity
  _atom_site_fract_x
  _atom_site_fract_y
  _atom_site_fract_z
  _atom_site_occupancy
  Au  Au1       1.0  0.561385452747345  0.3107339143753052  0.025380609557032585  1.0000
  Au  Au2       1.0  0.06096035987138748  0.489355057477951  0.4520554840564728  1.0000
  Co  Co1       1.0  0.5587077140808105  0.6944451332092285  0.03973015397787089  1.0000
  Cu  Cu1       1.0  0.5591515898704529  0.005966321099549532  0.42200616002082825  1.0000
  I   I1        1.0  0.059196457266807556  0.47001814842224116  0.5289857983589172  1.0000
  K   K1        1.0  0.0624130517244339  0.11941576004028319  0.5714535713195801  1.0000
  Np  Np1       1.0  0.5668708086013794  0.4097275733947754  0.7165939211845398  1.0000
  Pb  Pb1       1.0  0.5570749044418335  0.7701624631881714  0.7547110915184021  1.0000
  Pb  Pb2       1.0  0.573345959186554  0.9224809408187865  0.1847038865089416  1.0000
  Se  Se1       1.0  0.05756894499063492  0.03520524874329567  0.6647855043411255  1.0000
  Se  Se2       1.0  0.0606343038380146  0.9646505117416381  0.8163542747497559  1.0000
  U   U1        1.0  0.06009821221232414  0.01562424376606941  0.7654293179512024  1.0000
  V   V1        1.0  0.060692351311445236  0.5435312986373901  0.5688825845718384  1.0000
  V   V2        1.0  0.562961220741272  0.3596733808517456  0.25111863017082214  1.0000
