data_image0
_chemical_formula_structural       AsAuCoCsDyGeI3KPSe2V
_chemical_formula_sum              "As1 Au1 Co1 Cs1 Dy1 Ge1 I3 K1 P1 Se2 V1"
_cell_length_a       7.697851549349304
_cell_length_b       8.10845757467978
_cell_length_c       8.278220176696777
_cell_angle_alpha    112.13854161398895
_cell_angle_beta     99.45455148657142
_cell_angle_gamma    103.30962532238314

_space_group_name_H-M_alt    "P 1"
_space_group_IT_number       1

loop_
  _space_group_symop_operation_xyz
  'x, y, z'

loop_
  _atom_site_type_symbol
  _atom_site_label
  _atom_site_symmetry_multiplicity
  _atom_site_fract_x
  _atom_site_fract_y
  _atom_site_fract_z
  _atom_site_occupancy
  As  As1       1.0  0.3689939081668854  0.8658137321472168  0.12726682424545288  1.0000
  Au  Au1       1.0  0.2787036895751953  0.566516101360321  0.6162644624710083  1.0000
  Co  Co1       1.0  0.8875628709793091  0.04822232574224472  0.2667570412158966  1.0000
  Cs  Cs1       1.0  0.377419114112854  0.0978279560804367  0.6449606418609619  1.0000
  Dy  Dy1       1.0  0.24982492625713348  0.6336806416511536  0.448035329580307  1.0000
  Ge  Ge1       1.0  0.3939041197299957  0.2980991303920746  0.23375234007835388  1.0000
  I   I1        1.0  0.8758474588394165  0.5331630706787109  0.8844027519226074  1.0000
  I   I2        1.0  0.7390299439430237  0.4638129472732544  0.4535425901412964  1.0000
  I   I3        1.0  0.7332983016967773  0.9657688140869141  0.10672292858362198  1.0000
  K   K1        1.0  0.7624402642250061  0.013593298383057117  0.051592569798231125  1.0000
  P   P1        1.0  0.852910041809082  0.6447227597236633  0.11625364422798157  1.0000
  Se  Se1       1.0  0.12418656796216965  0.24998629093170166  0.538355827331543  1.0000
  Se  Se2       1.0  0.3881002366542816  0.4215497374534607  0.8564459681510925  1.0000
  V   V1        1.0  0.8850132822990417  0.5522131323814392  0.4276590347290039  1.0000
