data_image0
_chemical_formula_structural       AuCoCu2KNb2Se7
_chemical_formula_sum              "Au1 Co1 Cu2 K1 Nb2 Se7"
_cell_length_a       5.973717925302467
_cell_length_b       5.999781863033884
_cell_length_c       11.288172721862793
_cell_angle_alpha    99.52767278644454
_cell_angle_beta     90.73667716186776
_cell_angle_gamma    111.47826420096713

_space_group_name_H-M_alt    "P 1"
_space_group_IT_number       1

loop_
  _space_group_symop_operation_xyz
  'x, y, z'

loop_
  _atom_site_type_symbol
  _atom_site_label
  _atom_site_symmetry_multiplicity
  _atom_site_fract_x
  _atom_site_fract_y
  _atom_site_fract_z
  _atom_site_occupancy
  Au  Au1       1.0  0.6981372237205505  0.5153689980506897  0.44339233636856074  1.0000
  Co  Co1       1.0  0.7740562558174133  0.7950270771980286  0.8336782455444336  1.0000
  Cu  Cu1       1.0  0.4897207021713257  0.3212898373603821  0.7896165251731871  1.0000
  Cu  Cu2       1.0  0.7428815364837646  0.2495221048593521  0.9039984345436096  1.0000
  K   K1        1.0  0.7787805795669556  0.24894216656684875  0.6166135668754578  1.0000
  Nb  Nb1       1.0  0.7610267400741577  0.4207707643508911  0.7560124397277831  1.0000
  Nb  Nb2       1.0  0.2582045793533325  0.9515092968940735  0.15028950572013855  1.0000
  Se  Se1       1.0  0.25094375014305115  0.013622868806123734  0.46283042430877686  1.0000
  Se  Se2       1.0  0.7306608557701111  0.4647391736507416  0.05301037430763244  1.0000
  Se  Se3       1.0  0.2648029625415802  0.4594933092594147  0.3368646800518036  1.0000
  Se  Se4       1.0  0.2717495560646057  0.3733552098274231  0.21621739864349365  1.0000
  Se  Se5       1.0  0.7602416276931763  0.3147898316383362  0.570034921169281  1.0000
  Se  Se6       1.0  0.23927107453346252  0.8010517954826355  0.024215467274188995  1.0000
  Se  Se7       1.0  0.1976952999830246  0.9898146390914917  0.4391172528266907  1.0000
