data_image0
_chemical_formula_structural       CoIK3LuNbNiPb4PtSe
_chemical_formula_sum              "Co1 I1 K3 Lu1 Nb1 Ni1 Pb4 Pt1 Se1"
_cell_length_a       6.465648567329241
_cell_length_b       6.795531175098128
_cell_length_c       9.200765609741211
_cell_angle_alpha    86.32234094146092
_cell_angle_beta     71.79470465338301
_cell_angle_gamma    62.57781576163266

_space_group_name_H-M_alt    "P 1"
_space_group_IT_number       1

loop_
  _space_group_symop_operation_xyz
  'x, y, z'

loop_
  _atom_site_type_symbol
  _atom_site_label
  _atom_site_symmetry_multiplicity
  _atom_site_fract_x
  _atom_site_fract_y
  _atom_site_fract_z
  _atom_site_occupancy
  Co  Co1       1.0  0.13409809768199915  0.7930341362953187  0.33092740178108215  1.0000
  I   I1        1.0  0.13053637742996216  0.06285237520933151  0.4613626301288604  1.0000
  K   K1        1.0  0.7940747141838074  0.4044718146324158  0.1908072829246521  1.0000
  K   K2        1.0  0.7911295890808105  0.6761587262153627  0.29628461599349976  1.0000
  K   K3        1.0  0.7920001745223999  0.713771164417267  0.7381219267845154  1.0000
  Lu  Lu1       1.0  0.7712973952293396  0.1784443110227585  0.011413512751460051  1.0000
  Nb  Nb1       1.0  0.7956994771957397  0.5828772783279419  0.8422625660896301  1.0000
  Ni  Ni1       1.0  0.24660354852676392  0.20383678376674655  0.04461299255490303  1.0000
  Pb  Pb1       1.0  0.21445232629776  0.5596799254417419  0.19061267375946045  1.0000
  Pb  Pb2       1.0  0.7976157665252686  0.3235291540622711  0.886993944644928  1.0000
  Pb  Pb3       1.0  0.6863080263137817  0.7650126218795777  0.09219664335250854  1.0000
  Pb  Pb4       1.0  0.11582836508750914  0.24248215556144717  0.7153065800666809  1.0000
  Pt  Pt1       1.0  0.27862885594367975  0.9679997563362123  0.9609743952751159  1.0000
  Se  Se1       1.0  0.19878412783145905  0.30287402868270874  0.1998872458934784  1.0000
