data_image0
_chemical_formula_structural       AuCaCu3Nb4Se5
_chemical_formula_sum              "Au1 Ca1 Cu3 Nb4 Se5"
_cell_length_a       5.677911072323635
_cell_length_b       6.243945555300889
_cell_length_c       9.647435188293457
_cell_angle_alpha    101.2683697398642
_cell_angle_beta     91.56251474507452
_cell_angle_gamma    85.35437734299099

_space_group_name_H-M_alt    "P 1"
_space_group_IT_number       1

loop_
  _space_group_symop_operation_xyz
  'x, y, z'

loop_
  _atom_site_type_symbol
  _atom_site_label
  _atom_site_symmetry_multiplicity
  _atom_site_fract_x
  _atom_site_fract_y
  _atom_site_fract_z
  _atom_site_occupancy
  Au  Au1       1.0  0.6106520295143127  0.041288118809461594  0.8415813446044922  1.0000
  Ca  Ca1       1.0  0.6582973599433899  0.6784133315086365  0.48866352438926697  1.0000
  Cu  Cu1       1.0  0.16774706542491913  0.6391235589981079  0.46600085496902466  1.0000
  Cu  Cu2       1.0  0.6788960099220276  0.6739988923072815  0.2276400327682495  1.0000
  Cu  Cu3       1.0  0.6766164302825928  0.25328120589256287  0.3496728539466858  1.0000
  Nb  Nb1       1.0  0.17105992138385773  0.6469420790672302  0.61365008354187  1.0000
  Nb  Nb2       1.0  0.6704593300819397  0.6483106017112732  0.7200449705123901  1.0000
  Nb  Nb3       1.0  0.611613929271698  0.04661336541175842  0.579498827457428  1.0000
  Nb  Nb4       1.0  0.17276382446289062  0.6483995914459229  0.8377549648284912  1.0000
  Se  Se1       1.0  0.6107832789421082  0.7861239314079285  0.3971949815750122  1.0000
  Se  Se2       1.0  0.5931642651557922  0.2763440012931824  0.5379104018211365  1.0000
  Se  Se3       1.0  0.05878273397684097  0.48742130398750305  0.5122328996658325  1.0000
  Se  Se4       1.0  0.10195305198431015  0.21628877520561218  0.3942238390445709  1.0000
  Se  Se5       1.0  0.07011067122220993  0.3601454794406891  0.5393527746200562  1.0000
