data_image0
_chemical_formula_structural       AsErILi4VZr
_chemical_formula_sum              "As1 Er1 I1 Li4 V1 Zr1"
_cell_length_a       5.433111181353051
_cell_length_b       5.975923096478471
_cell_length_c       7.984060287475586
_cell_angle_alpha    102.38691641188673
_cell_angle_beta     100.5657289515955
_cell_angle_gamma    116.30999036674086

_space_group_name_H-M_alt    "P 1"
_space_group_IT_number       1

loop_
  _space_group_symop_operation_xyz
  'x, y, z'

loop_
  _atom_site_type_symbol
  _atom_site_label
  _atom_site_symmetry_multiplicity
  _atom_site_fract_x
  _atom_site_fract_y
  _atom_site_fract_z
  _atom_site_occupancy
  As  As1       1.0  0.4112437963485718  0.4846271872520447  0.17080144584178925  1.0000
  Er  Er1       1.0  0.351967990398407  0.30857986211776733  0.9226474165916443  1.0000
  I   I1        1.0  0.40324366092681885  0.37587589025497437  0.4224424660205841  1.0000
  Li  Li1       1.0  0.410321980714798  0.7812572121620178  0.36665377020835876  1.0000
  Li  Li2       1.0  0.09029096364974976  0.2989640533924103  0.36699843406677246  1.0000
  Li  Li3       1.0  0.08075636625289917  0.5462450385093689  0.790393590927124  1.0000
  Li  Li4       1.0  0.08326869457960129  0.10083507001399994  0.8865657448768616  1.0000
  V   V1        1.0  0.7268211245536804  0.9925482869148254  0.03879955783486366  1.0000
  Zr  Zr1       1.0  0.6751627922058105  0.6037628650665283  0.2172066569328308  1.0000
