data_image0
_chemical_formula_structural       Li5O3Pb
_chemical_formula_sum              "Li5 O3 Pb1"
_cell_length_a       4.416544590992431
_cell_length_b       3.9150674330109925
_cell_length_c       5.12221097946167
_cell_angle_alpha    110.24002096141247
_cell_angle_beta     94.30631212269971
_cell_angle_gamma    125.83109036559587

_space_group_name_H-M_alt    "P 1"
_space_group_IT_number       1

loop_
  _space_group_symop_operation_xyz
  'x, y, z'

loop_
  _atom_site_type_symbol
  _atom_site_label
  _atom_site_symmetry_multiplicity
  _atom_site_fract_x
  _atom_site_fract_y
  _atom_site_fract_z
  _atom_site_occupancy
  Li  Li1       1.0  0.2824517488479614  0.8440540432929993  0.7617944478988647  1.0000
  Li  Li2       1.0  0.8799456357955933  0.4278535544872284  0.3839421272277832  1.0000
  Li  Li3       1.0  0.24501721560955048  0.5632036328315735  0.6680415868759155  1.0000
  Li  Li4       1.0  0.4580061733722687  0.9935540556907654  0.03527316451072693  1.0000
  Li  Li5       1.0  0.8836018443107605  0.8455164432525635  0.8565688729286194  1.0000
  O   O1        1.0  0.7785603404045105  0.3032454252243042  0.09162476658821106  1.0000
  O   O2        1.0  0.24607588350772858  0.5335653424263  0.09216929972171783  1.0000
  O   O3        1.0  0.28429290652275085  0.20906008780002594  0.6222591996192932  1.0000
  Pb  Pb1       1.0  0.5682666897773743  0.2831197679042816  0.624512791633606  1.0000
