data_image0
_chemical_formula_structural       BLi5O3
_chemical_formula_sum              "B1 Li5 O3"
_cell_length_a       4.528664402532569
_cell_length_b       4.372496191356941
_cell_length_c       3.9433999061584473
_cell_angle_alpha    116.13362561965799
_cell_angle_beta     123.11931049532757
_cell_angle_gamma    96.9590998377476

_space_group_name_H-M_alt    "P 1"
_space_group_IT_number       1

loop_
  _space_group_symop_operation_xyz
  'x, y, z'

loop_
  _atom_site_type_symbol
  _atom_site_label
  _atom_site_symmetry_multiplicity
  _atom_site_fract_x
  _atom_site_fract_y
  _atom_site_fract_z
  _atom_site_occupancy
  B   B1        1.0  0.8950017094612122  0.8459686040878296  0.18807083368301392  1.0000
  Li  Li1       1.0  0.356205552816391  0.01972753368318081  0.3320901095867157  1.0000
  Li  Li2       1.0  0.8498101234436035  0.40833744406700134  0.43730828166007996  1.0000
  Li  Li3       1.0  0.3969537615776062  0.8243181109428406  0.7077186703681946  1.0000
  Li  Li4       1.0  0.35320350527763367  0.2734867334365845  0.25051987171173096  1.0000
  Li  Li5       1.0  0.8348584771156311  0.4833443760871888  0.9506363868713379  1.0000
  O   O1        1.0  0.3598693907260895  0.04890505596995354  0.3262425363063812  1.0000
  O   O2        1.0  0.7786365151405334  0.460253655910492  0.517162024974823  1.0000
  O   O3        1.0  0.8129932880401611  0.9348815083503724  0.9592215418815613  1.0000
