data_image0
_chemical_formula_structural       BLi6O2
_chemical_formula_sum              "B1 Li6 O2"
_cell_length_a       4.970924311191272
_cell_length_b       4.696501141074308
_cell_length_c       5.261038780212402
_cell_angle_alpha    94.92042457595728
_cell_angle_beta     97.66734765048186
_cell_angle_gamma    107.39734492054735

_space_group_name_H-M_alt    "P 1"
_space_group_IT_number       1

loop_
  _space_group_symop_operation_xyz
  'x, y, z'

loop_
  _atom_site_type_symbol
  _atom_site_label
  _atom_site_symmetry_multiplicity
  _atom_site_fract_x
  _atom_site_fract_y
  _atom_site_fract_z
  _atom_site_occupancy
  B   B1        1.0  0.04692182317376137  0.844885528087616  0.7472624778747559  1.0000
  Li  Li1       1.0  0.11485350877046585  0.2115575671195984  0.12653779983520508  1.0000
  Li  Li2       1.0  0.6864476203918457  0.6011842489242554  0.15055102109909058  1.0000
  Li  Li3       1.0  0.43230685591697693  0.8278023600578308  0.24198728799819944  1.0000
  Li  Li4       1.0  0.6513465642929077  0.45865434408187866  0.9876432418823241  1.0000
  Li  Li5       1.0  0.5877974033355713  0.7051478028297424  0.6187559366226196  1.0000
  Li  Li6       1.0  0.12834809720516205  0.23109504580497742  0.008275081403553486  1.0000
  O   O1        1.0  0.6201547384262085  0.20420455932617188  0.028798401355743405  1.0000
  O   O2        1.0  0.07348093390464783  0.7340619564056396  0.03428279235959053  1.0000
