data_image0
_chemical_formula_structural       FHf3O4Pt3Zr
_chemical_formula_sum              "F1 Hf3 O4 Pt3 Zr1"
_cell_length_a       4.150113139991204
_cell_length_b       4.837821221525763
_cell_length_c       10.70763111114502
_cell_angle_alpha    89.90901750361314
_cell_angle_beta     89.53383007934386
_cell_angle_gamma    90.73550020949233

_space_group_name_H-M_alt    "P 1"
_space_group_IT_number       1

loop_
  _space_group_symop_operation_xyz
  'x, y, z'

loop_
  _atom_site_type_symbol
  _atom_site_label
  _atom_site_symmetry_multiplicity
  _atom_site_fract_x
  _atom_site_fract_y
  _atom_site_fract_z
  _atom_site_occupancy
  F   F1        1.0  0.11049660295248032  0.5002501010894775  0.9915682077407838  1.0000
  Hf  Hf1       1.0  0.9840444326400758  0.2572343945503235  0.1721394956111908  1.0000
  Hf  Hf2       1.0  0.49204844236373907  0.7523914575576782  0.7010688185691833  1.0000
  Hf  Hf3       1.0  0.4927877485752106  0.7417570352554321  0.6247115135192871  1.0000
  O   O1        1.0  0.46458297967910767  0.27429190278053284  0.6708433032035828  1.0000
  O   O2        1.0  0.0010724144522100687  0.76333087682724  0.4387218058109284  1.0000
  O   O3        1.0  0.4760940372943878  0.9331676363945006  0.16959083080291748  1.0000
  O   O4        1.0  0.9542444348335266  0.2637716829776764  0.2955949902534485  1.0000
  Pt  Pt1       1.0  0.9965953826904298  0.016240110620856285  0.5350152850151062  1.0000
  Pt  Pt2       1.0  0.4797275960445404  0.5109705924987793  0.18997438251972198  1.0000
  Pt  Pt3       1.0  0.4796163737773895  0.9395882487297057  0.6716868281364441  1.0000
  Zr  Zr1       1.0  0.987167775630951  0.5051381587982178  0.1772097945213318  1.0000
