data_image0
_chemical_formula_structural       GeHf2O4Pt4Zr
_chemical_formula_sum              "Ge1 Hf2 O4 Pt4 Zr1"
_cell_length_a       4.374676374439569
_cell_length_b       4.4385051432176885
_cell_length_c       9.977278709411621
_cell_angle_alpha    102.06951657101173
_cell_angle_beta     92.1050641836503
_cell_angle_gamma    89.94764564881275

_space_group_name_H-M_alt    "P 1"
_space_group_IT_number       1

loop_
  _space_group_symop_operation_xyz
  'x, y, z'

loop_
  _atom_site_type_symbol
  _atom_site_label
  _atom_site_symmetry_multiplicity
  _atom_site_fract_x
  _atom_site_fract_y
  _atom_site_fract_z
  _atom_site_occupancy
  Ge  Ge1       1.0  0.619591236114502  0.10378149896860123  0.9304789900779724  1.0000
  Hf  Hf1       1.0  0.9857445955276489  0.2992428243160248  0.8262885212898254  1.0000
  Hf  Hf2       1.0  0.747300922870636  0.8166066408157349  0.35345709323883057  1.0000
  O   O1        1.0  0.8778079748153687  0.1468898057937622  0.654471755027771  1.0000
  O   O2        1.0  0.021131571382284164  0.6439334154129028  0.15430626273155212  1.0000
  O   O3        1.0  0.34909960627555847  0.14727430045604706  0.5994848012924194  1.0000
  O   O4        1.0  0.9861413836479187  0.782306969165802  0.9153568148612978  1.0000
  Pt  Pt1       1.0  0.5011659860610962  0.642920196056366  0.6336755156517029  1.0000
  Pt  Pt2       1.0  0.5190155506134033  0.2886454463005066  0.9370433688163758  1.0000
  Pt  Pt3       1.0  0.6474722027778625  0.022646978497505188  0.13899289071559906  1.0000
  Pt  Pt4       1.0  0.481086790561676  0.6393119096755981  0.830454409122467  1.0000
  Zr  Zr1       1.0  0.24464116990566254  0.8365188241004944  0.641524612903595  1.0000
