data_image0
_chemical_formula_structural       CuHf2LuO3Pt3ScSn
_chemical_formula_sum              "Cu1 Hf2 Lu1 O3 Pt3 Sc1 Sn1"
_cell_length_a       4.661362544413166
_cell_length_b       5.119240986987197
_cell_length_c       9.362208366394043
_cell_angle_alpha    108.96888841752569
_cell_angle_beta     89.76997127611187
_cell_angle_gamma    87.69599362731782

_space_group_name_H-M_alt    "P 1"
_space_group_IT_number       1

loop_
  _space_group_symop_operation_xyz
  'x, y, z'

loop_
  _atom_site_type_symbol
  _atom_site_label
  _atom_site_symmetry_multiplicity
  _atom_site_fract_x
  _atom_site_fract_y
  _atom_site_fract_z
  _atom_site_occupancy
  Cu  Cu1       1.0  0.955122411251068  0.87273108959198  0.563908040523529  1.0000
  Hf  Hf1       1.0  0.4025270342826843  0.885305643081665  0.07593648135662079  1.0000
  Hf  Hf2       1.0  0.44795578718185425  0.3561915159225464  0.35111698508262634  1.0000
  Lu  Lu1       1.0  0.4270399212837219  0.3818311095237732  0.7608665227890015  1.0000
  O   O1        1.0  0.6993733644485474  0.5518277287483215  0.5887883901596069  1.0000
  O   O2        1.0  0.9089488983154297  0.8991137146949768  0.1988912671804428  1.0000
  O   O3        1.0  0.4395841658115387  0.9015516042709351  0.5550530552864075  1.0000
  Pt  Pt1       1.0  0.1300099790096283  0.3998020887374878  0.44530442357063293  1.0000
  Pt  Pt2       1.0  0.41150346398353577  0.8943130373954773  0.7406721115112305  1.0000
  Pt  Pt3       1.0  0.9104577898979187  0.41194796562194824  0.1630443036556244  1.0000
  Sc  Sc1       1.0  0.8734787702560425  0.3707376718521118  0.8589265942573547  1.0000
  Sn  Sn1       1.0  0.15813520550727844  0.2809103727340698  0.04327179864048958  1.0000
