data_image0
_chemical_formula_structural       CoCrF2Ga2HfPt5
_chemical_formula_sum              "Co1 Cr1 F2 Ga2 Hf1 Pt5"
_cell_length_a       4.648718199528042
_cell_length_b       6.149783594888094
_cell_length_c       7.784746170043945
_cell_angle_alpha    119.15929307271882
_cell_angle_beta     91.41685056796221
_cell_angle_gamma    89.13402817052172

_space_group_name_H-M_alt    "P 1"
_space_group_IT_number       1

loop_
  _space_group_symop_operation_xyz
  'x, y, z'

loop_
  _atom_site_type_symbol
  _atom_site_label
  _atom_site_symmetry_multiplicity
  _atom_site_fract_x
  _atom_site_fract_y
  _atom_site_fract_z
  _atom_site_occupancy
  Co  Co1       1.0  0.31537556648254395  0.08109704405069351  0.6701484322547914  1.0000
  Cr  Cr1       1.0  0.35420873761177063  0.8690005540847778  0.3959413170814514  1.0000
  F   F1        1.0  0.8100236058235168  0.7824066281318665  0.3624071776866913  1.0000
  F   F2        1.0  0.5546604990959167  0.1488957405090332  0.19906711578369143  1.0000
  Ga  Ga1       1.0  0.57513028383255  0.1466919630765915  0.008529230952262865  1.0000
  Ga  Ga2       1.0  0.10394811630249023  0.7826289534568787  0.3938291370868683  1.0000
  Hf  Hf1       1.0  0.10034454613924026  0.570047914981842  0.8688810467720033  1.0000
  Pt  Pt1       1.0  0.597736656665802  0.438805490732193  0.36841812729835516  1.0000
  Pt  Pt2       1.0  0.09534578770399094  0.48973625898361206  0.6475934386253358  1.0000
  Pt  Pt3       1.0  0.5976577997207642  0.4993777275085449  0.828748643398285  1.0000
  Pt  Pt4       1.0  0.6004703044891357  0.30276432633399963  0.07490412890911102  1.0000
  Pt  Pt5       1.0  0.0898645669221878  0.5163336992263794  0.4197522103786469  1.0000
