data_image0
_chemical_formula_structural       CaCuF2GaHf2LuPt4
_chemical_formula_sum              "Ca1 Cu1 F2 Ga1 Hf2 Lu1 Pt4"
_cell_length_a       4.539888224093952
_cell_length_b       6.124818318906662
_cell_length_c       7.483092784881592
_cell_angle_alpha    118.32556725867357
_cell_angle_beta     90.3286942727377
_cell_angle_gamma    88.69348035350377

_space_group_name_H-M_alt    "P 1"
_space_group_IT_number       1

loop_
  _space_group_symop_operation_xyz
  'x, y, z'

loop_
  _atom_site_type_symbol
  _atom_site_label
  _atom_site_symmetry_multiplicity
  _atom_site_fract_x
  _atom_site_fract_y
  _atom_site_fract_z
  _atom_site_occupancy
  Ca  Ca1       1.0  0.23738934099674225  0.02544434368610382  0.2429259121417999  1.0000
  Cu  Cu1       1.0  0.23489199578762054  0.39014989137649536  0.5825136303901672  1.0000
  F   F1        1.0  0.7360562682151794  0.5492129921913147  0.09079014509916301  1.0000
  F   F2        1.0  0.7329432964324951  0.5735728144645691  0.8254604935646056  1.0000
  Ga  Ga1       1.0  0.7329959273338318  0.8955403566360474  0.8553819656372069  1.0000
  Hf  Hf1       1.0  0.23370859026908875  0.9936261773109436  0.9320911169052123  1.0000
  Hf  Hf2       1.0  0.7349205017089844  0.5913393497467041  0.8663330674171447  1.0000
  Lu  Lu1       1.0  0.7370359897613525  0.059699736535549164  0.14286382496356964  1.0000
  Pt  Pt1       1.0  0.23583097755908966  0.5409126281738281  0.4790580868721007  1.0000
  Pt  Pt2       1.0  0.7322933673858643  0.398580402135849  0.3633014857769012  1.0000
  Pt  Pt3       1.0  0.7353869676589966  0.061456214636564255  0.8690057396888731  1.0000
  Pt  Pt4       1.0  0.2350984364748001  0.2591730058193207  0.7732453942298888  1.0000
