data_image0
_chemical_formula_structural       FHf3LuNiO3Pt3
_chemical_formula_sum              "F1 Hf3 Lu1 Ni1 O3 Pt3"
_cell_length_a       4.545401799054509
_cell_length_b       5.085138402359588
_cell_length_c       7.720904350280762
_cell_angle_alpha    112.49556846963137
_cell_angle_beta     92.3633980988073
_cell_angle_gamma    88.55001389219775

_space_group_name_H-M_alt    "P 1"
_space_group_IT_number       1

loop_
  _space_group_symop_operation_xyz
  'x, y, z'

loop_
  _atom_site_type_symbol
  _atom_site_label
  _atom_site_symmetry_multiplicity
  _atom_site_fract_x
  _atom_site_fract_y
  _atom_site_fract_z
  _atom_site_occupancy
  F   F1        1.0  0.4144049286842346  0.2677300274372101  0.06199424341320991  1.0000
  Hf  Hf1       1.0  0.37780967354774475  0.21297551691532135  0.14516009390354156  1.0000
  Hf  Hf2       1.0  0.5638765096664429  0.8215826153755188  0.4711948633193969  1.0000
  Hf  Hf3       1.0  0.9149449467658997  0.02500983513891697  0.5164551734924316  1.0000
  Lu  Lu1       1.0  0.6090449690818787  0.011729906313121319  0.7554355263710022  1.0000
  Ni  Ni1       1.0  0.6073254942893982  0.9161369800567627  0.3114096522331238  1.0000
  O   O1        1.0  0.4207611382007599  0.506203293800354  0.8893088102340698  1.0000
  O   O2        1.0  0.9009848237037659  0.16837087273597717  0.06687533855438232  1.0000
  O   O3        1.0  0.940300703048706  0.5011315941810608  0.7066969275474548  1.0000
  Pt  Pt1       1.0  0.9196768403053284  0.5261309742927551  0.46843075752258295  1.0000
  Pt  Pt2       1.0  0.09244082123041153  0.8882687091827393  0.2528392970561981  1.0000
  Pt  Pt3       1.0  0.9076008796691895  0.25738203525543213  0.5580215454101562  1.0000
