data_image0
_chemical_formula_structural       IrLi4O3Si2Sr4
_chemical_formula_sum              "Ir1 Li4 O3 Si2 Sr4"
_cell_length_a       5.68697441457064
_cell_length_b       6.515747557009329
_cell_length_c       7.377199649810791
_cell_angle_alpha    89.79236098310355
_cell_angle_beta     90.16552170539157
_cell_angle_gamma    90.1635911703922

_space_group_name_H-M_alt    "P 1"
_space_group_IT_number       1

loop_
  _space_group_symop_operation_xyz
  'x, y, z'

loop_
  _atom_site_type_symbol
  _atom_site_label
  _atom_site_symmetry_multiplicity
  _atom_site_fract_x
  _atom_site_fract_y
  _atom_site_fract_z
  _atom_site_occupancy
  Ir  Ir1       1.0  0.9792717099189758  0.9859748482704161  0.6727390885353088  1.0000
  Li  Li1       1.0  0.006372922565788031  0.39877060055732727  0.9477561712265015  1.0000
  Li  Li2       1.0  0.989703357219696  0.6434971690177917  0.8231037855148315  1.0000
  Li  Li3       1.0  0.9760493636131287  0.5213660001754761  0.8873304128646851  1.0000
  Li  Li4       1.0  0.48843905329704285  0.5886930823326111  0.4698484539985657  1.0000
  O   O1        1.0  0.4701155424118042  0.35347238183021545  0.905861496925354  1.0000
  O   O2        1.0  0.499491810798645  0.1265822947025299  0.3882960081100464  1.0000
  O   O3        1.0  0.904375433921814  0.740144670009613  0.47705569863319397  1.0000
  Si  Si1       1.0  0.40702760219573975  0.32199645042419434  0.01807447150349617  1.0000
  Si  Si2       1.0  0.9887804388999939  0.5161924958229065  0.1880456507205963  1.0000
  Sr  Sr1       1.0  0.9210414886474609  0.7545018196105957  0.03006405010819435  1.0000
  Sr  Sr2       1.0  0.9641974568367004  0.5980426669120789  0.9162936210632324  1.0000
  Sr  Sr3       1.0  0.4874439239501953  0.07047422975301743  0.36214175820350647  1.0000
  Sr  Sr4       1.0  0.48176661133766174  0.5776740312576294  0.22365000844001773  1.0000
