data_image0
_chemical_formula_structural       ILi3O4RbSi2Sr3
_chemical_formula_sum              "I1 Li3 O4 Rb1 Si2 Sr3"
_cell_length_a       6.349282900731719
_cell_length_b       6.90861990471509
_cell_length_c       7.354580402374268
_cell_angle_alpha    69.01101318663525
_cell_angle_beta     69.85451981601307
_cell_angle_gamma    69.25462027918742

_space_group_name_H-M_alt    "P 1"
_space_group_IT_number       1

loop_
  _space_group_symop_operation_xyz
  'x, y, z'

loop_
  _atom_site_type_symbol
  _atom_site_label
  _atom_site_symmetry_multiplicity
  _atom_site_fract_x
  _atom_site_fract_y
  _atom_site_fract_z
  _atom_site_occupancy
  I   I1        1.0  0.1896074116230011  0.5656896233558655  0.8299812078475952  1.0000
  Li  Li1       1.0  0.40409043431282043  0.6764007210731506  0.4025319218635559  1.0000
  Li  Li2       1.0  0.6391852498054504  0.1563727855682373  0.3455103635787964  1.0000
  Li  Li3       1.0  0.2020031064748764  0.022088095545768738  0.7793673872947693  1.0000
  O   O1        1.0  0.08451604843139648  0.8226434588432312  0.1018429547548294  1.0000
  O   O2        1.0  0.4276157319545746  0.4016568958759308  0.8464486598968506  1.0000
  O   O3        1.0  0.9438033699989319  0.23701590299606323  0.5770605802536011  1.0000
  O   O4        1.0  0.047842614352703094  0.11300825327634811  0.02028268575668335  1.0000
  Rb  Rb1       1.0  0.6655667424201965  0.7288148403167725  0.8853092193603516  1.0000
  Si  Si1       1.0  0.9054787755012512  0.3634023070335388  0.868858277797699  1.0000
  Si  Si2       1.0  0.6993340253829956  0.6911548376083374  0.728539228439331  1.0000
  Sr  Sr1       1.0  0.2007303684949875  0.7584298253059387  0.5106138586997986  1.0000
  Sr  Sr2       1.0  0.9577003717422485  0.4497719407081604  0.5655325651168823  1.0000
  Sr  Sr3       1.0  0.0322505421936512  0.4712138772010803  0.035069212317466736  1.0000
