data_image0
_chemical_formula_structural       Li2O5RbScSi2Sr3
_chemical_formula_sum              "Li2 O5 Rb1 Sc1 Si2 Sr3"
_cell_length_a       6.22458637719706
_cell_length_b       6.251025218940413
_cell_length_c       6.586166858673096
_cell_angle_alpha    59.087104956112995
_cell_angle_beta     63.724681314443075
_cell_angle_gamma    60.790411176858285

_space_group_name_H-M_alt    "P 1"
_space_group_IT_number       1

loop_
  _space_group_symop_operation_xyz
  'x, y, z'

loop_
  _atom_site_type_symbol
  _atom_site_label
  _atom_site_symmetry_multiplicity
  _atom_site_fract_x
  _atom_site_fract_y
  _atom_site_fract_z
  _atom_site_occupancy
  Li  Li1       1.0  0.6290701627731323  0.5693192481994629  0.5578517317771912  1.0000
  Li  Li2       1.0  0.06562943756580353  0.33104047179222107  0.01292453147470951  1.0000
  O   O1        1.0  0.08425678312778473  0.7942007184028625  0.26325109601020813  1.0000
  O   O2        1.0  0.672562301158905  0.5233003497123718  0.8347879648208618  1.0000
  O   O3        1.0  0.03558744862675667  0.7128337621688843  0.9953284263610839  1.0000
  O   O4        1.0  0.5384530425071716  0.6970917582511902  0.053234588354825974  1.0000
  O   O5        1.0  0.13653481006622314  0.030533043667674065  0.6360343694686887  1.0000
  Rb  Rb1       1.0  0.07553666830062866  0.36130714416503906  0.7759258151054382  1.0000
  Sc  Sc1       1.0  0.13610510528087616  0.16757313907146454  0.6665698289871216  1.0000
  Si  Si1       1.0  0.5554364919662476  0.2405000925064087  0.8994854092597961  1.0000
  Si  Si2       1.0  0.05962200462818146  0.5027546882629395  0.18300327658653254  1.0000
  Sr  Sr1       1.0  0.6273494958877563  0.6028435230255127  0.7761936187744141  1.0000
  Sr  Sr2       1.0  0.6194711923599243  0.6720095872879028  0.06098614633083343  1.0000
  Sr  Sr3       1.0  0.23672345280647278  0.20141983032226562  0.6014685034751892  1.0000
