data_image0
_chemical_formula_structural       Li4O2Si4Sr4
_chemical_formula_sum              "Li4 O2 Si4 Sr4"
_cell_length_a       5.881125813348875
_cell_length_b       6.178439389665953
_cell_length_c       6.5664472579956055
_cell_angle_alpha    108.93127175397692
_cell_angle_beta     108.51590224761954
_cell_angle_gamma    103.37941046983802

_space_group_name_H-M_alt    "P 1"
_space_group_IT_number       1

loop_
  _space_group_symop_operation_xyz
  'x, y, z'

loop_
  _atom_site_type_symbol
  _atom_site_label
  _atom_site_symmetry_multiplicity
  _atom_site_fract_x
  _atom_site_fract_y
  _atom_site_fract_z
  _atom_site_occupancy
  Li  Li1       1.0  0.3759312927722931  0.07864183187484741  0.9813802242279053  1.0000
  Li  Li2       1.0  0.37634021043777466  0.854049026966095  0.9972608089447021  1.0000
  Li  Li3       1.0  0.7371927499771118  0.1984962522983551  0.28259262442588806  1.0000
  Li  Li4       1.0  0.8400657176971436  0.3551461100578308  0.5492746829986572  1.0000
  O   O1        1.0  0.8521674275398254  0.059011079370975494  0.04788244515657425  1.0000
  O   O2        1.0  0.8906401991844177  0.689887523651123  0.2549822926521301  1.0000
  Si  Si1       1.0  0.5971851944923401  0.9944220185279846  0.7385669946670532  1.0000
  Si  Si2       1.0  0.3629903197288513  0.054812099784612656  0.4259698688983917  1.0000
  Si  Si3       1.0  0.37186890840530396  0.5060635805130005  0.09371618181467059  1.0000
  Si  Si4       1.0  0.8002896308898926  0.8740098476409912  0.22697117924690247  1.0000
  Sr  Sr1       1.0  0.5963007807731628  0.9917281270027161  0.45085641741752625  1.0000
  Sr  Sr2       1.0  0.9868132472038269  0.3236426115036011  0.5258510112762451  1.0000
  Sr  Sr3       1.0  0.03537413477897644  0.24350720643997192  0.33361637592315674  1.0000
  Sr  Sr4       1.0  0.09483619779348373  0.01592154987156391  0.376822829246521  1.0000
