data_image0
_chemical_formula_structural       Li3O2Si3Sr6
_chemical_formula_sum              "Li3 O2 Si3 Sr6"
_cell_length_a       6.313449453857651
_cell_length_b       6.310231451468297
_cell_length_c       6.575936794281006
_cell_angle_alpha    109.5943737339469
_cell_angle_beta     107.24558331966071
_cell_angle_gamma    101.58633367072359

_space_group_name_H-M_alt    "P 1"
_space_group_IT_number       1

loop_
  _space_group_symop_operation_xyz
  'x, y, z'

loop_
  _atom_site_type_symbol
  _atom_site_label
  _atom_site_symmetry_multiplicity
  _atom_site_fract_x
  _atom_site_fract_y
  _atom_site_fract_z
  _atom_site_occupancy
  Li  Li1       1.0  0.24051836133003235  0.7036033272743225  0.6748923659324646  1.0000
  Li  Li2       1.0  0.7348511219024658  0.9182423949241638  0.855165421962738  1.0000
  Li  Li3       1.0  0.6110348105430603  0.5842214822769165  0.523298978805542  1.0000
  O   O1        1.0  0.9587502479553223  0.4803853929042816  0.6512176990509033  1.0000
  O   O2        1.0  0.7543489933013916  0.9720285534858704  0.3486268222332001  1.0000
  Si  Si1       1.0  0.2295210063457489  0.09104091674089432  0.14071227610111237  1.0000
  Si  Si2       1.0  0.6042911410331726  0.8984168767929077  0.32601067423820496  1.0000
  Si  Si3       1.0  0.716179370880127  0.4462011754512787  0.19661851227283478  1.0000
  Sr  Sr1       1.0  0.5938122272491455  0.8653451800346375  0.9632889032363893  1.0000
  Sr  Sr2       1.0  0.8025544881820679  0.9742045998573303  0.42862504720687866  1.0000
  Sr  Sr3       1.0  0.2266438901424408  0.16867287456989288  0.9626408815383912  1.0000
  Sr  Sr4       1.0  0.09932024776935577  0.36545243859291077  0.7695054411888123  1.0000
  Sr  Sr5       1.0  0.7181424498558044  0.5378727316856384  0.17518499493598938  1.0000
  Sr  Sr6       1.0  0.6114635467529297  0.010355420410633087  0.643356442451477  1.0000
