data_image0
_chemical_formula_structural       Li2O4Si2Sr6
_chemical_formula_sum              "Li2 O4 Si2 Sr6"
_cell_length_a       5.157680150653195
_cell_length_b       5.501028241360859
_cell_length_c       6.146324157714844
_cell_angle_alpha    92.86177742581569
_cell_angle_beta     94.99364025188368
_cell_angle_gamma    90.43732674667753

_space_group_name_H-M_alt    "P 1"
_space_group_IT_number       1

loop_
  _space_group_symop_operation_xyz
  'x, y, z'

loop_
  _atom_site_type_symbol
  _atom_site_label
  _atom_site_symmetry_multiplicity
  _atom_site_fract_x
  _atom_site_fract_y
  _atom_site_fract_z
  _atom_site_occupancy
  Li  Li1       1.0  0.7950592041015625  0.02178170531988144  0.5021511316299438  1.0000
  Li  Li2       1.0  0.2891651690006256  0.6700044274330139  0.8901137709617615  1.0000
  O   O1        1.0  0.3945830464363098  0.13107018172740936  0.9189065098762512  1.0000
  O   O2        1.0  0.773604691028595  0.25452491641044617  0.6465176939964294  1.0000
  O   O3        1.0  0.3716485798358917  0.681324303150177  0.2701775133609772  1.0000
  O   O4        1.0  0.7212935090065002  0.5302203893661499  0.45153871178627014  1.0000
  Si  Si1       1.0  0.3134010434150696  0.8561660647392273  0.2753068506717682  1.0000
  Si  Si2       1.0  0.8140456080436707  0.4851105809211731  0.14650782942771912  1.0000
  Sr  Sr1       1.0  0.7993676662445068  0.8437525033950806  0.9051465392112732  1.0000
  Sr  Sr2       1.0  0.33771491050720215  0.968579888343811  0.8024235963821411  1.0000
  Sr  Sr3       1.0  0.894645094871521  0.9942580461502075  0.33245816826820374  1.0000
  Sr  Sr4       1.0  0.801350474357605  0.004560722503811121  0.4779694080352783  1.0000
  Sr  Sr5       1.0  0.3999181389808655  0.5568147897720337  0.7496057152748108  1.0000
  Sr  Sr6       1.0  0.06820477545261383  0.6807307600975037  0.7394080758094788  1.0000
