data_image0
_chemical_formula_structural       ClCsGe3P2Pb2VZr
_chemical_formula_sum              "Cl1 Cs1 Ge3 P2 Pb2 V1 Zr1"
_cell_length_a       5.828925935369975
_cell_length_b       6.194571778612149
_cell_length_c       6.747946262359619
_cell_angle_alpha    89.94995407180684
_cell_angle_beta     89.04396717746808
_cell_angle_gamma    80.11131156473998

_space_group_name_H-M_alt    "P 1"
_space_group_IT_number       1

loop_
  _space_group_symop_operation_xyz
  'x, y, z'

loop_
  _atom_site_type_symbol
  _atom_site_label
  _atom_site_symmetry_multiplicity
  _atom_site_fract_x
  _atom_site_fract_y
  _atom_site_fract_z
  _atom_site_occupancy
  Cl  Cl1       1.0  0.8246588706970214  0.025511428713798523  0.6527320742607117  1.0000
  Cs  Cs1       1.0  0.5470289587974548  0.18329179286956787  0.9779253005981444  1.0000
  Ge  Ge1       1.0  0.5303196310997009  0.5541085004806519  0.285696417093277  1.0000
  Ge  Ge2       1.0  0.5585104823112488  0.2247612625360489  0.4404804408550262  1.0000
  Ge  Ge3       1.0  0.7531186938285827  0.37624409794807434  0.9757810235023497  1.0000
  P   P1        1.0  0.8846433162689208  0.8896938562393188  0.4630404412746429  1.0000
  P   P2        1.0  0.13302509486675262  0.04051467031240463  0.11737331748008727  1.0000
  Pb  Pb1       1.0  0.012580840848386286  0.33992302417755127  0.3559614717960357  1.0000
  Pb  Pb2       1.0  0.0480428896844387  0.2655965983867645  0.2812989354133606  1.0000
  V   V1        1.0  0.34411710500717163  0.5375987887382507  0.4745779931545257  1.0000
  Zr  Zr1       1.0  0.4336447417736053  0.5426879525184631  0.37779304385185236  1.0000
