data_image0
_chemical_formula_structural       ClCs2Ge2I3NPPb
_chemical_formula_sum              "Cl1 Cs2 Ge2 I3 N1 P1 Pb1"
_cell_length_a       7.2978069477361265
_cell_length_b       9.523845735518245
_cell_length_c       9.748857498168945
_cell_angle_alpha    115.51620863982237
_cell_angle_beta     95.2897608951325
_cell_angle_gamma    94.22220569156583

_space_group_name_H-M_alt    "P 1"
_space_group_IT_number       1

loop_
  _space_group_symop_operation_xyz
  'x, y, z'

loop_
  _atom_site_type_symbol
  _atom_site_label
  _atom_site_symmetry_multiplicity
  _atom_site_fract_x
  _atom_site_fract_y
  _atom_site_fract_z
  _atom_site_occupancy
  Cl  Cl1       1.0  0.9362049102783204  0.6149544715881348  0.9918018579483031  1.0000
  Cs  Cs1       1.0  0.4049711227416993  0.09947202354669571  0.7678965330123901  1.0000
  Cs  Cs2       1.0  0.05497707426548005  0.27623966336250305  0.820543110370636  1.0000
  Ge  Ge1       1.0  0.8831415176391603  0.2976406514644623  0.5510900616645813  1.0000
  Ge  Ge2       1.0  0.47790509462356573  0.5874468684196472  0.8275087475776672  1.0000
  I   I1        1.0  0.9648151993751527  0.23764555156230927  0.9570031762123108  1.0000
  I   I2        1.0  0.40186926722526556  0.5871412754058838  0.42097535729408264  1.0000
  I   I3        1.0  0.358400046825409  0.5803849697113037  0.11577741801738739  1.0000
  N   N1        1.0  0.3193384408950806  0.621539831161499  0.33664435148239136  1.0000
  P   P1        1.0  0.38173732161521917  0.05110961198806763  0.6957951188087463  1.0000
  Pb  Pb1       1.0  0.8955088257789613  0.11080574244260788  0.1891535222530365  1.0000
