data_image0
_chemical_formula_structural       AsCClGeIr2MgPPb2Pt
_chemical_formula_sum              "As1 C1 Cl1 Ge1 Ir2 Mg1 P1 Pb2 Pt1"
_cell_length_a       6.224049067587712
_cell_length_b       7.438487404375268
_cell_length_c       8.034503936767578
_cell_angle_alpha    89.84856371209054
_cell_angle_beta     90.55526520948028
_cell_angle_gamma    90.47385740132123

_space_group_name_H-M_alt    "P 1"
_space_group_IT_number       1

loop_
  _space_group_symop_operation_xyz
  'x, y, z'

loop_
  _atom_site_type_symbol
  _atom_site_label
  _atom_site_symmetry_multiplicity
  _atom_site_fract_x
  _atom_site_fract_y
  _atom_site_fract_z
  _atom_site_occupancy
  As  As1       1.0  0.9942981600761414  0.9143533110618591  0.2928524911403656  1.0000
  C   C1        1.0  0.01707467995584011  0.6794024109840393  0.7076008319854736  1.0000
  Cl  Cl1       1.0  0.0491587296128273  0.6185388565063477  0.5852748155593872  1.0000
  Ge  Ge1       1.0  0.9954434037208557  0.4055609703063965  0.30966663360595703  1.0000
  Ir  Ir1       1.0  0.9994811415672302  0.19652482867240906  0.7840318083763123  1.0000
  Ir  Ir2       1.0  0.5073198080062866  0.8242478370666504  0.3777409791946411  1.0000
  Mg  Mg1       1.0  0.5099866986274719  0.998755156993866  0.21953000128269196  1.0000
  P   P1        1.0  0.5747203230857849  0.07642903178930283  0.3012385964393616  1.0000
  Pb  Pb1       1.0  0.493948370218277  0.42069780826568604  0.32106927037239075  1.0000
  Pb  Pb2       1.0  0.36999794840812683  0.8040416836738586  0.7895651459693909  1.0000
  Pt  Pt1       1.0  0.047147803008556366  0.08556035906076431  0.2538102865219116  1.0000
