data_image0
_chemical_formula_structural       Ag8ClCsN
_chemical_formula_sum              "Ag8 Cl1 Cs1 N1"
_cell_length_a       5.681241759306552
_cell_length_b       5.917970073438489
_cell_length_c       9.06699275970459
_cell_angle_alpha    123.98139137746797
_cell_angle_beta     94.83212999044368
_cell_angle_gamma    90.68762330771688

_space_group_name_H-M_alt    "P 1"
_space_group_IT_number       1

loop_
  _space_group_symop_operation_xyz
  'x, y, z'

loop_
  _atom_site_type_symbol
  _atom_site_label
  _atom_site_symmetry_multiplicity
  _atom_site_fract_x
  _atom_site_fract_y
  _atom_site_fract_z
  _atom_site_occupancy
  Ag  Ag1       1.0  0.3897051215171814  0.9980570673942566  0.9685346484184265  1.0000
  Ag  Ag2       1.0  0.6747788190841675  0.3999998867511749  0.07347317785024643  1.0000
  Ag  Ag3       1.0  0.6851792931556702  0.5941740870475769  0.9469834566116333  1.0000
  Ag  Ag4       1.0  0.6631298065185547  0.2623848021030426  0.7161380648612976  1.0000
  Ag  Ag5       1.0  0.18589642643928528  0.2801535725593567  0.41341471672058105  1.0000
  Ag  Ag6       1.0  0.15133604407310486  0.2144690752029419  0.4552357494831085  1.0000
  Ag  Ag7       1.0  0.7127181887626648  0.804774820804596  0.4214426279067993  1.0000
  Ag  Ag8       1.0  0.18005409836769104  0.7708935737609863  0.4670320749282837  1.0000
  Cl  Cl1       1.0  0.6639173030853271  0.7910631895065308  0.31184157729148865  1.0000
  Cs  Cs1       1.0  0.18202735483646393  0.5532446503639221  0.834178626537323  1.0000
  N   N1        1.0  0.1831890195608139  0.3009537160396576  0.3868080675601959  1.0000
