data_image0
_chemical_formula_structural       AsClIP2Pb2Pt3Tl
_chemical_formula_sum              "As1 Cl1 I1 P2 Pb2 Pt3 Tl1"
_cell_length_a       6.771811742898059
_cell_length_b       8.726103735507316
_cell_length_c       9.378267288208008
_cell_angle_alpha    77.90022831777061
_cell_angle_beta     77.53763732541671
_cell_angle_gamma    77.60130603675609

_space_group_name_H-M_alt    "P 1"
_space_group_IT_number       1

loop_
  _space_group_symop_operation_xyz
  'x, y, z'

loop_
  _atom_site_type_symbol
  _atom_site_label
  _atom_site_symmetry_multiplicity
  _atom_site_fract_x
  _atom_site_fract_y
  _atom_site_fract_z
  _atom_site_occupancy
  As  As1       1.0  0.981523871421814  0.16071777045726776  0.7888413667678833  1.0000
  Cl  Cl1       1.0  0.30555176734924316  0.11680787801742554  0.5565598011016846  1.0000
  I   I1        1.0  0.28910452127456665  0.21240940690040588  0.9208229780197144  1.0000
  P   P1        1.0  0.7945032715797424  0.907407283782959  0.6083637475967407  1.0000
  P   P2        1.0  0.787687361240387  0.5220837593078613  0.9158498048782349  1.0000
  Pb  Pb1       1.0  0.2794514298439026  0.14435410499572754  0.1181352362036705  1.0000
  Pb  Pb2       1.0  0.7723392844200134  0.8968490362167358  0.04505347087979317  1.0000
  Pt  Pt1       1.0  0.48464417457580566  0.6164737939834595  0.8636683225631714  1.0000
  Pt  Pt2       1.0  0.2828894555568695  0.33723849058151245  0.9326517581939697  1.0000
  Pt  Pt3       1.0  0.9381645321846008  0.566682755947113  0.5832949280738831  1.0000
  Tl  Tl1       1.0  0.774787425994873  0.8824303150177002  0.07659238576889038  1.0000
