data_image0
_chemical_formula_structural       Ag8Cl2Cs
_chemical_formula_sum              "Ag8 Cl2 Cs1"
_cell_length_a       5.510385383606238
_cell_length_b       3.6077852936230737
_cell_length_c       8.904787063598633
_cell_angle_alpha    104.00641446121207
_cell_angle_beta     96.3475711487893
_cell_angle_gamma    102.70459330264723

_space_group_name_H-M_alt    "P 1"
_space_group_IT_number       1

loop_
  _space_group_symop_operation_xyz
  'x, y, z'

loop_
  _atom_site_type_symbol
  _atom_site_label
  _atom_site_symmetry_multiplicity
  _atom_site_fract_x
  _atom_site_fract_y
  _atom_site_fract_z
  _atom_site_occupancy
  Ag  Ag1       1.0  0.15266311168670654  0.1803392469882965  0.7845566272735596  1.0000
  Ag  Ag2       1.0  0.3177048861980438  0.40277507901191706  0.6725107431411743  1.0000
  Ag  Ag3       1.0  0.8465012311935425  0.5658925771713257  0.5437816381454468  1.0000
  Ag  Ag4       1.0  0.6087294816970825  0.6882233619689941  0.424917608499527  1.0000
  Ag  Ag5       1.0  0.18508903682231903  0.9638210535049437  0.09656547755002974  1.0000
  Ag  Ag6       1.0  0.36161038279533386  0.6807822585105896  0.353130578994751  1.0000
  Ag  Ag7       1.0  0.26176488399505615  0.36264127492904663  0.1353202611207962  1.0000
  Ag  Ag8       1.0  0.8685209155082703  0.5579447746276855  0.9047237038612366  1.0000
  Cl  Cl1       1.0  0.7039270997047424  0.13067586719989777  0.6016302108764648  1.0000
  Cl  Cl2       1.0  0.6599192023277283  0.2799620032310486  0.7610477209091187  1.0000
  Cs  Cs1       1.0  0.34480828046798706  0.7253390550613403  0.4091721177101135  1.0000
