data_image0
_chemical_formula_structural       BrEr3Ge4Ir2Si2
_chemical_formula_sum              "Br1 Er3 Ge4 Ir2 Si2"
_cell_length_a       6.558494752407703
_cell_length_b       6.601030444203812
_cell_length_c       7.051463603973389
_cell_angle_alpha    114.85820246232527
_cell_angle_beta     111.79000307432013
_cell_angle_gamma    92.19396235451835

_space_group_name_H-M_alt    "P 1"
_space_group_IT_number       1

loop_
  _space_group_symop_operation_xyz
  'x, y, z'

loop_
  _atom_site_type_symbol
  _atom_site_label
  _atom_site_symmetry_multiplicity
  _atom_site_fract_x
  _atom_site_fract_y
  _atom_site_fract_z
  _atom_site_occupancy
  Br  Br1       1.0  0.8463322520256042  0.35407620668411255  0.544374942779541  1.0000
  Er  Er1       1.0  0.07799979299306867  0.4101794064044952  0.044412154704332324  1.0000
  Er  Er2       1.0  0.564477264881134  0.832511007785797  0.045056611299514646  1.0000
  Er  Er3       1.0  0.5722540616989136  0.9692340493202208  0.34673690795898426  1.0000
  Ge  Ge1       1.0  0.6101702451705933  0.8662472963333129  0.7108553051948546  1.0000
  Ge  Ge2       1.0  0.061573389917612055  0.4892278611660003  0.043444614857435164  1.0000
  Ge  Ge3       1.0  0.9336840510368347  0.6329453587532043  0.7525452971458435  1.0000
  Ge  Ge4       1.0  0.8580369353294373  0.3664777874946594  0.5433900356292725  1.0000
  Ir  Ir1       1.0  0.8259977698326111  0.8985071778297423  0.5367143750190734  1.0000
  Ir  Ir2       1.0  0.8227963447570801  0.9139785170555114  0.5486927628517151  1.0000
  Si  Si1       1.0  0.5736271142959595  0.4190291762351989  0.2845931947231293  1.0000
  Si  Si2       1.0  0.3164058923721313  0.9686124324798583  0.5534875988960265  1.0000
