data_image0
_chemical_formula_structural       AlBrClEr4Ge3IrSi
_chemical_formula_sum              "Al1 Br1 Cl1 Er4 Ge3 Ir1 Si1"
_cell_length_a       5.269331317621809
_cell_length_b       8.097473746199448
_cell_length_c       8.220989227294922
_cell_angle_alpha    119.27181934237056
_cell_angle_beta     88.5225612901283
_cell_angle_gamma    89.21234037908688

_space_group_name_H-M_alt    "P 1"
_space_group_IT_number       1

loop_
  _space_group_symop_operation_xyz
  'x, y, z'

loop_
  _atom_site_type_symbol
  _atom_site_label
  _atom_site_symmetry_multiplicity
  _atom_site_fract_x
  _atom_site_fract_y
  _atom_site_fract_z
  _atom_site_occupancy
  Al  Al1       1.0  0.30730730295181274  0.16406430304050446  0.6582562327384949  1.0000
  Br  Br1       1.0  0.30365994572639465  0.2015501707792282  0.8925488591194153  1.0000
  Cl  Cl1       1.0  0.7984403967857361  0.650753915309906  0.4641916155815125  1.0000
  Er  Er1       1.0  0.2980439066886902  0.5966958403587341  0.14241673052310944  1.0000
  Er  Er2       1.0  0.7931793928146362  0.9511816501617432  0.9461401700973511  1.0000
  Er  Er3       1.0  0.2985387146472931  0.9719163179397583  0.47143092751502996  1.0000
  Er  Er4       1.0  0.8059579730033875  0.5606499314308167  0.6782830953598022  1.0000
  Ge  Ge1       1.0  0.8062852025032043  0.9354283809661865  0.17556521296501165  1.0000
  Ge  Ge2       1.0  0.816891610622406  0.6724415421485901  0.45743262767791754  1.0000
  Ge  Ge3       1.0  0.30688515305519104  0.21167980134487152  0.4582228660583496  1.0000
  Ir  Ir1       1.0  0.8040100336074829  0.0027349810115993023  0.767008900642395  1.0000
  Si  Si1       1.0  0.3061453402042389  0.43153631687164307  0.08542476594448092  1.0000
