data_image0
_chemical_formula_structural       Ge7Ir3Si2
_chemical_formula_sum              "Ge7 Ir3 Si2"
_cell_length_a       6.550402757509907
_cell_length_b       6.91378981081141
_cell_length_c       7.254040241241455
_cell_angle_alpha    114.90226044494996
_cell_angle_beta     108.17161248614278
_cell_angle_gamma    97.65099068427071

_space_group_name_H-M_alt    "P 1"
_space_group_IT_number       1

loop_
  _space_group_symop_operation_xyz
  'x, y, z'

loop_
  _atom_site_type_symbol
  _atom_site_label
  _atom_site_symmetry_multiplicity
  _atom_site_fract_x
  _atom_site_fract_y
  _atom_site_fract_z
  _atom_site_occupancy
  Ge  Ge1       1.0  0.7722395658493042  0.8277959823608398  0.2580869793891907  1.0000
  Ge  Ge2       1.0  0.8165507316589355  0.42067873477935785  0.045857321470975876  1.0000
  Ge  Ge3       1.0  0.5398063063621521  0.09426973015069962  0.5040649771690369  1.0000
  Ge  Ge4       1.0  0.5481069684028625  0.577548086643219  0.4326764941215515  1.0000
  Ge  Ge5       1.0  0.09042267501354218  0.07612232118844986  0.21212629973888397  1.0000
  Ge  Ge6       1.0  0.04435771703720093  0.08418329805135727  0.26887041330337524  1.0000
  Ge  Ge7       1.0  0.7757170796394348  0.5716341137886047  0.007300281431525977  1.0000
  Ir  Ir1       1.0  0.7820243239402771  0.1012701764702797  0.0021832380443811417  1.0000
  Ir  Ir2       1.0  0.29241648316383356  0.9158920645713805  0.25353169441223145  1.0000
  Ir  Ir3       1.0  0.4267536997795105  0.7871314287185669  0.9826076626777649  1.0000
  Si  Si1       1.0  0.05084006488323212  0.6041680574417114  0.011926000006496906  1.0000
  Si  Si2       1.0  0.2870069444179535  0.5423993468284607  0.5046021342277527  1.0000
