data_image0
_chemical_formula_structural       Ge8Ir4
_chemical_formula_sum              "Ge8 Ir4"
_cell_length_a       6.179107351741636
_cell_length_b       6.800211925004146
_cell_length_c       7.01246976852417
_cell_angle_alpha    116.45688681316626
_cell_angle_beta     94.25129980135684
_cell_angle_gamma    94.66650950065988

_space_group_name_H-M_alt    "P 1"
_space_group_IT_number       1

loop_
  _space_group_symop_operation_xyz
  'x, y, z'

loop_
  _atom_site_type_symbol
  _atom_site_label
  _atom_site_symmetry_multiplicity
  _atom_site_fract_x
  _atom_site_fract_y
  _atom_site_fract_z
  _atom_site_occupancy
  Ge  Ge1       1.0  0.8658423423767091  0.561547040939331  0.7675792574882507  1.0000
  Ge  Ge2       1.0  0.35741955041885376  0.2339356988668442  0.39436906576156616  1.0000
  Ge  Ge3       1.0  0.6795963644981384  0.16678588092327118  0.5438541769981384  1.0000
  Ge  Ge4       1.0  0.3338400423526764  0.5594928860664368  0.23530951142311096  1.0000
  Ge  Ge5       1.0  0.07073026150465014  0.8652687072753907  0.10315271466970444  1.0000
  Ge  Ge6       1.0  0.8562474250793458  0.21228846907615664  0.25493884086608887  1.0000
  Ge  Ge7       1.0  0.6646441221237183  0.8589056730270387  0.6849427819252014  1.0000
  Ge  Ge8       1.0  0.35682937502861023  0.8734582066535951  0.7584735751152039  1.0000
  Ir  Ir1       1.0  0.34547552466392517  0.500939130783081  0.24646785855293274  1.0000
  Ir  Ir2       1.0  0.3446466028690338  0.0061725564301013955  0.7808241844177246  1.0000
  Ir  Ir3       1.0  0.8415737748146057  0.4955138564109803  0.7866060733795166  1.0000
  Ir  Ir4       1.0  0.851073682308197  0.16482122242450714  0.2509427070617676  1.0000
