data_image0
_chemical_formula_structural       BrErGe5Ir2Si3
_chemical_formula_sum              "Br1 Er1 Ge5 Ir2 Si3"
_cell_length_a       5.20466688054848
_cell_length_b       6.703725732699643
_cell_length_c       7.043145656585693
_cell_angle_alpha    90.97870625282371
_cell_angle_beta     90.29589971316668
_cell_angle_gamma    92.30154128238476

_space_group_name_H-M_alt    "P 1"
_space_group_IT_number       1

loop_
  _space_group_symop_operation_xyz
  'x, y, z'

loop_
  _atom_site_type_symbol
  _atom_site_label
  _atom_site_symmetry_multiplicity
  _atom_site_fract_x
  _atom_site_fract_y
  _atom_site_fract_z
  _atom_site_occupancy
  Br  Br1       1.0  0.3515726327896118  0.4344681203365326  0.35371616482734686  1.0000
  Er  Er1       1.0  0.14773108065128326  0.761584460735321  0.8937136530876161  1.0000
  Ge  Ge1       1.0  0.22106929123401642  0.4293557107448578  0.23951080441474917  1.0000
  Ge  Ge2       1.0  0.02740149199962616  0.9301484227180481  0.8339440226554872  1.0000
  Ge  Ge3       1.0  0.7609859704971313  0.4257591664791107  0.38063925504684454  1.0000
  Ge  Ge4       1.0  0.49659773707389837  0.16792920231819153  0.6794873476028443  1.0000
  Ge  Ge5       1.0  0.509344220161438  0.4232611358165741  0.7290082573890687  1.0000
  Ir  Ir1       1.0  0.35459795594215393  0.9205079078674316  0.4132663309574128  1.0000
  Ir  Ir2       1.0  0.8426892757415771  0.0023708671797066927  0.21476158499717715  1.0000
  Si  Si1       1.0  0.8585432767868042  0.923870325088501  0.11266870796680452  1.0000
  Si  Si2       1.0  0.8388065099716187  0.7521839141845703  0.3665923476219178  1.0000
  Si  Si3       1.0  0.34204041957855225  0.4690319299697876  0.13300730288028717  1.0000
