data_image0
_chemical_formula_structural       BrErGe4Ir2Si3Zr
_chemical_formula_sum              "Br1 Er1 Ge4 Ir2 Si3 Zr1"
_cell_length_a       5.6228223764317535
_cell_length_b       7.066844366101743
_cell_length_c       7.352200984954834
_cell_angle_alpha    113.0386647413073
_cell_angle_beta     106.79213761057304
_cell_angle_gamma    89.99488388012078

_space_group_name_H-M_alt    "P 1"
_space_group_IT_number       1

loop_
  _space_group_symop_operation_xyz
  'x, y, z'

loop_
  _atom_site_type_symbol
  _atom_site_label
  _atom_site_symmetry_multiplicity
  _atom_site_fract_x
  _atom_site_fract_y
  _atom_site_fract_z
  _atom_site_occupancy
  Br  Br1       1.0  0.27051469683647156  0.3272797465324402  0.39075779914855957  1.0000
  Er  Er1       1.0  0.024961985647678375  0.09928962588310242  0.7213541865348816  1.0000
  Ge  Ge1       1.0  0.32727012038230896  0.059470854699611664  0.8360931873321533  1.0000
  Ge  Ge2       1.0  0.5043687224388123  0.5852532386779785  0.7239680290222168  1.0000
  Ge  Ge3       1.0  0.26956239342689514  0.5813347101211548  0.27209925651550293  1.0000
  Ge  Ge4       1.0  0.7888254523277283  0.28944113850593567  0.2424592226743698  1.0000
  Ir  Ir1       1.0  0.5279540419578552  0.1134176179766655  0.6296815276145935  1.0000
  Ir  Ir2       1.0  0.02859986387193203  0.6135404706001282  0.8240052461624146  1.0000
  Si  Si1       1.0  0.7823247909545898  0.09128418564796448  0.16335226595401764  1.0000
  Si  Si2       1.0  0.5233867168426514  0.6145391464233398  0.628398597240448  1.0000
  Si  Si3       1.0  0.2787766754627228  0.5837093591690063  0.283175528049469  1.0000
  Zr  Zr1       1.0  0.7782989144325256  0.09861300885677338  0.0018882685108110235  1.0000
