data_image0
_chemical_formula_structural       Cl4Cu3F2O5
_chemical_formula_sum              "Cl4 Cu3 F2 O5"
_cell_length_a       5.827954273526267
_cell_length_b       6.534933536149993
_cell_length_c       6.985110282897949
_cell_angle_alpha    70.73866099189581
_cell_angle_beta     67.59883641506127
_cell_angle_gamma    64.35528281115559

_space_group_name_H-M_alt    "P 1"
_space_group_IT_number       1

loop_
  _space_group_symop_operation_xyz
  'x, y, z'

loop_
  _atom_site_type_symbol
  _atom_site_label
  _atom_site_symmetry_multiplicity
  _atom_site_fract_x
  _atom_site_fract_y
  _atom_site_fract_z
  _atom_site_occupancy
  Cl  Cl1       1.0  0.18612466752529144  0.22223536670207977  0.13935653865337372  1.0000
  Cl  Cl2       1.0  0.3136325478553772  0.08729031682014465  0.6287199258804321  1.0000
  Cl  Cl3       1.0  0.7817779779434204  0.5289464592933655  0.25445833802223206  1.0000
  Cl  Cl4       1.0  0.7198821306228638  0.7168391346931458  0.25639572739601135  1.0000
  Cu  Cu1       1.0  0.3351938724517822  0.4561980366706848  0.4137272834777832  1.0000
  Cu  Cu2       1.0  0.31063440442085266  0.7943029999732971  0.06566372513771057  1.0000
  Cu  Cu3       1.0  0.8506314754486084  0.2127169817686081  0.13936370611190796  1.0000
  F   F1        1.0  0.5870770812034607  0.7754465937614441  0.7763866782188416  1.0000
  F   F2        1.0  0.5887777805328369  0.7729846239089966  0.8169534802436829  1.0000
  O   O1        1.0  0.6784075498580933  0.7424525022506714  0.43045124411582947  1.0000
  O   O2        1.0  0.03148381784558296  0.23931081593036652  0.779777467250824  1.0000
  O   O3        1.0  0.16807812452316284  0.5705721378326416  0.6113635897636414  1.0000
  O   O4        1.0  0.5383663773536682  0.22845907509326935  0.19833074510097504  1.0000
  O   O5        1.0  0.11971088498830795  0.25818002223968506  0.9119089841842651  1.0000
