data_image0
_chemical_formula_structural       Cl3Cu4FO5V
_chemical_formula_sum              "Cl3 Cu4 F1 O5 V1"
_cell_length_a       6.018487755393987
_cell_length_b       6.6004108859510495
_cell_length_c       6.906970024108887
_cell_angle_alpha    64.24886002905862
_cell_angle_beta     63.795432382290095
_cell_angle_gamma    62.95292518613969

_space_group_name_H-M_alt    "P 1"
_space_group_IT_number       1

loop_
  _space_group_symop_operation_xyz
  'x, y, z'

loop_
  _atom_site_type_symbol
  _atom_site_label
  _atom_site_symmetry_multiplicity
  _atom_site_fract_x
  _atom_site_fract_y
  _atom_site_fract_z
  _atom_site_occupancy
  Cl  Cl1       1.0  0.05350945517420769  0.17687883973121643  0.21955950558185577  1.0000
  Cl  Cl2       1.0  0.7924502491950989  0.46715572476387024  0.6847249865531921  1.0000
  Cl  Cl3       1.0  0.5781781077384949  0.7295577526092529  0.8833663463592529  1.0000
  Cu  Cu1       1.0  0.019721655175089836  0.7116917371749878  0.9339780211448669  1.0000
  Cu  Cu2       1.0  0.417638897895813  0.030344586819410324  0.05755171179771423  1.0000
  Cu  Cu3       1.0  0.9024065136909485  0.4926002323627472  0.21660837531089783  1.0000
  Cu  Cu4       1.0  0.43762072920799255  0.5271009206771851  0.5397579669952393  1.0000
  F   F1        1.0  0.9200831055641174  0.0311068594455719  0.6013644933700562  1.0000
  O   O1        1.0  0.8350193500518799  0.1933554708957672  0.9859575033187866  1.0000
  O   O2        1.0  0.7075315117835999  0.17095139622688293  0.22551803290843964  1.0000
  O   O3        1.0  0.7378783822059631  0.25920942425727844  0.21621771156787872  1.0000
  O   O4        1.0  0.23814751207828522  0.5265704393386841  0.10708565264940262  1.0000
  O   O5        1.0  0.15912558138370514  0.8483291864395142  0.4070283770561218  1.0000
  V   V1        1.0  0.43256446719169617  0.03578087314963341  0.609562337398529  1.0000
