data_image0
_chemical_formula_structural       Cl2Cu4O4V4
_chemical_formula_sum              "Cl2 Cu4 O4 V4"
_cell_length_a       4.93200221023023
_cell_length_b       6.4036609309946195
_cell_length_c       6.876529693603516
_cell_angle_alpha    88.54599775766911
_cell_angle_beta     90.70424288019542
_cell_angle_gamma    90.49162007161839

_space_group_name_H-M_alt    "P 1"
_space_group_IT_number       1

loop_
  _space_group_symop_operation_xyz
  'x, y, z'

loop_
  _atom_site_type_symbol
  _atom_site_label
  _atom_site_symmetry_multiplicity
  _atom_site_fract_x
  _atom_site_fract_y
  _atom_site_fract_z
  _atom_site_occupancy
  Cl  Cl1       1.0  0.9644850492477417  0.8760098814964293  0.24684059619903562  1.0000
  Cl  Cl2       1.0  0.4611247777938843  0.8800736665725707  0.9095103740692138  1.0000
  Cu  Cu1       1.0  0.839045524597168  0.1224008798599243  0.8774937391281127  1.0000
  Cu  Cu2       1.0  0.841071605682373  0.12452199310064314  0.8813865780830382  1.0000
  Cu  Cu3       1.0  0.8420298099517822  0.45125353336334223  0.903803527355194  1.0000
  Cu  Cu4       1.0  0.5692006349563599  0.6615109443664551  0.38581857085227966  1.0000
  O   O1        1.0  0.6121222972869873  0.5292267799377441  0.7277870774269104  1.0000
  O   O2        1.0  0.5839780569076538  0.17091864347457886  0.6215527653694153  1.0000
  O   O3        1.0  0.37405532598495483  0.9553909301757811  0.953920006752014  1.0000
  O   O4        1.0  0.9856987595558167  0.47888183593749994  0.22910174727439878  1.0000
  V   V1        1.0  0.3263816833496094  0.37301596999168396  0.3528323769569397  1.0000
  V   V2        1.0  0.8485950827598572  0.6851263642311096  0.7249439358711243  1.0000
  V   V3        1.0  0.31831884384155273  0.3749651610851288  0.3912465572357178  1.0000
  V   V4        1.0  0.31283286213874817  0.5893009305000305  0.5915608406066895  1.0000
