data_image0
_chemical_formula_structural       BrCeClCu4O4V3
_chemical_formula_sum              "Br1 Ce1 Cl1 Cu4 O4 V3"
_cell_length_a       5.2145850156781135
_cell_length_b       6.419673767059058
_cell_length_c       6.343847751617432
_cell_angle_alpha    92.25466068236523
_cell_angle_beta     89.5970855327672
_cell_angle_gamma    107.57961139316629

_space_group_name_H-M_alt    "P 1"
_space_group_IT_number       1

loop_
  _space_group_symop_operation_xyz
  'x, y, z'

loop_
  _atom_site_type_symbol
  _atom_site_label
  _atom_site_symmetry_multiplicity
  _atom_site_fract_x
  _atom_site_fract_y
  _atom_site_fract_z
  _atom_site_occupancy
  Br  Br1       1.0  0.899437189102173  0.6490394473075867  0.6591676473617554  1.0000
  Ce  Ce1       1.0  0.7674273252487183  0.27398228645324707  0.032002221792936325  1.0000
  Cl  Cl1       1.0  0.15446168184280396  0.25115951895713806  0.19718945026397705  1.0000
  Cu  Cu1       1.0  0.7767398357391357  0.5570787191390991  0.8699271082878113  1.0000
  Cu  Cu2       1.0  0.42551225423812866  0.6221370100975037  0.7309834361076355  1.0000
  Cu  Cu3       1.0  0.7814725637435913  0.3695738613605499  0.3377513587474823  1.0000
  Cu  Cu4       1.0  0.7692286968231201  0.6313581466674805  0.4647884666919708  1.0000
  O   O1        1.0  0.6272287368774414  0.23025543987751007  0.5429628491401672  1.0000
  O   O2        1.0  0.09025254845619202  0.12863090634346008  0.7014182209968567  1.0000
  O   O3        1.0  0.47054153680801397  0.4493286907672882  0.2530469000339508  1.0000
  O   O4        1.0  0.0954582691192627  0.07509560883045197  0.0641227513551712  1.0000
  V   V1        1.0  0.27458012104034424  0.6209026575088501  0.9407450556755066  1.0000
  V   V2        1.0  0.3381032347679138  0.9961568117141724  0.04782029986381531  1.0000
  V   V3        1.0  0.11270377784967424  0.6338139772415161  0.13890515267848969  1.0000
