data_image0
_chemical_formula_structural       Cl2CuFO6V3Zr
_chemical_formula_sum              "Cl2 Cu1 F1 O6 V3 Zr1"
_cell_length_a       5.781290189914037
_cell_length_b       6.95275070019913
_cell_length_c       6.797831058502197
_cell_angle_alpha    68.27675543626141
_cell_angle_beta     66.06516736977939
_cell_angle_gamma    65.73070934054823

_space_group_name_H-M_alt    "P 1"
_space_group_IT_number       1

loop_
  _space_group_symop_operation_xyz
  'x, y, z'

loop_
  _atom_site_type_symbol
  _atom_site_label
  _atom_site_symmetry_multiplicity
  _atom_site_fract_x
  _atom_site_fract_y
  _atom_site_fract_z
  _atom_site_occupancy
  Cl  Cl1       1.0  0.4488206207752228  0.23485466837882996  0.587467610836029  1.0000
  Cl  Cl2       1.0  0.36354705691337585  0.8966375589370728  0.12003716081380844  1.0000
  Cu  Cu1       1.0  0.05062684789299965  0.7177896499633789  0.025137625634670258  1.0000
  F   F1        1.0  0.5345622897148132  0.2633712887763977  0.5956228375434875  1.0000
  O   O1        1.0  0.6667189598083496  0.21178293228149414  0.06714627146720886  1.0000
  O   O2        1.0  0.1858665645122528  0.9396118521690369  0.6183973550796509  1.0000
  O   O3        1.0  0.4480174481868744  0.5211529731750488  0.7032188177108765  1.0000
  O   O4        1.0  0.7199214100837708  0.9524779915809631  0.6827952861785889  1.0000
  O   O5        1.0  0.11498032510280609  0.7401520013809204  0.678301990032196  1.0000
  O   O6        1.0  0.44846367835998535  0.017227116972208023  0.3502705693244934  1.0000
  V   V1        1.0  0.5494430661201477  0.7107269167900085  0.5337661504745483  1.0000
  V   V2        1.0  0.8117324709892273  0.23567526042461395  0.2998806834220886  1.0000
  V   V3        1.0  0.305473268032074  0.05061831325292587  0.2899986803531647  1.0000
  Zr  Zr1       1.0  0.05030878633260727  0.248585045337677  0.45019689202308655  1.0000
