data_image0
_chemical_formula_structural       Cl3Cu2FGaO5V2
_chemical_formula_sum              "Cl3 Cu2 F1 Ga1 O5 V2"
_cell_length_a       6.330989192439966
_cell_length_b       6.769962795022868
_cell_length_c       6.894392967224121
_cell_angle_alpha    66.87217267346163
_cell_angle_beta     63.61759350317163
_cell_angle_gamma    62.464044277156276

_space_group_name_H-M_alt    "P 1"
_space_group_IT_number       1

loop_
  _space_group_symop_operation_xyz
  'x, y, z'

loop_
  _atom_site_type_symbol
  _atom_site_label
  _atom_site_symmetry_multiplicity
  _atom_site_fract_x
  _atom_site_fract_y
  _atom_site_fract_z
  _atom_site_occupancy
  Cl  Cl1       1.0  0.8106490969657898  0.7699467539787292  0.8157713413238524  1.0000
  Cl  Cl2       1.0  0.3594426214694977  0.9467304348945618  0.7572413682937622  1.0000
  Cl  Cl3       1.0  0.5314399003982544  0.41911622881889343  0.5052628517150879  1.0000
  Cu  Cu1       1.0  0.2045406848192215  0.6751700043678284  0.41717258095741266  1.0000
  Cu  Cu2       1.0  0.27307403087615967  0.867945671081543  0.5078078508377075  1.0000
  F   F1        1.0  0.8774546980857849  0.7174789309501648  0.9992917180061339  1.0000
  Ga  Ga1       1.0  0.8541232943534851  0.9475011825561523  0.7722134590148925  1.0000
  O   O1        1.0  0.15017342567443848  0.503713846206665  0.002989800181239843  1.0000
  O   O2        1.0  0.6184560656547546  0.9554042816162109  0.31881046295166016  1.0000
  O   O3        1.0  0.6273429989814758  0.2839594781398773  0.8078738451004027  1.0000
  O   O4        1.0  0.20109423995018005  0.6252570748329163  0.22652870416641233  1.0000
  O   O5        1.0  0.13847549259662628  0.18502286076545715  0.49410989880561823  1.0000
  V   V1        1.0  0.20131684839725494  0.9924062490463257  0.012487638741731642  1.0000
  V   V2        1.0  0.716233491897583  0.39640820026397705  0.006476936396211385  1.0000
