data_image0
_chemical_formula_structural       Cl3Mg2O4Pr
_chemical_formula_sum              "Cl3 Mg2 O4 Pr1"
_cell_length_a       6.027497913152496
_cell_length_b       6.373018960914658
_cell_length_c       6.4771552085876465
_cell_angle_alpha    62.022690532174515
_cell_angle_beta     59.76082381914132
_cell_angle_gamma    61.20888340028306

_space_group_name_H-M_alt    "P 1"
_space_group_IT_number       1

loop_
  _space_group_symop_operation_xyz
  'x, y, z'

loop_
  _atom_site_type_symbol
  _atom_site_label
  _atom_site_symmetry_multiplicity
  _atom_site_fract_x
  _atom_site_fract_y
  _atom_site_fract_z
  _atom_site_occupancy
  Cl  Cl1       1.0  0.9979987144470216  0.3060997426509857  0.3162690103054046  1.0000
  Cl  Cl2       1.0  0.012871046550571918  0.07633765041828156  0.3905019462108612  1.0000
  Cl  Cl3       1.0  0.6573591828346252  0.8753703832626343  0.1567622423171997  1.0000
  Mg  Mg1       1.0  0.49380543828010565  0.32996657490730286  0.9339373111724854  1.0000
  Mg  Mg2       1.0  0.987394154071808  0.6420644521713257  0.805826723575592  1.0000
  O   O1        1.0  0.2748171091079712  0.056714434176683426  0.10291194915771484  1.0000
  O   O2        1.0  0.9949541687965394  0.30147239565849304  0.35921514034271235  1.0000
  O   O3        1.0  0.2611946165561676  0.5722270011901855  0.6368747353553772  1.0000
  O   O4        1.0  0.5966260433197021  0.9163854122161865  0.32495322823524475  1.0000
  Pr  Pr1       1.0  0.5093604922294617  0.05722581967711449  0.3731139898300171  1.0000
