data_image0
_chemical_formula_structural       Cl3FMg3O2Zn
_chemical_formula_sum              "Cl3 F1 Mg3 O2 Zn1"
_cell_length_a       5.966397928115143
_cell_length_b       6.2476749752572935
_cell_length_c       6.173605918884277
_cell_angle_alpha    60.40558441440784
_cell_angle_beta     60.04986004236945
_cell_angle_gamma    60.449134961787195

_space_group_name_H-M_alt    "P 1"
_space_group_IT_number       1

loop_
  _space_group_symop_operation_xyz
  'x, y, z'

loop_
  _atom_site_type_symbol
  _atom_site_label
  _atom_site_symmetry_multiplicity
  _atom_site_fract_x
  _atom_site_fract_y
  _atom_site_fract_z
  _atom_site_occupancy
  Cl  Cl1       1.0  0.6186347007751465  0.3291459083557129  0.9857937097549438  1.0000
  Cl  Cl2       1.0  0.7227506637573242  0.821998655796051  0.7882469892501831  1.0000
  Cl  Cl3       1.0  0.7230745553970337  0.8418884873390198  0.17806285619735718  1.0000
  F   F1        1.0  0.5999795794487  0.05338659510016441  0.48072195053100586  1.0000
  Mg  Mg1       1.0  0.2241453975439072  0.3276969790458679  0.4478735327720642  1.0000
  Mg  Mg2       1.0  0.27381113171577454  0.816516637802124  0.8815891146659851  1.0000
  Mg  Mg3       1.0  0.9216855168342591  0.9805841445922852  0.21514418721199036  1.0000
  O   O1        1.0  0.46988686919212347  0.5071107149124146  0.6654877662658691  1.0000
  O   O2        1.0  0.9257511496543885  0.010496106930077076  0.9814302921295166  1.0000
  Zn  Zn1       1.0  0.23204694688320163  0.32699400186538696  0.43709596991539  1.0000
