data_image0
_chemical_formula_structural       Cl3Mg3O4
_chemical_formula_sum              "Cl3 Mg3 O4"
_cell_length_a       5.8259784113890385
_cell_length_b       5.919329511774448
_cell_length_c       5.802089691162109
_cell_angle_alpha    61.98026724341721
_cell_angle_beta     61.54582854324358
_cell_angle_gamma    62.786085221715695

_space_group_name_H-M_alt    "P 1"
_space_group_IT_number       1

loop_
  _space_group_symop_operation_xyz
  'x, y, z'

loop_
  _atom_site_type_symbol
  _atom_site_label
  _atom_site_symmetry_multiplicity
  _atom_site_fract_x
  _atom_site_fract_y
  _atom_site_fract_z
  _atom_site_occupancy
  Cl  Cl1       1.0  0.5236047506332397  0.4444373846054077  0.5480087399482727  1.0000
  Cl  Cl2       1.0  0.023386497050523758  0.47416678071022034  0.7646508812904358  1.0000
  Cl  Cl3       1.0  0.5280330181121826  0.4489048421382904  0.2547069191932677  1.0000
  Mg  Mg1       1.0  0.5033321380615234  0.9754764437675476  0.7641288042068481  1.0000
  Mg  Mg2       1.0  0.49443259835243225  0.5458571314811707  0.349443644285202  1.0000
  Mg  Mg3       1.0  0.8746652603149414  0.8914253115653992  0.06602975726127625  1.0000
  O   O1        1.0  0.2403721660375595  0.6710136532783508  0.9569509029388428  1.0000
  O   O2        1.0  0.5810815691947937  0.20591853559017181  0.07370211929082862  1.0000
  O   O3        1.0  0.8732308745384216  0.3849608600139618  0.5281172990798949  1.0000
  O   O4        1.0  0.8740559816360474  0.8890975117683411  0.5895119905471802  1.0000
