data_image0
_chemical_formula_structural       Cl2Mg3O5
_chemical_formula_sum              "Cl2 Mg3 O5"
_cell_length_a       4.570138069313557
_cell_length_b       5.2790606187094085
_cell_length_c       6.057415962219238
_cell_angle_alpha    105.4684629998285
_cell_angle_beta     93.48995713710347
_cell_angle_gamma    91.8059456822223

_space_group_name_H-M_alt    "P 1"
_space_group_IT_number       1

loop_
  _space_group_symop_operation_xyz
  'x, y, z'

loop_
  _atom_site_type_symbol
  _atom_site_label
  _atom_site_symmetry_multiplicity
  _atom_site_fract_x
  _atom_site_fract_y
  _atom_site_fract_z
  _atom_site_occupancy
  Cl  Cl1       1.0  0.027345484122633934  0.29078835248947144  0.9907600283622743  1.0000
  Cl  Cl2       1.0  0.4276675879955292  0.5605161190032959  0.15616515278816223  1.0000
  Mg  Mg1       1.0  0.5368285775184631  0.8267877101898193  0.48619967699050903  1.0000
  Mg  Mg2       1.0  0.5311223864555359  0.4919629693031311  0.7192453742027283  1.0000
  Mg  Mg3       1.0  0.014663530513644218  0.31111282110214233  0.21295388042926788  1.0000
  O   O1        1.0  0.042793747037649155  0.8185306191444397  0.5681943297386169  1.0000
  O   O2        1.0  0.017319481819868088  0.46476680040359497  0.7988421320915222  1.0000
  O   O3        1.0  0.48231303691864014  0.07883116602897644  0.8775023221969604  1.0000
  O   O4        1.0  0.881566047668457  0.8215860724449158  0.38176554441452026  1.0000
  O   O5        1.0  0.5079702734947205  0.8192470073699951  0.6763754487037659  1.0000
