data_image0
_chemical_formula_structural       ClMg4O5
_chemical_formula_sum              "Cl1 Mg4 O5"
_cell_length_a       4.543076918165076
_cell_length_b       5.542049008520678
_cell_length_c       6.057491779327393
_cell_angle_alpha    93.41777863452329
_cell_angle_beta     88.43061654819078
_cell_angle_gamma    92.34197340998539

_space_group_name_H-M_alt    "P 1"
_space_group_IT_number       1

loop_
  _space_group_symop_operation_xyz
  'x, y, z'

loop_
  _atom_site_type_symbol
  _atom_site_label
  _atom_site_symmetry_multiplicity
  _atom_site_fract_x
  _atom_site_fract_y
  _atom_site_fract_z
  _atom_site_occupancy
  Cl  Cl1       1.0  0.5193854570388794  0.8378858566284181  0.5249552130699158  1.0000
  Mg  Mg1       1.0  0.033777739852666855  0.49193781614303594  0.009115340188145643  1.0000
  Mg  Mg2       1.0  0.2707962393760681  0.9780393838882447  0.28430047631263733  1.0000
  Mg  Mg3       1.0  0.05412812158465386  0.9773439168930055  0.7896932959556581  1.0000
  Mg  Mg4       1.0  0.5606700778007507  0.14144925773143768  0.06273054331541061  1.0000
  O   O1        1.0  0.5483800172805786  0.5218581557273865  0.5706265568733215  1.0000
  O   O2        1.0  0.5575893521308899  0.03327619656920433  0.9933435916900636  1.0000
  O   O3        1.0  0.5130152106285095  0.14461442828178406  0.217066764831543  1.0000
  O   O4        1.0  0.03824056312441826  0.4722124636173249  0.5597419142723083  1.0000
  O   O5        1.0  0.053424734622240067  0.6575875282287598  0.12682951986789703  1.0000
