data_image0
_chemical_formula_structural       Cl2Mg4O4
_chemical_formula_sum              "Cl2 Mg4 O4"
_cell_length_a       4.7833934844230015
_cell_length_b       5.504492043953624
_cell_length_c       5.559037685394287
_cell_angle_alpha    59.55083564890519
_cell_angle_beta     49.19634346631732
_cell_angle_gamma    37.71171049219764

_space_group_name_H-M_alt    "P 1"
_space_group_IT_number       1

loop_
  _space_group_symop_operation_xyz
  'x, y, z'

loop_
  _atom_site_type_symbol
  _atom_site_label
  _atom_site_symmetry_multiplicity
  _atom_site_fract_x
  _atom_site_fract_y
  _atom_site_fract_z
  _atom_site_occupancy
  Cl  Cl1       1.0  0.8352218866348267  0.8038053512573242  0.24541883170604709  1.0000
  Cl  Cl2       1.0  0.4048607051372528  0.5617589354515076  0.6683698892593384  1.0000
  Mg  Mg1       1.0  0.33439871668815613  0.7728487849235535  0.9016111493110658  1.0000
  Mg  Mg2       1.0  0.3410283625125885  0.309593141078949  0.2358745485544205  1.0000
  Mg  Mg3       1.0  0.8138992190361023  0.3041471242904663  0.9328535795211793  1.0000
  Mg  Mg4       1.0  0.7296199202537537  0.055162906646728516  0.07788611948490143  1.0000
  O   O1        1.0  0.31432318687438965  0.7844479084014893  0.08357164263725281  1.0000
  O   O2        1.0  0.08115051686763763  0.8691565990447998  0.8290331959724427  1.0000
  O   O3        1.0  0.3581826388835907  0.7329664826393127  0.9928169250488282  1.0000
  O   O4        1.0  0.8293319344520569  0.6817970871925354  0.8372442722320556  1.0000
