data_image0
_chemical_formula_structural       As6K2Ta2
_chemical_formula_sum              "As6 K2 Ta2"
_cell_length_a       6.278264812312964
_cell_length_b       7.290261568614759
_cell_length_c       8.456287384033203
_cell_angle_alpha    111.46502021951477
_cell_angle_beta     88.22528837504943
_cell_angle_gamma    108.01145877431111

_space_group_name_H-M_alt    "P 1"
_space_group_IT_number       1

loop_
  _space_group_symop_operation_xyz
  'x, y, z'

loop_
  _atom_site_type_symbol
  _atom_site_label
  _atom_site_symmetry_multiplicity
  _atom_site_fract_x
  _atom_site_fract_y
  _atom_site_fract_z
  _atom_site_occupancy
  As  As1       1.0  0.7693892121315004  0.7324751615524292  0.8708245158195496  1.0000
  As  As2       1.0  0.43984660506248485  0.9924200773239137  0.9036145806312561  1.0000
  As  As3       1.0  0.24288313090801242  0.09924694895744325  0.39562177658081055  1.0000
  As  As4       1.0  0.9942041635513307  0.9681180119514466  0.6856145858764648  1.0000
  As  As5       1.0  0.4754419922828675  0.7234219312667847  0.8361383080482483  1.0000
  As  As6       1.0  0.9174402952194215  0.4329271614551545  0.5218981504440308  1.0000
  K   K1        1.0  0.45977297425270086  0.7269633412361145  0.16109949350357058  1.0000
  K   K2        1.0  0.9349548220634462  0.40162003040313726  0.12066811323165894  1.0000
  Ta  Ta1       1.0  0.9202575087547303  0.42911565303802496  0.35700881481170654  1.0000
  Ta  Ta2       1.0  0.4444010257720948  0.439510852098465  0.06701658666133883  1.0000
