data_image0
_chemical_formula_structural       As6KNTa2
_chemical_formula_sum              "As6 K1 N1 Ta2"
_cell_length_a       5.462656150653546
_cell_length_b       6.545343283582141
_cell_length_c       9.526778221130371
_cell_angle_alpha    94.7407992068051
_cell_angle_beta     89.09746556446385
_cell_angle_gamma    113.69484357395451

_space_group_name_H-M_alt    "P 1"
_space_group_IT_number       1

loop_
  _space_group_symop_operation_xyz
  'x, y, z'

loop_
  _atom_site_type_symbol
  _atom_site_label
  _atom_site_symmetry_multiplicity
  _atom_site_fract_x
  _atom_site_fract_y
  _atom_site_fract_z
  _atom_site_occupancy
  As  As1       1.0  0.18731233477592468  0.5294197201728821  0.5668572783470154  1.0000
  As  As2       1.0  0.27823305130004883  0.020300284028053284  0.12206532061100006  1.0000
  As  As3       1.0  0.8634295463562012  0.3154885172843933  0.3849849998950958  1.0000
  As  As4       1.0  0.4687860310077667  0.024835551157593727  0.6034581661224365  1.0000
  As  As5       1.0  0.9365738034248352  0.2569836378097534  0.7387692928314209  1.0000
  As  As6       1.0  0.8678196668624878  0.03419391065835953  0.5155510306358337  1.0000
  K   K1        1.0  0.5105427503585815  0.316461980342865  0.3677334785461426  1.0000
  N   N1        1.0  0.8288027048110962  0.5296445488929749  0.1842983514070511  1.0000
  Ta  Ta1       1.0  0.46668341755867004  0.5227445363998413  0.08314085751771927  1.0000
  Ta  Ta2       1.0  0.14307738840579987  0.669651448726654  0.8287883400917053  1.0000
