data_image0
_chemical_formula_structural       As5K2Ta3
_chemical_formula_sum              "As5 K2 Ta3"
_cell_length_a       4.811852788374779
_cell_length_b       6.949990949820653
_cell_length_c       7.612069129943848
_cell_angle_alpha    78.48677454232073
_cell_angle_beta     71.18778683901301
_cell_angle_gamma    72.65989303813271

_space_group_name_H-M_alt    "P 1"
_space_group_IT_number       1

loop_
  _space_group_symop_operation_xyz
  'x, y, z'

loop_
  _atom_site_type_symbol
  _atom_site_label
  _atom_site_symmetry_multiplicity
  _atom_site_fract_x
  _atom_site_fract_y
  _atom_site_fract_z
  _atom_site_occupancy
  As  As1       1.0  0.5170598030090332  0.529802143573761  0.7647929787635803  1.0000
  As  As2       1.0  0.4618055522441864  0.21982963383197787  0.9729767441749573  1.0000
  As  As3       1.0  0.8603881001472473  0.4804327487945557  0.6402537226676941  1.0000
  As  As4       1.0  0.9268503785133362  0.43533036112785345  0.8998270034790039  1.0000
  As  As5       1.0  0.03654181957244868  0.9758916497230531  0.6379997730255127  1.0000
  K   K1        1.0  0.1858843713998794  0.8892408013343812  0.9438120126724243  1.0000
  K   K2        1.0  0.042604364454746246  0.29811474680900574  0.7337867617607117  1.0000
  Ta  Ta1       1.0  0.6926546096801758  0.6352450847625732  0.40548256039619446  1.0000
  Ta  Ta2       1.0  0.4933091998100281  0.27493417263031006  0.17710542678833008  1.0000
  Ta  Ta3       1.0  0.9926328659057617  0.1403464823961258  0.1796532869338989  1.0000
