data_image0
_chemical_formula_structural       As4KTa5
_chemical_formula_sum              "As4 K1 Ta5"
_cell_length_a       6.0282237096449816
_cell_length_b       6.23849029503762
_cell_length_c       8.19654655456543
_cell_angle_alpha    100.21787740460795
_cell_angle_beta     89.14839474481293
_cell_angle_gamma    111.38656208803971

_space_group_name_H-M_alt    "P 1"
_space_group_IT_number       1

loop_
  _space_group_symop_operation_xyz
  'x, y, z'

loop_
  _atom_site_type_symbol
  _atom_site_label
  _atom_site_symmetry_multiplicity
  _atom_site_fract_x
  _atom_site_fract_y
  _atom_site_fract_z
  _atom_site_occupancy
  As  As1       1.0  0.12770619988441467  0.42783012986183167  0.036346230655908585  1.0000
  As  As2       1.0  0.8357094526290895  0.9291108250617981  0.563083291053772  1.0000
  As  As3       1.0  0.35160356760025024  0.5878393054008484  0.016595296561717987  1.0000
  As  As4       1.0  0.6089237928390503  0.11819911003112793  0.3053782880306244  1.0000
  K   K1        1.0  0.7991132140159608  0.2753433585166931  0.35013917088508606  1.0000
  Ta  Ta1       1.0  0.8457313776016236  0.3973344564437866  0.5884586572647095  1.0000
  Ta  Ta2       1.0  0.39090162515640264  0.1805042326450348  0.6912298798561096  1.0000
  Ta  Ta3       1.0  0.34169256687164307  0.3969161808490753  0.5154571533203125  1.0000
  Ta  Ta4       1.0  0.09398055821657181  0.9333017468452454  0.10494348406791687  1.0000
  Ta  Ta5       1.0  0.8402094841003419  0.9107266664505005  0.668513298034668  1.0000
