data_image0
_chemical_formula_structural       As3K4Ta3
_chemical_formula_sum              "As3 K4 Ta3"
_cell_length_a       5.270547891367398
_cell_length_b       5.689743451229674
_cell_length_c       7.500571250915527
_cell_angle_alpha    71.35654342640132
_cell_angle_beta     68.11146761954286
_cell_angle_gamma    65.23945613585676

_space_group_name_H-M_alt    "P 1"
_space_group_IT_number       1

loop_
  _space_group_symop_operation_xyz
  'x, y, z'

loop_
  _atom_site_type_symbol
  _atom_site_label
  _atom_site_symmetry_multiplicity
  _atom_site_fract_x
  _atom_site_fract_y
  _atom_site_fract_z
  _atom_site_occupancy
  As  As1       1.0  0.2720889151096344  0.1765109896659851  0.24815650284290314  1.0000
  As  As2       1.0  0.7340394258499146  0.013969951309263704  0.030534321442246437  1.0000
  As  As3       1.0  0.3390374481678009  0.5291297435760498  0.16999514400959015  1.0000
  K   K1        1.0  0.10056053102016449  0.7451623678207397  0.7744410634040833  1.0000
  K   K2        1.0  0.7668115496635437  0.7346497774124146  0.5348017811775208  1.0000
  K   K3        1.0  0.16368083655834198  0.7307361960411072  0.5252020955085754  1.0000
  K   K4        1.0  0.5011152625083923  0.7140634655952454  0.7836317420005798  1.0000
  Ta  Ta1       1.0  0.10489486157894135  0.28372547030448914  0.13628768920898438  1.0000
  Ta  Ta2       1.0  0.10830415040254593  0.2947990894317627  0.7160412669181824  1.0000
  Ta  Ta3       1.0  0.726913332939148  0.14221562445163727  0.34593141078948975  1.0000
