data_image0
_chemical_formula_structural       As5Ta5
_chemical_formula_sum              "As5 Ta5"
_cell_length_a       6.7197797950857385
_cell_length_b       6.524016431762283
_cell_length_c       9.302574157714844
_cell_angle_alpha    90.10165273734377
_cell_angle_beta     89.34436381223614
_cell_angle_gamma    114.95200311347237

_space_group_name_H-M_alt    "P 1"
_space_group_IT_number       1

loop_
  _space_group_symop_operation_xyz
  'x, y, z'

loop_
  _atom_site_type_symbol
  _atom_site_label
  _atom_site_symmetry_multiplicity
  _atom_site_fract_x
  _atom_site_fract_y
  _atom_site_fract_z
  _atom_site_occupancy
  As  As1       1.0  0.9530970454216003  0.7315660715103149  0.9789542555809021  1.0000
  As  As2       1.0  0.7347458004951477  0.7483248710632324  0.11364353448152542  1.0000
  As  As3       1.0  0.07015816867351532  0.018401678651571274  0.9096131324768066  1.0000
  As  As4       1.0  0.2093902826309204  0.5608130693435669  0.4348033666610718  1.0000
  As  As5       1.0  0.9476067423820496  0.4221997857093811  0.8371030688285828  1.0000
  Ta  Ta1       1.0  0.9540036916732788  0.4775311350822449  0.8143513202667236  1.0000
  Ta  Ta2       1.0  0.4553442597389221  0.6537265777587891  0.5965848565101624  1.0000
  Ta  Ta3       1.0  0.25140130519866943  0.42547258734703064  0.11250375956296921  1.0000
  Ta  Ta4       1.0  0.30235591530799866  0.2373497188091278  0.529569149017334  1.0000
  Ta  Ta5       1.0  0.08790023624897003  0.9189335703849792  0.6161513924598694  1.0000
