data_image0
_chemical_formula_structural       HMg6MnNiOZn3Zr2
_chemical_formula_sum              "H1 Mg6 Mn1 Ni1 O1 Zn3 Zr2"
_cell_length_a       7.932331277827859
_cell_length_b       7.544276123646121
_cell_length_c       7.806962013244629
_cell_angle_alpha    58.132646731973125
_cell_angle_beta     60.70708930286609
_cell_angle_gamma    57.48582447909445

_space_group_name_H-M_alt    "P 1"
_space_group_IT_number       1

loop_
  _space_group_symop_operation_xyz
  'x, y, z'

loop_
  _atom_site_type_symbol
  _atom_site_label
  _atom_site_symmetry_multiplicity
  _atom_site_fract_x
  _atom_site_fract_y
  _atom_site_fract_z
  _atom_site_occupancy
  H   H1        1.0  0.13651207089424133  0.09841354191303253  0.9884734749794006  1.0000
  Mg  Mg1       1.0  0.4285615086555481  0.41772836446762085  0.2909107208251953  1.0000
  Mg  Mg2       1.0  0.7127845287322998  0.8358965516090393  0.9479480981826782  1.0000
  Mg  Mg3       1.0  0.13311687111854553  0.15113608539104462  0.9258257150650024  1.0000
  Mg  Mg4       1.0  0.9619954824447632  0.9139373302459717  0.014212850481271744  1.0000
  Mg  Mg5       1.0  0.6283639669418335  0.06245029717683792  0.8489709496498108  1.0000
  Mg  Mg6       1.0  0.12265858799219131  0.5977562069892883  0.02509557642042637  1.0000
  Mn  Mn1       1.0  0.12555895745754242  0.07440268248319626  0.7895588874816895  1.0000
  Ni  Ni1       1.0  0.47155678272247314  0.9317054748535156  0.9763182401657104  1.0000
  O   O1        1.0  0.794084370136261  0.8982073664665222  0.23549848794937134  1.0000
  Zn  Zn1       1.0  0.7149810791015625  0.9249962568283081  0.19982953369617462  1.0000
  Zn  Zn2       1.0  0.6250672936439514  0.11709091067314148  0.16732154786586761  1.0000
  Zn  Zn3       1.0  0.6831710338592529  0.07984498888254166  0.5334643721580505  1.0000
  Zr  Zr1       1.0  0.7057395577430725  0.638701319694519  0.35812056064605713  1.0000
  Zr  Zr2       1.0  0.7658393383026123  0.9406618475914001  0.27074432373046875  1.0000
