data_image0
_chemical_formula_structural       Al2InLuMg4Mn3ZnZr3
_chemical_formula_sum              "Al2 In1 Lu1 Mg4 Mn3 Zn1 Zr3"
_cell_length_a       7.7050098253960675
_cell_length_b       7.749519843366254
_cell_length_c       7.2518792152404785
_cell_angle_alpha    62.92019497641465
_cell_angle_beta     61.476193891892635
_cell_angle_gamma    60.353483187099684

_space_group_name_H-M_alt    "P 1"
_space_group_IT_number       1

loop_
  _space_group_symop_operation_xyz
  'x, y, z'

loop_
  _atom_site_type_symbol
  _atom_site_label
  _atom_site_symmetry_multiplicity
  _atom_site_fract_x
  _atom_site_fract_y
  _atom_site_fract_z
  _atom_site_occupancy
  Al  Al1       1.0  0.4619390964508056  0.6749405264854431  0.19202300906181335  1.0000
  Al  Al2       1.0  0.9498750567436217  0.3158295452594757  0.4623432755470277  1.0000
  In  In1       1.0  0.45165893435478205  0.5049585700035095  0.45965078473091125  1.0000
  Lu  Lu1       1.0  0.4628543555736541  0.2808786630630493  0.18853147327899933  1.0000
  Mg  Mg1       1.0  0.43503627181053156  0.7979681491851807  0.5955550074577332  1.0000
  Mg  Mg2       1.0  0.8972274661064147  0.6844175457954407  0.2289016991853714  1.0000
  Mg  Mg3       1.0  0.42776799201965326  0.8509202003479004  0.10779158025979996  1.0000
  Mg  Mg4       1.0  0.977691888809204  0.8018170595169067  0.34120053052902233  1.0000
  Mn  Mn1       1.0  0.4656317830085754  0.304866760969162  0.5525657534599304  1.0000
  Mn  Mn2       1.0  0.9421613812446593  0.8020374178886414  0.5841531753540039  1.0000
  Mn  Mn3       1.0  0.9730301499366759  0.7825716137886047  0.3201924264431  1.0000
  Zn  Zn1       1.0  0.4754852652549743  0.2777683734893799  0.0669473186135292  1.0000
  Zr  Zr1       1.0  0.9412056803703307  0.459155410528183  0.4563332200050355  1.0000
  Zr  Zr2       1.0  0.4804688990116119  0.021598931401968002  0.85872483253479  1.0000
  Zr  Zr3       1.0  0.9725608229637145  0.23464548587799072  0.3988519608974458  1.0000
