data_image0
_chemical_formula_structural       AlCuFMg5OPRuZn2Zr2
_chemical_formula_sum              "Al1 Cu1 F1 Mg5 O1 P1 Ru1 Zn2 Zr2"
_cell_length_a       7.682503995990107
_cell_length_b       7.393004248085064
_cell_length_c       7.4755682945251465
_cell_angle_alpha    59.23787823690192
_cell_angle_beta     62.09409028336279
_cell_angle_gamma    59.58351844756189

_space_group_name_H-M_alt    "P 1"
_space_group_IT_number       1

loop_
  _space_group_symop_operation_xyz
  'x, y, z'

loop_
  _atom_site_type_symbol
  _atom_site_label
  _atom_site_symmetry_multiplicity
  _atom_site_fract_x
  _atom_site_fract_y
  _atom_site_fract_z
  _atom_site_occupancy
  Al  Al1       1.0  0.6461325883865356  0.29956769943237305  0.17422707378864283  1.0000
  Cu  Cu1       1.0  0.6488065719604492  0.9098604321479797  0.8225997686386108  1.0000
  F   F1        1.0  0.7505360245704652  0.18775051832199097  0.1959152370691299  1.0000
  Mg  Mg1       1.0  0.05722194910049439  0.1235533058643341  0.5954089164733887  1.0000
  Mg  Mg2       1.0  0.6210201978683472  0.8607631921768188  0.17242579162120808  1.0000
  Mg  Mg3       1.0  0.7720139026641847  0.3055821657180786  0.8952469229698182  1.0000
  Mg  Mg4       1.0  0.7139585614204408  0.8739816546440125  0.3833359479904175  1.0000
  Mg  Mg5       1.0  0.20444153249263766  0.4480605125427246  0.20731154084205627  1.0000
  O   O1        1.0  0.9042234420776368  0.686769962310791  0.08248737454414357  1.0000
  P   P1        1.0  0.629167377948761  0.8324158191680908  0.9831809401512147  1.0000
  Ru  Ru1       1.0  0.06101916730403901  0.7501009702682495  0.2273677140474319  1.0000
  Zn  Zn1       1.0  0.9734355807304383  0.4212937653064728  0.9902710318565369  1.0000
  Zn  Zn2       1.0  0.21129152178764346  0.2888045310974121  0.07836045324802399  1.0000
  Zr  Zr1       1.0  0.18479523062705996  0.18447794020175934  0.9549403786659242  1.0000
  Zr  Zr2       1.0  0.6917638182640077  0.9685297608375549  0.2403683513402939  1.0000
