data_image0
_chemical_formula_structural       CuGd2MgMn6O5
_chemical_formula_sum              "Cu1 Gd2 Mg1 Mn6 O5"
_cell_length_a       6.325628504773244
_cell_length_b       6.336440678354877
_cell_length_c       6.173594951629639
_cell_angle_alpha    109.2670345771708
_cell_angle_beta     106.69878152090959
_cell_angle_gamma    107.71372899341792

_space_group_name_H-M_alt    "P 1"
_space_group_IT_number       1

loop_
  _space_group_symop_operation_xyz
  'x, y, z'

loop_
  _atom_site_type_symbol
  _atom_site_label
  _atom_site_symmetry_multiplicity
  _atom_site_fract_x
  _atom_site_fract_y
  _atom_site_fract_z
  _atom_site_occupancy
  Cu  Cu1       1.0  0.13357394933700562  0.9922300577163696  0.9927884340286255  1.0000
  Gd  Gd1       1.0  0.6327947974205017  0.15520823001861572  0.819404661655426  1.0000
  Gd  Gd2       1.0  0.12995277345180511  0.9607830047607422  0.5555646419525146  1.0000
  Mg  Mg1       1.0  0.6260864734649658  0.8555089831352234  0.08517881482839591  1.0000
  Mn  Mn1       1.0  0.10131065547466278  0.2298334240913391  0.8158724308013916  1.0000
  Mn  Mn2       1.0  0.6346465945243835  0.9512155055999756  0.22111399471759796  1.0000
  Mn  Mn3       1.0  0.6288502216339111  0.06605710089206696  0.6162867546081543  1.0000
  Mn  Mn4       1.0  0.1319027841091156  0.09829006344079971  0.7335526347160339  1.0000
  Mn  Mn5       1.0  0.13013684749603271  0.2586357593536377  0.5310407876968384  1.0000
  Mn  Mn6       1.0  0.6246744990348816  0.5338876843452454  0.5702621936798096  1.0000
  O   O1        1.0  0.10957127064466476  0.49358922243118286  0.08773919939994812  1.0000
  O   O2        1.0  0.09757063537836075  0.8390060067176819  0.402412474155426  1.0000
  O   O3        1.0  0.1204073876142502  0.7596068382263184  0.10899751633405692  1.0000
  O   O4        1.0  0.623322069644928  0.7166218161582947  0.5277512669563293  1.0000
  O   O5        1.0  0.3472634255886078  0.9102173447608948  0.2159752845764161  1.0000
