data_image0
_chemical_formula_structural       CuGd2MgMn7O4
_chemical_formula_sum              "Cu1 Gd2 Mg1 Mn7 O4"
_cell_length_a       5.006942476411322
_cell_length_b       6.423107764746357
_cell_length_c       6.406500816345215
_cell_angle_alpha    97.47108862685992
_cell_angle_beta     90.02988441254638
_cell_angle_gamma    89.02332517784689

_space_group_name_H-M_alt    "P 1"
_space_group_IT_number       1

loop_
  _space_group_symop_operation_xyz
  'x, y, z'

loop_
  _atom_site_type_symbol
  _atom_site_label
  _atom_site_symmetry_multiplicity
  _atom_site_fract_x
  _atom_site_fract_y
  _atom_site_fract_z
  _atom_site_occupancy
  Cu  Cu1       1.0  0.19450806081295013  0.13807934522628784  0.9693049192428589  1.0000
  Gd  Gd1       1.0  0.4526330530643463  0.011270531453192234  0.31363043189048767  1.0000
  Gd  Gd2       1.0  0.20140047371387482  0.8157846927642822  0.33129003643989563  1.0000
  Mg  Mg1       1.0  0.20726358890533447  0.2876048982143402  0.08720135688781738  1.0000
  Mn  Mn1       1.0  0.48223358392715454  0.3784351348876953  0.2954508364200592  1.0000
  Mn  Mn2       1.0  0.7065584659576416  0.18404805660247803  0.38756296038627625  1.0000
  Mn  Mn3       1.0  0.30295151472091675  0.9826170206069946  0.6142399311065674  1.0000
  Mn  Mn4       1.0  0.9357436299324036  0.09256605803966522  0.9581326246261597  1.0000
  Mn  Mn5       1.0  0.946080207824707  0.3087134063243866  0.7773763537406921  1.0000
  Mn  Mn6       1.0  0.7018254399299622  0.5391552448272705  0.5898193120956421  1.0000
  Mn  Mn7       1.0  0.7149456739425659  0.5015061497688293  0.006707719061523685  1.0000
  O   O1        1.0  0.9619773030281067  0.14020437002182007  0.3222401738166809  1.0000
  O   O2        1.0  0.7011078000068665  0.3722464144229889  0.9094670414924622  1.0000
  O   O3        1.0  0.5238913893699646  0.024362964555621147  0.43747952580451965  1.0000
  O   O4        1.0  0.43828147649765015  0.09784802049398422  0.9432329535484314  1.0000
