data_image0
_chemical_formula_structural       Mg3MnO5SrZn4Zr
_chemical_formula_sum              "Mg3 Mn1 O5 Sr1 Zn4 Zr1"
_cell_length_a       7.131305493091826
_cell_length_b       6.89800665833789
_cell_length_c       8.134207725524902
_cell_angle_alpha    63.811377220989364
_cell_angle_beta     63.48669797052934
_cell_angle_gamma    57.15411976874425

_space_group_name_H-M_alt    "P 1"
_space_group_IT_number       1

loop_
  _space_group_symop_operation_xyz
  'x, y, z'

loop_
  _atom_site_type_symbol
  _atom_site_label
  _atom_site_symmetry_multiplicity
  _atom_site_fract_x
  _atom_site_fract_y
  _atom_site_fract_z
  _atom_site_occupancy
  Mg  Mg1       1.0  0.9978557825088501  0.8590616583824158  0.1303592473268509  1.0000
  Mg  Mg2       1.0  0.45157477259635925  0.8284227252006531  0.784999668598175  1.0000
  Mg  Mg3       1.0  0.4511599540710449  0.6217082738876343  0.7902799248695374  1.0000
  Mn  Mn1       1.0  0.573481023311615  0.9899313449859619  0.1598120927810669  1.0000
  O   O1        1.0  0.8681986927986145  0.6960882544517517  0.9702631235122681  1.0000
  O   O2        1.0  0.7789381742477417  0.9251012802124023  0.3312751054763794  1.0000
  O   O3        1.0  0.1547716110944748  0.858873188495636  0.12446887791156769  1.0000
  O   O4        1.0  0.3011757731437683  0.1442810595035553  0.8665135502815247  1.0000
  O   O5        1.0  0.0612969845533371  0.3514538109302521  0.37516677379608154  1.0000
  Sr  Sr1       1.0  0.060739219188690186  0.09960738569498062  0.6445398926734924  1.0000
  Zn  Zn1       1.0  0.5379282832145691  0.429070383310318  0.4476218521595001  1.0000
  Zn  Zn2       1.0  0.5529290437698364  0.43018850684165955  0.26222848892211914  1.0000
  Zn  Zn3       1.0  0.9374226331710815  0.9678969383239746  0.44285833835601807  1.0000
  Zn  Zn4       1.0  0.4606937766075134  0.2899453639984131  0.11605419218540192  1.0000
  Zr  Zr1       1.0  0.13529478013515472  0.2489178329706192  0.5429983735084534  1.0000
