data_image0
_chemical_formula_structural       Dy5InOTbUZn
_chemical_formula_sum              "Dy5 In1 O1 Tb1 U1 Zn1"
_cell_length_a       5.933211606376428
_cell_length_b       6.154003015220895
_cell_length_c       6.493551731109619
_cell_angle_alpha    118.91026268364094
_cell_angle_beta     119.70338905332721
_cell_angle_gamma    91.00183993308104

_space_group_name_H-M_alt    "P 1"
_space_group_IT_number       1

loop_
  _space_group_symop_operation_xyz
  'x, y, z'

loop_
  _atom_site_type_symbol
  _atom_site_label
  _atom_site_symmetry_multiplicity
  _atom_site_fract_x
  _atom_site_fract_y
  _atom_site_fract_z
  _atom_site_occupancy
  Dy  Dy1       1.0  0.11671800166368484  0.7971956729888916  0.5625110864639282  1.0000
  Dy  Dy2       1.0  0.5226355791091919  0.23838403820991516  0.05566282942891121  1.0000
  Dy  Dy3       1.0  0.9626417756080627  0.7428838014602661  0.5759772658348083  1.0000
  Dy  Dy4       1.0  0.05991154909133911  0.016614733263850212  0.06741157174110413  1.0000
  Dy  Dy5       1.0  0.4790630340576172  0.3836866617202759  0.5130203366279602  1.0000
  In  In1       1.0  0.10109284520149231  0.8911048769950867  0.2349400669336319  1.0000
  O   O1        1.0  0.2506294250488281  0.9802613258361816  0.8266830444335938  1.0000
  Tb  Tb1       1.0  0.9542505741119385  0.23937749862670898  0.1835942417383194  1.0000
  U   U1        1.0  0.5807018280029297  0.5536828637123108  0.41641005873680115  1.0000
  Zn  Zn1       1.0  0.4784051477909088  0.9870259165763855  0.5890660285949707  1.0000
