data_image0
_chemical_formula_structural       CoDy6GaLaSb
_chemical_formula_sum              "Co1 Dy6 Ga1 La1 Sb1"
_cell_length_a       5.3874030211749435
_cell_length_b       5.0996214167728695
_cell_length_c       5.897485256195068
_cell_angle_alpha    118.2794858180298
_cell_angle_beta     113.74892866079682
_cell_angle_gamma    114.38400016409581

_space_group_name_H-M_alt    "P 1"
_space_group_IT_number       1

loop_
  _space_group_symop_operation_xyz
  'x, y, z'

loop_
  _atom_site_type_symbol
  _atom_site_label
  _atom_site_symmetry_multiplicity
  _atom_site_fract_x
  _atom_site_fract_y
  _atom_site_fract_z
  _atom_site_occupancy
  Co  Co1       1.0  0.6904362440109253  0.8816462159156799  0.19047263264656064  1.0000
  Dy  Dy1       1.0  0.3774507045745849  0.343775063753128  0.5264335870742797  1.0000
  Dy  Dy2       1.0  0.06687729805707932  0.7948442101478577  0.054591864347457816  1.0000
  Dy  Dy3       1.0  0.041405245661735444  0.6845849156379699  0.6822845935821532  1.0000
  Dy  Dy4       1.0  0.8758267164230347  0.25311905145645136  0.34443229436874384  1.0000
  Dy  Dy5       1.0  0.8522837162017822  0.45309552550315846  0.8130807876586913  1.0000
  Dy  Dy6       1.0  0.5669286251068115  0.0012189125409349793  0.0027573036495595767  1.0000
  Ga  Ga1       1.0  0.19533015787601474  0.40785390138626104  0.8091889023780823  1.0000
  La  La1       1.0  0.7349116206169128  0.9869167804718018  0.5978623628616332  1.0000
  Sb  Sb1       1.0  0.6236358880996704  0.29938346147537226  0.5134420990943908  1.0000
