data_image0
_chemical_formula_structural       DyO6Ta3
_chemical_formula_sum              "Dy1 O6 Ta3"
_cell_length_a       3.9986986855529603
_cell_length_b       3.5341320317754663
_cell_length_c       5.634654998779297
_cell_angle_alpha    94.59893456905615
_cell_angle_beta     87.21537734761485
_cell_angle_gamma    89.47297616642946

_space_group_name_H-M_alt    "P 1"
_space_group_IT_number       1

loop_
  _space_group_symop_operation_xyz
  'x, y, z'

loop_
  _atom_site_type_symbol
  _atom_site_label
  _atom_site_symmetry_multiplicity
  _atom_site_fract_x
  _atom_site_fract_y
  _atom_site_fract_z
  _atom_site_occupancy
  Dy  Dy1       1.0  0.43395295739173895  0.22680465877056122  0.514325737953186  1.0000
  O   O1        1.0  0.38275462388992315  0.4086856544017792  0.6702389717102051  1.0000
  O   O2        1.0  0.7836804986000062  0.9570501446723938  0.2658732831478119  1.0000
  O   O3        1.0  0.7998493313789369  0.966549813747406  0.5888434648513794  1.0000
  O   O4        1.0  0.0680796280503273  0.8475418090820312  0.06899368017911911  1.0000
  O   O5        1.0  0.48201647400856024  0.1925252228975296  0.33627334237098694  1.0000
  O   O6        1.0  0.6148270368576051  0.22687992453575134  0.5488453507423401  1.0000
  Ta  Ta1       1.0  0.7622756958007814  0.6344574689865112  0.42544400691986084  1.0000
  Ta  Ta2       1.0  0.6109212636947633  0.6323466300964355  0.9425316452980042  1.0000
  Ta  Ta3       1.0  0.07649964839220048  0.02675839513540268  0.4601452946662903  1.0000
