data_image0
_chemical_formula_structural       Dy3O4Ta3
_chemical_formula_sum              "Dy3 O4 Ta3"
_cell_length_a       4.113889040342818
_cell_length_b       3.7556681915195766
_cell_length_c       5.785688400268555
_cell_angle_alpha    111.77503278573636
_cell_angle_beta     105.33522066681596
_cell_angle_gamma    130.41272689061415

_space_group_name_H-M_alt    "P 1"
_space_group_IT_number       1

loop_
  _space_group_symop_operation_xyz
  'x, y, z'

loop_
  _atom_site_type_symbol
  _atom_site_label
  _atom_site_symmetry_multiplicity
  _atom_site_fract_x
  _atom_site_fract_y
  _atom_site_fract_z
  _atom_site_occupancy
  Dy  Dy1       1.0  0.05693516135215739  0.3053558468818662  0.7457119822502135  1.0000
  Dy  Dy2       1.0  0.5257064700126648  0.18321013450622559  0.15419071912765503  1.0000
  Dy  Dy3       1.0  0.5124118328094482  0.6488907933235168  0.10982924699783322  1.0000
  O   O1        1.0  0.09712448716163635  0.5281806588172913  0.6185466051101685  1.0000
  O   O2        1.0  0.6663746237754822  0.8730419278144836  0.14557595551013944  1.0000
  O   O3        1.0  0.9978525042533873  0.40005493164062483  0.6887932419776915  1.0000
  O   O4        1.0  0.8930577635765076  0.5836869478225707  0.2788241803646087  1.0000
  Ta  Ta1       1.0  0.2701612114906311  0.9648626446723938  0.07763726264238356  1.0000
  Ta  Ta2       1.0  0.5301651358604429  0.643389284610748  0.983094036579132  1.0000
  Ta  Ta3       1.0  0.5893307328224181  0.24726440012454975  0.46747851371765126  1.0000
