data_image0
_chemical_formula_structural       Dy8O2
_chemical_formula_sum              "Dy8 O2"
_cell_length_a       3.9978545005486525
_cell_length_b       4.179970424534285
_cell_length_c       7.155339241027832
_cell_angle_alpha    119.19919482015592
_cell_angle_beta     95.3674125009611
_cell_angle_gamma    138.07806177020623

_space_group_name_H-M_alt    "P 1"
_space_group_IT_number       1

loop_
  _space_group_symop_operation_xyz
  'x, y, z'

loop_
  _atom_site_type_symbol
  _atom_site_label
  _atom_site_symmetry_multiplicity
  _atom_site_fract_x
  _atom_site_fract_y
  _atom_site_fract_z
  _atom_site_occupancy
  Dy  Dy1       1.0  0.5322467088699341  0.3888814449310303  0.4028151333332062  1.0000
  Dy  Dy2       1.0  0.05705547332763694  0.6471205949783327  0.4096678197383881  1.0000
  Dy  Dy3       1.0  0.6086153984069826  0.938669323921204  0.6249925494194032  1.0000
  Dy  Dy4       1.0  0.9697628021240234  0.6350409388542175  0.9531853795051575  1.0000
  Dy  Dy5       1.0  0.4837762713432313  0.33626100420951854  0.9774790406227112  1.0000
  Dy  Dy6       1.0  0.16936692595481873  0.16392934322357178  0.8101556301116943  1.0000
  Dy  Dy7       1.0  0.1064893826842308  0.9032284617424011  0.42697879672050476  1.0000
  Dy  Dy8       1.0  0.1435950994491576  0.022257039323449013  0.2947202920913696  1.0000
  O   O1        1.0  0.18119801580905914  0.9989014267921448  0.8501123189926147  1.0000
  O   O2        1.0  0.6720436215400695  0.2747836112976073  0.6856055855751038  1.0000
