data_image0
_chemical_formula_structural       Dy8OU
_chemical_formula_sum              "Dy8 O1 U1"
_cell_length_a       5.753627264850955
_cell_length_b       6.126460302947318
_cell_length_c       9.024142265319824
_cell_angle_alpha    80.84226032038053
_cell_angle_beta     72.33548100849447
_cell_angle_gamma    67.07849100972584

_space_group_name_H-M_alt    "P 1"
_space_group_IT_number       1

loop_
  _space_group_symop_operation_xyz
  'x, y, z'

loop_
  _atom_site_type_symbol
  _atom_site_label
  _atom_site_symmetry_multiplicity
  _atom_site_fract_x
  _atom_site_fract_y
  _atom_site_fract_z
  _atom_site_occupancy
  Dy  Dy1       1.0  0.19716496765613556  0.27226510643959045  0.3261604309082031  1.0000
  Dy  Dy2       1.0  0.20380741357803345  0.55413419008255  0.8237074017524719  1.0000
  Dy  Dy3       1.0  0.65975421667099  0.6470620632171631  0.6453202962875366  1.0000
  Dy  Dy4       1.0  0.3560788929462433  0.8147106766700745  0.3416893184185028  1.0000
  Dy  Dy5       1.0  0.6258143186569214  0.34908807277679443  0.7610660195350647  1.0000
  Dy  Dy6       1.0  0.6821412444114685  0.7814744710922241  0.7291218042373657  1.0000
  Dy  Dy7       1.0  0.8714292049407959  0.38347145915031433  0.8072007298469543  1.0000
  Dy  Dy8       1.0  0.7118412256240845  0.21221297979354858  0.5260555148124695  1.0000
  O   O1        1.0  0.8893996477127075  0.10799478739500046  0.26720529794692993  1.0000
  U   U1        1.0  0.17879916727542877  0.7299336194992065  0.15814349055290222  1.0000
