data_image0
_chemical_formula_structural       Eu2Ir4O4
_chemical_formula_sum              "Eu2 Ir4 O4"
_cell_length_a       5.0232567401844666
_cell_length_b       6.382644407157712
_cell_length_c       6.81173038482666
_cell_angle_alpha    100.201589677663
_cell_angle_beta     98.87883731438019
_cell_angle_gamma    108.59639064382414

_space_group_name_H-M_alt    "P 1"
_space_group_IT_number       1

loop_
  _space_group_symop_operation_xyz
  'x, y, z'

loop_
  _atom_site_type_symbol
  _atom_site_label
  _atom_site_symmetry_multiplicity
  _atom_site_fract_x
  _atom_site_fract_y
  _atom_site_fract_z
  _atom_site_occupancy
  Eu  Eu1       1.0  0.01726999506354332  0.22115075588226318  0.368693470954895  1.0000
  Eu  Eu2       1.0  0.5324475169181824  0.5541587471961975  0.39825519919395447  1.0000
  Ir  Ir1       1.0  0.3165115416049957  0.2083490490913391  0.9677574634552002  1.0000
  Ir  Ir2       1.0  0.9843639731407166  0.6978050470352173  0.6623610258102417  1.0000
  Ir  Ir3       1.0  0.5578275322914124  0.5339742302894592  0.45621976256370544  1.0000
  Ir  Ir4       1.0  0.541822612285614  0.8367841839790344  0.26394662261009216  1.0000
  O   O1        1.0  0.5487056970596313  0.07908414304256439  0.2701282203197479  1.0000
  O   O2        1.0  0.21500073373317719  0.9712265133857727  0.9132035374641418  1.0000
  O   O3        1.0  0.9595343470573425  0.7234697341918945  0.8716604113578796  1.0000
  O   O4        1.0  0.8095962405204773  0.3991481363773346  0.706089198589325  1.0000
