data_image0
_chemical_formula_structural       Eu4IrO5
_chemical_formula_sum              "Eu4 Ir1 O5"
_cell_length_a       5.067568078566988
_cell_length_b       5.980033382061083
_cell_length_c       6.972135066986084
_cell_angle_alpha    103.74838771964635
_cell_angle_beta     90.20120874012926
_cell_angle_gamma    114.5796837615876

_space_group_name_H-M_alt    "P 1"
_space_group_IT_number       1

loop_
  _space_group_symop_operation_xyz
  'x, y, z'

loop_
  _atom_site_type_symbol
  _atom_site_label
  _atom_site_symmetry_multiplicity
  _atom_site_fract_x
  _atom_site_fract_y
  _atom_site_fract_z
  _atom_site_occupancy
  Eu  Eu1       1.0  0.17692996561527252  0.7283942699432373  0.22748830914497373  1.0000
  Eu  Eu2       1.0  0.16136138141155243  0.2354341447353363  0.4444321990013122  1.0000
  Eu  Eu3       1.0  0.6432633399963379  0.16580753028392792  0.48337250947952265  1.0000
  Eu  Eu4       1.0  0.6274979710578918  0.49326133728027344  0.4521325826644897  1.0000
  Ir  Ir1       1.0  0.6325355172157288  0.832757294178009  0.15416580438613892  1.0000
  O   O1        1.0  0.9683359265327454  0.6414165496826172  0.2239396125078201  1.0000
  O   O2        1.0  0.27003341913223267  0.2128264307975769  0.7390428185462952  1.0000
  O   O3        1.0  0.7618553638458252  0.16125242412090302  0.7407930493354797  1.0000
  O   O4        1.0  0.6651474237442017  0.7650743126869202  0.9644705057144164  1.0000
  O   O5        1.0  0.25204604864120483  0.620032012462616  0.07742902636528015  1.0000
