data_image0
_chemical_formula_structural       Eu3Ir3O4
_chemical_formula_sum              "Eu3 Ir3 O4"
_cell_length_a       5.45433673938855
_cell_length_b       5.392936278795459
_cell_length_c       5.4994354248046875
_cell_angle_alpha    88.26693629731795
_cell_angle_beta     93.47107776606795
_cell_angle_gamma    111.74322806761091

_space_group_name_H-M_alt    "P 1"
_space_group_IT_number       1

loop_
  _space_group_symop_operation_xyz
  'x, y, z'

loop_
  _atom_site_type_symbol
  _atom_site_label
  _atom_site_symmetry_multiplicity
  _atom_site_fract_x
  _atom_site_fract_y
  _atom_site_fract_z
  _atom_site_occupancy
  Eu  Eu1       1.0  0.8067342042922974  0.02167925052344799  0.14192317426204681  1.0000
  Eu  Eu2       1.0  0.30506622791290283  0.022943230345845222  0.3211134374141693  1.0000
  Eu  Eu3       1.0  0.8005826473236084  0.5202842950820923  0.48059794306755066  1.0000
  Ir  Ir1       1.0  0.3140660524368286  0.5291407704353333  0.32152020931243896  1.0000
  Ir  Ir2       1.0  0.06943728774785995  0.5277169942855835  0.8224079608917236  1.0000
  Ir  Ir3       1.0  0.326977401971817  0.5238705277442932  0.5513522028923035  1.0000
  O   O1        1.0  0.5575705766677856  0.5244367122650146  0.8268453478813171  1.0000
  O   O2        1.0  0.0526716373860836  0.5215848684310913  0.8260539770126343  1.0000
  O   O3        1.0  0.3132445812225342  0.038023434579372406  0.5938562154769897  1.0000
  O   O4        1.0  0.5907273888587952  0.031001389026641846  0.8228097558021545  1.0000
