data_image0
_chemical_formula_structural       Eu2Ir4O4
_chemical_formula_sum              "Eu2 Ir4 O4"
_cell_length_a       5.333728796920534
_cell_length_b       5.844549157609708
_cell_length_c       7.010892868041992
_cell_angle_alpha    88.58593518893964
_cell_angle_beta     90.04853908136118
_cell_angle_gamma    110.55799475335738

_space_group_name_H-M_alt    "P 1"
_space_group_IT_number       1

loop_
  _space_group_symop_operation_xyz
  'x, y, z'

loop_
  _atom_site_type_symbol
  _atom_site_label
  _atom_site_symmetry_multiplicity
  _atom_site_fract_x
  _atom_site_fract_y
  _atom_site_fract_z
  _atom_site_occupancy
  Eu  Eu1       1.0  0.32720363140106207  0.9336231946945192  0.5243667960166931  1.0000
  Eu  Eu2       1.0  0.9758847951889038  0.9294233322143556  0.7547470331192017  1.0000
  Ir  Ir1       1.0  0.954675555229187  0.43011137843132025  0.8015714883804321  1.0000
  Ir  Ir2       1.0  0.5623526573181152  0.4418437778949738  0.25697433948516846  1.0000
  Ir  Ir3       1.0  0.6190637350082397  0.9428442716598512  0.3267844319343567  1.0000
  Ir  Ir4       1.0  0.6143500804901123  0.9326749444007875  0.7552627921104431  1.0000
  O   O1        1.0  0.8043991923332214  0.6826028823852539  0.7688758969306946  1.0000
  O   O2        1.0  0.480466663837433  0.9916734695434571  0.7673547863960266  1.0000
  O   O3        1.0  0.4237033724784851  0.42533245682716375  0.09573767334222794  1.0000
  O   O4        1.0  0.09942098706960678  0.23841248452663424  0.12169721722602844  1.0000
