data_image0
_chemical_formula_structural       EuIr5O4
_chemical_formula_sum              "Eu1 Ir5 O4"
_cell_length_a       4.937905108452121
_cell_length_b       6.164693078696536
_cell_length_c       6.990940093994141
_cell_angle_alpha    91.67174538585512
_cell_angle_beta     91.86348082273578
_cell_angle_gamma    112.14937045056244

_space_group_name_H-M_alt    "P 1"
_space_group_IT_number       1

loop_
  _space_group_symop_operation_xyz
  'x, y, z'

loop_
  _atom_site_type_symbol
  _atom_site_label
  _atom_site_symmetry_multiplicity
  _atom_site_fract_x
  _atom_site_fract_y
  _atom_site_fract_z
  _atom_site_occupancy
  Eu  Eu1       1.0  0.8515000939369202  0.5632811784744263  0.412042498588562  1.0000
  Ir  Ir1       1.0  0.3428956866264344  0.7295507192611695  0.9174836874008179  1.0000
  Ir  Ir2       1.0  0.4653336703777313  0.22015257179737094  0.6773713231086731  1.0000
  Ir  Ir3       1.0  0.5091971158981323  0.06343312561511993  0.4031692147254944  1.0000
  Ir  Ir4       1.0  0.8337022066116333  0.5715882778167725  0.2056797742843628  1.0000
  Ir  Ir5       1.0  0.13102939724922186  0.4482026100158692  0.9147252440452576  1.0000
  O   O1        1.0  0.8290408253669739  0.5476872324943542  0.6526634097099304  1.0000
  O   O2        1.0  0.4802187383174897  0.9062662720680238  0.8803735971450806  1.0000
  O   O3        1.0  0.3721742033958435  0.5580289959907532  0.8031887412071228  1.0000
  O   O4        1.0  0.36582574248313904  0.21938325464725497  0.08621133863925934  1.0000
