data_image0
_chemical_formula_structural       EuIr5O4
_chemical_formula_sum              "Eu1 Ir5 O4"
_cell_length_a       5.008687320776853
_cell_length_b       5.073724767769469
_cell_length_c       5.537542343139648
_cell_angle_alpha    89.48839127286269
_cell_angle_beta     88.88479690768
_cell_angle_gamma    113.39195536217375

_space_group_name_H-M_alt    "P 1"
_space_group_IT_number       1

loop_
  _space_group_symop_operation_xyz
  'x, y, z'

loop_
  _atom_site_type_symbol
  _atom_site_label
  _atom_site_symmetry_multiplicity
  _atom_site_fract_x
  _atom_site_fract_y
  _atom_site_fract_z
  _atom_site_occupancy
  Eu  Eu1       1.0  0.7656220197677612  0.4848031997680664  0.1023440808057785  1.0000
  Ir  Ir1       1.0  0.8236883878707886  0.8561491370201111  0.7434884905815125  1.0000
  Ir  Ir2       1.0  0.3237539529800415  0.10352398455142975  0.9944521188735962  1.0000
  Ir  Ir3       1.0  0.7712277770042419  0.8537396788597107  0.24182671308517456  1.0000
  Ir  Ir4       1.0  0.09636364877223969  0.14294999837875366  0.028355861082673073  1.0000
  Ir  Ir5       1.0  0.3530220091342926  0.6059978008270264  0.7400234937667847  1.0000
  O   O1        1.0  0.8021262288093567  0.3641881048679352  0.4819846451282501  1.0000
  O   O2        1.0  0.2971438467502594  0.3702555000782013  0.23463094234466553  1.0000
  O   O3        1.0  0.2753419876098633  0.38168445229530334  0.9657045602798462  1.0000
  O   O4        1.0  0.035892304033041  0.8232485055923462  0.47543346881866455  1.0000
