data_image0
_chemical_formula_structural       Ge4I2P2PbTb
_chemical_formula_sum              "Ge4 I2 P2 Pb1 Tb1"
_cell_length_a       5.10588897171777
_cell_length_b       7.168602745272689
_cell_length_c       7.7068305015563965
_cell_angle_alpha    118.49484552953875
_cell_angle_beta     89.66113996019918
_cell_angle_gamma    93.16606944963891

_space_group_name_H-M_alt    "P 1"
_space_group_IT_number       1

loop_
  _space_group_symop_operation_xyz
  'x, y, z'

loop_
  _atom_site_type_symbol
  _atom_site_label
  _atom_site_symmetry_multiplicity
  _atom_site_fract_x
  _atom_site_fract_y
  _atom_site_fract_z
  _atom_site_occupancy
  Ge  Ge1       1.0  0.16288715600967407  0.48922365903854376  0.549717128276825  1.0000
  Ge  Ge2       1.0  0.6603403091430664  0.9949111342430116  0.6706142425537109  1.0000
  Ge  Ge3       1.0  0.6416662931442261  0.8933910727500916  0.9620147347450256  1.0000
  Ge  Ge4       1.0  0.6475334763526917  0.7439600825309753  0.4671328663825988  1.0000
  I   I1        1.0  0.6579344272613525  0.14210043847560883  0.2299456000328064  1.0000
  I   I2        1.0  0.644137978553772  0.5549458861351013  0.9178978204727173  1.0000
  P   P1        1.0  0.14003410935401917  0.29374179244041443  0.08300855010747907  1.0000
  P   P2        1.0  0.1655372828245163  0.06603612005710602  0.5693038702011108  1.0000
  Pb  Pb1       1.0  0.6561151742935181  0.5891594886779785  0.36543911695480347  1.0000
  Tb  Tb1       1.0  0.14607900381088257  0.4351883828639984  0.4509938955307007  1.0000
