data_image0
_chemical_formula_structural       ClGe4I2LuPb2
_chemical_formula_sum              "Cl1 Ge4 I2 Lu1 Pb2"
_cell_length_a       5.160212356764914
_cell_length_b       5.441243049677504
_cell_length_c       9.820939064025879
_cell_angle_alpha    81.5239941959538
_cell_angle_beta     82.08228268915482
_cell_angle_gamma    73.48724787662609

_space_group_name_H-M_alt    "P 1"
_space_group_IT_number       1

loop_
  _space_group_symop_operation_xyz
  'x, y, z'

loop_
  _atom_site_type_symbol
  _atom_site_label
  _atom_site_symmetry_multiplicity
  _atom_site_fract_x
  _atom_site_fract_y
  _atom_site_fract_z
  _atom_site_occupancy
  Cl  Cl1       1.0  0.7625184059143066  0.6208084225654602  0.18956445157527924  1.0000
  Ge  Ge1       1.0  0.5942367911338806  0.15382929146289825  0.640286922454834  1.0000
  Ge  Ge2       1.0  0.5932136178016663  0.5788031220436096  0.3301006257534027  1.0000
  Ge  Ge3       1.0  0.6365432143211365  0.7861906886100769  0.2747906446456909  1.0000
  Ge  Ge4       1.0  0.9698886275291443  0.4559316039085388  0.6189796924591064  1.0000
  I   I1        1.0  0.5774015188217163  0.6757168173789978  0.38329190015792847  1.0000
  I   I2        1.0  0.6024625897407532  0.6331879496574402  0.7823795080184937  1.0000
  Lu  Lu1       1.0  0.2623930871486664  0.695421040058136  0.14920856058597565  1.0000
  Pb  Pb1       1.0  0.10862226784229279  0.5871648192405701  0.4856283962726593  1.0000
  Pb  Pb2       1.0  0.1150260865688324  0.646084189414978  0.09365619719028473  1.0000
