data_image0
_chemical_formula_structural       Ge3O3Pb4
_chemical_formula_sum              "Ge3 O3 Pb4"
_cell_length_a       5.203855302284132
_cell_length_b       5.445144904066414
_cell_length_c       6.0472588539123535
_cell_angle_alpha    91.96401377006559
_cell_angle_beta     90.17266468376046
_cell_angle_gamma    90.66624172747133

_space_group_name_H-M_alt    "P 1"
_space_group_IT_number       1

loop_
  _space_group_symop_operation_xyz
  'x, y, z'

loop_
  _atom_site_type_symbol
  _atom_site_label
  _atom_site_symmetry_multiplicity
  _atom_site_fract_x
  _atom_site_fract_y
  _atom_site_fract_z
  _atom_site_occupancy
  Ge  Ge1       1.0  0.5243896245956421  0.9472704529762268  0.6607630848884584  1.0000
  Ge  Ge2       1.0  0.9042602181434631  0.9940159320831299  0.08403328061103821  1.0000
  Ge  Ge3       1.0  0.48222315311431885  0.4079523980617523  0.5038416981697084  1.0000
  O   O1        1.0  0.4750566780567169  0.07689590752124786  0.823399543762207  1.0000
  O   O2        1.0  0.5117387175559998  0.22847294807434082  0.9859471917152406  1.0000
  O   O3        1.0  0.4755842089653015  0.8313636183738708  0.26755711436271673  1.0000
  Pb  Pb1       1.0  0.13867655396461487  0.7413507699966431  0.015460941009223466  1.0000
  Pb  Pb2       1.0  0.4992997646331787  0.4249706566333771  0.5032079815864563  1.0000
  Pb  Pb3       1.0  0.021215515211224556  0.6731476783752441  0.6148241758346558  1.0000
  Pb  Pb4       1.0  0.031215965747833252  0.2525496482849121  0.8994269967079164  1.0000
