data_image0
_chemical_formula_structural       Ge6OPPb2
_chemical_formula_sum              "Ge6 O1 P1 Pb2"
_cell_length_a       5.847444327174942
_cell_length_b       6.024217138929198
_cell_length_c       8.11566162109375
_cell_angle_alpha    71.85973075849627
_cell_angle_beta     71.56867289176922
_cell_angle_gamma    68.31536638140676

_space_group_name_H-M_alt    "P 1"
_space_group_IT_number       1

loop_
  _space_group_symop_operation_xyz
  'x, y, z'

loop_
  _atom_site_type_symbol
  _atom_site_label
  _atom_site_symmetry_multiplicity
  _atom_site_fract_x
  _atom_site_fract_y
  _atom_site_fract_z
  _atom_site_occupancy
  Ge  Ge1       1.0  0.32028427720069885  0.27550408244132996  0.7407441735267639  1.0000
  Ge  Ge2       1.0  0.16303016245365137  0.9801451563835145  0.4397689700126648  1.0000
  Ge  Ge3       1.0  0.9776068925857544  0.10154311358928682  0.6483970880508423  1.0000
  Ge  Ge4       1.0  0.4291461706161499  0.7401111125946045  0.8141440749168396  1.0000
  Ge  Ge5       1.0  0.7981847524642944  0.4480723142623902  0.30444028973579407  1.0000
  Ge  Ge6       1.0  0.5548972487449646  0.6938135623931885  0.24555984139442444  1.0000
  O   O1        1.0  0.08865563571453093  0.20821988582611087  0.3069625794887543  1.0000
  P   P1        1.0  0.5007284283638  0.4989627897739411  0.1781049519777298  1.0000
  Pb  Pb1       1.0  0.9072941541671753  0.7505415081977844  0.3905877470970154  1.0000
  Pb  Pb2       1.0  0.5216401815414429  0.4661452472209931  0.16639459133148196  1.0000
