data_image0
_chemical_formula_structural       Ge3O5Pb2
_chemical_formula_sum              "Ge3 O5 Pb2"
_cell_length_a       5.88885712483867
_cell_length_b       4.499499163041815
_cell_length_c       5.253317832946777
_cell_angle_alpha    120.57784953497088
_cell_angle_beta     114.19687615574168
_cell_angle_gamma    121.15349402439227

_space_group_name_H-M_alt    "P 1"
_space_group_IT_number       1

loop_
  _space_group_symop_operation_xyz
  'x, y, z'

loop_
  _atom_site_type_symbol
  _atom_site_label
  _atom_site_symmetry_multiplicity
  _atom_site_fract_x
  _atom_site_fract_y
  _atom_site_fract_z
  _atom_site_occupancy
  Ge  Ge1       1.0  0.34288516640663136  0.21037529408931724  0.6182283163070678  1.0000
  Ge  Ge2       1.0  0.309286892414093  0.26004019379615784  0.1389484703540802  1.0000
  Ge  Ge3       1.0  0.7981626391410828  0.025484818965196544  0.5824216604232787  1.0000
  O   O1        1.0  0.28905999660491927  0.9931820034980772  0.9437478184700011  1.0000
  O   O2        1.0  0.38606855273246765  0.09585353732109074  0.3489237129688263  1.0000
  O   O3        1.0  0.9724575281143188  0.13649815320968628  0.5181068778038025  1.0000
  O   O4        1.0  0.014894877560436726  0.6447557806968689  0.1339701414108276  1.0000
  O   O5        1.0  0.9461771845817566  0.9300341010093689  0.94302898645401  1.0000
  Pb  Pb1       1.0  0.3304198086261749  0.439018189907074  0.6566802263259888  1.0000
  Pb  Pb2       1.0  0.6845119595527648  0.36434668302536  0.4690717458724975  1.0000
