data_image0
_chemical_formula_structural       Ge7O2Sb
_chemical_formula_sum              "Ge7 O2 Sb1"
_cell_length_a       4.7355730133735605
_cell_length_b       4.567265455555254
_cell_length_c       7.68567419052124
_cell_angle_alpha    75.41485852003076
_cell_angle_beta     83.21407881230364
_cell_angle_gamma    85.17214086339655

_space_group_name_H-M_alt    "P 1"
_space_group_IT_number       1

loop_
  _space_group_symop_operation_xyz
  'x, y, z'

loop_
  _atom_site_type_symbol
  _atom_site_label
  _atom_site_symmetry_multiplicity
  _atom_site_fract_x
  _atom_site_fract_y
  _atom_site_fract_z
  _atom_site_occupancy
  Ge  Ge1       1.0  0.35118600726127625  0.8164375424385071  0.3024671971797943  1.0000
  Ge  Ge2       1.0  0.075058713555336  0.5380460023880005  0.5068655610084534  1.0000
  Ge  Ge3       1.0  0.18703633546829224  0.6185883283615112  0.593373715877533  1.0000
  Ge  Ge4       1.0  0.10833551734685898  0.8376845717430115  0.9154587388038636  1.0000
  Ge  Ge5       1.0  0.6460424661636353  0.13793779909610748  0.1604851931333542  1.0000
  Ge  Ge6       1.0  0.5331891775131226  0.38642987608909607  0.8129387497901917  1.0000
  Ge  Ge7       1.0  0.9789719581604004  0.9830322861671448  0.3500545620918274  1.0000
  O   O1        1.0  0.09230310469865799  0.28988969326019287  0.29812049865722656  1.0000
  O   O2        1.0  0.1763269603252411  0.02632223814725876  0.4615887999534607  1.0000
  Sb  Sb1       1.0  0.11110775172710419  0.7082095146179199  0.4830196499824524  1.0000
