data_image0
_chemical_formula_structural       Pb3Sr3Tc3
_chemical_formula_sum              "Pb3 Sr3 Tc3"
_cell_length_a       4.524173907465844
_cell_length_b       7.867839034447162
_cell_length_c       7.912288188934326
_cell_angle_alpha    119.86286756874482
_cell_angle_beta     90.13246891034285
_cell_angle_gamma    90.05155071388276

_space_group_name_H-M_alt    "P 1"
_space_group_IT_number       1

loop_
  _space_group_symop_operation_xyz
  'x, y, z'

loop_
  _atom_site_type_symbol
  _atom_site_label
  _atom_site_symmetry_multiplicity
  _atom_site_fract_x
  _atom_site_fract_y
  _atom_site_fract_z
  _atom_site_occupancy
  Pb  Pb1       1.0  0.5919317007064819  0.27798399329185486  0.7131310701370239  1.0000
  Pb  Pb2       1.0  0.5910403728485107  0.5507234334945679  0.42299455404281616  1.0000
  Pb  Pb3       1.0  0.09169826656579971  0.27532121539115906  0.4265154004096985  1.0000
  Sr  Sr1       1.0  0.0941726416349411  0.716517984867096  0.8691219091415405  1.0000
  Sr  Sr2       1.0  0.09260530024766922  0.856701135635376  0.43124359846115107  1.0000
  Sr  Sr3       1.0  0.09233415871858597  0.2717800438404083  0.01976773887872696  1.0000
  Tc  Tc1       1.0  0.5913972854614258  0.637159526348114  0.10320653766393659  1.0000
  Tc  Tc2       1.0  0.5898188948631287  0.02863684669137001  0.16363386809825897  1.0000
  Tc  Tc3       1.0  0.5920252799987793  0.9481481909751892  0.7838055491447449  1.0000
