data_image0
_chemical_formula_structural       BeFGeNSr2TaTcU
_chemical_formula_sum              "Be1 F1 Ge1 N1 Sr2 Ta1 Tc1 U1"
_cell_length_a       5.645341107219388
_cell_length_b       5.628960957675181
_cell_length_c       5.55244255065918
_cell_angle_alpha    94.03810115339539
_cell_angle_beta     94.07953896006647
_cell_angle_gamma    94.10491341925292

_space_group_name_H-M_alt    "P 1"
_space_group_IT_number       1

loop_
  _space_group_symop_operation_xyz
  'x, y, z'

loop_
  _atom_site_type_symbol
  _atom_site_label
  _atom_site_symmetry_multiplicity
  _atom_site_fract_x
  _atom_site_fract_y
  _atom_site_fract_z
  _atom_site_occupancy
  Be  Be1       1.0  0.28330516815185547  0.04982321709394455  0.25193002820014954  1.0000
  F   F1        1.0  0.5059413909912109  0.8394607305526733  0.026471646502614025  1.0000
  Ge  Ge1       1.0  0.0017373593291267753  0.8276535868644714  0.4013855755329132  1.0000
  N   N1        1.0  0.49430757761001587  0.2696163058280945  0.40970250964164734  1.0000
  Sr  Sr1       1.0  0.2654043436050415  0.0910942330956459  0.7548815608024598  1.0000
  Sr  Sr2       1.0  0.7531546950340271  0.5699872374534607  0.7398169636726379  1.0000
  Ta  Ta1       1.0  0.985070526599884  0.31634262204170227  0.02332059480249882  1.0000
  Tc  Tc1       1.0  0.7603936791419983  0.09291554987430573  0.23975102603435516  1.0000
  U   U1        1.0  0.2773135006427765  0.5712078809738159  0.2389683872461319  1.0000
