data_image0
_chemical_formula_structural       GeN2ScSr2TcTe2
_chemical_formula_sum              "Ge1 N2 Sc1 Sr2 Tc1 Te2"
_cell_length_a       6.2045507813745555
_cell_length_b       6.18090177605537
_cell_length_c       6.157106399536133
_cell_angle_alpha    97.45493172614509
_cell_angle_beta     97.59925719977753
_cell_angle_gamma    97.42835024793781

_space_group_name_H-M_alt    "P 1"
_space_group_IT_number       1

loop_
  _space_group_symop_operation_xyz
  'x, y, z'

loop_
  _atom_site_type_symbol
  _atom_site_label
  _atom_site_symmetry_multiplicity
  _atom_site_fract_x
  _atom_site_fract_y
  _atom_site_fract_z
  _atom_site_occupancy
  Ge  Ge1       1.0  0.02246657758951187  0.5913577675819397  0.750010311603546  1.0000
  N   N1        1.0  0.23716388642787933  0.8932240009307861  0.6985106468200684  1.0000
  N   N2        1.0  0.8030569553375244  0.3742148280143738  0.6165315508842468  1.0000
  Sc  Sc1       1.0  0.98967444896698  0.11888950318098068  0.5271885395050049  1.0000
  Sr  Sr1       1.0  0.49409201741218567  0.6130490899085999  0.5329219102859497  1.0000
  Sr  Sr2       1.0  0.611927330493927  0.20876501500606537  0.9214390516281128  1.0000
  Tc  Tc1       1.0  0.2689891457557678  0.8239742517471313  0.042432967573404305  1.0000
  Te  Te1       1.0  0.7566463947296143  0.7719049453735352  0.16012288630008695  1.0000
  Te  Te2       1.0  0.18468217551708221  0.25401410460472107  0.16097381711006165  1.0000
