data_image0
_chemical_formula_structural       Pb3Sr3Tc3
_chemical_formula_sum              "Pb3 Sr3 Tc3"
_cell_length_a       5.42246360121248
_cell_length_b       6.774499224161445
_cell_length_c       7.483312606811523
_cell_angle_alpha    115.46338149718689
_cell_angle_beta     89.93041634368183
_cell_angle_gamma    90.1773360895099

_space_group_name_H-M_alt    "P 1"
_space_group_IT_number       1

loop_
  _space_group_symop_operation_xyz
  'x, y, z'

loop_
  _atom_site_type_symbol
  _atom_site_label
  _atom_site_symmetry_multiplicity
  _atom_site_fract_x
  _atom_site_fract_y
  _atom_site_fract_z
  _atom_site_occupancy
  Pb  Pb1       1.0  0.43475303053855896  0.12414917349815369  0.011616791598498821  1.0000
  Pb  Pb2       1.0  0.9337019324302673  0.8158353567123413  0.936065673828125  1.0000
  Pb  Pb3       1.0  0.4394559860229492  0.5416823625564575  0.6697008013725281  1.0000
  Sr  Sr1       1.0  0.9351118206977844  0.3693143427371979  0.3397180438041687  1.0000
  Sr  Sr2       1.0  0.9329425692558289  0.2691513001918793  0.7871090173721313  1.0000
  Sr  Sr3       1.0  0.4357195496559143  0.6582912802696228  0.1714563369750977  1.0000
  Tc  Tc1       1.0  0.9311822056770325  0.9038345217704773  0.3685151338577271  1.0000
  Tc  Tc2       1.0  0.4345807135105133  0.09373138099908829  0.4694223999977112  1.0000
  Tc  Tc3       1.0  0.1861398071050644  0.8389643430709839  0.614168643951416  1.0000
