data_image0
_chemical_formula_structural       HS3U5Zn
_chemical_formula_sum              "H1 S3 U5 Zn1"
_cell_length_a       5.372395599883455
_cell_length_b       6.662026882797876
_cell_length_c       7.0030837059021
_cell_angle_alpha    121.88722890116676
_cell_angle_beta     104.2340450159126
_cell_angle_gamma    83.97837118517221

_space_group_name_H-M_alt    "P 1"
_space_group_IT_number       1

loop_
  _space_group_symop_operation_xyz
  'x, y, z'

loop_
  _atom_site_type_symbol
  _atom_site_label
  _atom_site_symmetry_multiplicity
  _atom_site_fract_x
  _atom_site_fract_y
  _atom_site_fract_z
  _atom_site_occupancy
  H   H1        1.0  0.4485551118850708  0.4397953748703003  0.5613289475440979  1.0000
  S   S1        1.0  0.5537886619567871  0.793805718421936  0.36635819077491766  1.0000
  S   S2        1.0  0.6804689764976501  0.7214943170547485  0.9308636784553529  1.0000
  S   S3        1.0  0.04740327596664429  0.4833797216415405  0.14296042919158936  1.0000
  U   U1        1.0  0.21295513212680817  0.46946775913238525  0.05435613170266155  1.0000
  U   U2        1.0  0.058741696178913116  0.810215950012207  0.21268565952777865  1.0000
  U   U3        1.0  0.17531627416610718  0.6893737316131592  0.6841620802879333  1.0000
  U   U4        1.0  0.5321679711341858  0.9959765076637268  0.8766080141067506  1.0000
  U   U5        1.0  0.038600895553827286  0.11495664715766907  0.2786082625389099  1.0000
  Zn  Zn1       1.0  0.061393722891807556  0.1496487259864807  0.5735414624214172  1.0000
