data_image0
_chemical_formula_structural       RuS3U6
_chemical_formula_sum              "Ru1 S3 U6"
_cell_length_a       5.467046637823227
_cell_length_b       6.438608869926199
_cell_length_c       6.80008602142334
_cell_angle_alpha    120.11459817967821
_cell_angle_beta     94.04828609339792
_cell_angle_gamma    87.38266801086782

_space_group_name_H-M_alt    "P 1"
_space_group_IT_number       1

loop_
  _space_group_symop_operation_xyz
  'x, y, z'

loop_
  _atom_site_type_symbol
  _atom_site_label
  _atom_site_symmetry_multiplicity
  _atom_site_fract_x
  _atom_site_fract_y
  _atom_site_fract_z
  _atom_site_occupancy
  Ru  Ru1       1.0  0.48873561620712286  0.386444628238678  0.8198881745338441  1.0000
  S   S1        1.0  0.7037144303321838  0.89881831407547  0.2963147461414336  1.0000
  S   S2        1.0  0.2415934205055237  0.632481575012207  0.36544197797775263  1.0000
  S   S3        1.0  0.7443554401397705  0.5997440218925476  0.7665558457374574  1.0000
  U   U1        1.0  0.21906982362270355  0.3917278051376343  0.10775439441204068  1.0000
  U   U2        1.0  0.21016164124011993  0.8867425918579102  0.4396754801273346  1.0000
  U   U3        1.0  0.20763415098190308  0.8743683099746704  0.5515502095222473  1.0000
  U   U4        1.0  0.7223849892616272  0.21684321761131287  0.5548418164253235  1.0000
  U   U5        1.0  0.7211148142814636  0.6004897356033325  0.3209792077541352  1.0000
  U   U6        1.0  0.7215156555175781  0.8891337513923645  0.057486690580844754  1.0000
