data_image0
_chemical_formula_structural       Cr2S4U4
_chemical_formula_sum              "Cr2 S4 U4"
_cell_length_a       6.117229171941375
_cell_length_b       6.674203500269885
_cell_length_c       6.688964366912842
_cell_angle_alpha    123.0929055087678
_cell_angle_beta     118.48034988688683
_cell_angle_gamma    87.3664746629214

_space_group_name_H-M_alt    "P 1"
_space_group_IT_number       1

loop_
  _space_group_symop_operation_xyz
  'x, y, z'

loop_
  _atom_site_type_symbol
  _atom_site_label
  _atom_site_symmetry_multiplicity
  _atom_site_fract_x
  _atom_site_fract_y
  _atom_site_fract_z
  _atom_site_occupancy
  Cr  Cr1       1.0  0.3125401735305786  0.7749802470207214  0.07180083543062205  1.0000
  Cr  Cr2       1.0  0.8414737582206726  0.7701700329780579  0.057056542485952384  1.0000
  S   S1        1.0  0.9946621656417847  0.9503998160362244  0.829377770423889  1.0000
  S   S2        1.0  0.940127968788147  0.18252608180046082  0.9431390762329103  1.0000
  S   S3        1.0  0.10421591997146606  0.2889869809150696  0.19516339898109433  1.0000
  S   S4        1.0  0.4909420907497406  0.9445648789405823  0.7203302383422853  1.0000
  U   U1        1.0  0.932373046875  0.3088594675064087  0.5594295859336853  1.0000
  U   U2        1.0  0.561741828918457  0.06670825928449631  0.2081287205219269  1.0000
  U   U3        1.0  0.29435113072395325  0.7613869905471802  0.050700508058071074  1.0000
  U   U4        1.0  0.45534756779670715  0.2902519106864929  0.547905683517456  1.0000
