data_image0
_chemical_formula_structural       Cr2S4U4
_chemical_formula_sum              "Cr2 S4 U4"
_cell_length_a       4.9850764094511035
_cell_length_b       7.307139872550047
_cell_length_c       7.473249912261963
_cell_angle_alpha    122.20738994879716
_cell_angle_beta     94.72386103177323
_cell_angle_gamma    89.60138574172736

_space_group_name_H-M_alt    "P 1"
_space_group_IT_number       1

loop_
  _space_group_symop_operation_xyz
  'x, y, z'

loop_
  _atom_site_type_symbol
  _atom_site_label
  _atom_site_symmetry_multiplicity
  _atom_site_fract_x
  _atom_site_fract_y
  _atom_site_fract_z
  _atom_site_occupancy
  Cr  Cr1       1.0  0.047823913395404816  0.2292930781841278  0.3443132638931274  1.0000
  Cr  Cr2       1.0  0.3557596504688263  0.8189008235931396  0.9696773886680602  1.0000
  S   S1        1.0  0.8495455384254456  0.22429366409778595  0.3435601592063903  1.0000
  S   S2        1.0  0.39402660727500916  0.19849684834480286  0.7110009789466857  1.0000
  S   S3        1.0  0.8600916862487793  0.7104063034057617  0.017648350447416243  1.0000
  S   S4        1.0  0.35543951392173767  0.7159863114356995  0.15539282560348502  1.0000
  U   U1        1.0  0.3744813799858093  0.19608044624328613  0.027544165030121772  1.0000
  U   U2        1.0  0.874452531337738  0.3292064666748047  0.6089571714401245  1.0000
  U   U3        1.0  0.8483718037605286  0.8769385814666748  0.4818934202194213  1.0000
  U   U4        1.0  0.3659060299396515  0.8859726786613464  0.4315582811832427  1.0000
