data_image0
_chemical_formula_structural       MnS3ScU5
_chemical_formula_sum              "Mn1 S3 Sc1 U5"
_cell_length_a       6.210583906193697
_cell_length_b       6.522828811351415
_cell_length_c       6.971928596496582
_cell_angle_alpha    118.39329149004315
_cell_angle_beta     111.05861207980186
_cell_angle_gamma    88.28096446997927

_space_group_name_H-M_alt    "P 1"
_space_group_IT_number       1

loop_
  _space_group_symop_operation_xyz
  'x, y, z'

loop_
  _atom_site_type_symbol
  _atom_site_label
  _atom_site_symmetry_multiplicity
  _atom_site_fract_x
  _atom_site_fract_y
  _atom_site_fract_z
  _atom_site_occupancy
  Mn  Mn1       1.0  0.6124593019485474  0.7670601606369019  0.9720722436904908  1.0000
  S   S1        1.0  0.4025821089744568  0.7910621166229248  0.5416011810302734  1.0000
  S   S2        1.0  0.6054033637046814  0.27190101146698  0.09621219336986543  1.0000
  S   S3        1.0  0.2241952270269394  0.8995082378387451  0.30894029140472407  1.0000
  Sc  Sc1       1.0  0.20919445157051086  0.2774132192134857  0.7851799130439759  1.0000
  U   U1        1.0  0.9094018936157227  0.7400200366973877  0.026226533576846126  1.0000
  U   U2        1.0  0.19759516417980194  0.031085075810551643  0.8080843091011048  1.0000
  U   U3        1.0  0.6852471828460693  0.5219557285308838  0.7958068251609803  1.0000
  U   U4        1.0  0.9130351543426514  0.29350709915161133  0.5464722514152527  1.0000
  U   U5        1.0  0.4077388048171997  0.2666298449039459  0.5241914391517639  1.0000
