data_image0
_chemical_formula_structural       SU9
_chemical_formula_sum              "S1 U9"
_cell_length_a       6.583371787367883
_cell_length_b       6.711396898293931
_cell_length_c       6.725360870361328
_cell_angle_alpha    65.16681048702497
_cell_angle_beta     65.79136062465142
_cell_angle_gamma    66.31059309836508

_space_group_name_H-M_alt    "P 1"
_space_group_IT_number       1

loop_
  _space_group_symop_operation_xyz
  'x, y, z'

loop_
  _atom_site_type_symbol
  _atom_site_label
  _atom_site_symmetry_multiplicity
  _atom_site_fract_x
  _atom_site_fract_y
  _atom_site_fract_z
  _atom_site_occupancy
  S   S1        1.0  0.7559978365898132  0.8946322798728943  0.4072366058826447  1.0000
  U   U1        1.0  0.9037419557571411  0.22917743027210236  0.7526151537895204  1.0000
  U   U2        1.0  0.9283177852630615  0.7666225433349609  0.7686631083488465  1.0000
  U   U3        1.0  0.3914678692817688  0.7361949682235718  0.9757161736488343  1.0000
  U   U4        1.0  0.8969700336456299  0.5447044968605042  0.6516560912132264  1.0000
  U   U5        1.0  0.17681647837162018  0.23100019991397858  0.662063241004944  1.0000
  U   U6        1.0  0.9218194484710693  0.823890745639801  0.21641698479652408  1.0000
  U   U7        1.0  0.42143768072128296  0.7332075238227844  0.2093353718519211  1.0000
  U   U8        1.0  0.4546371400356293  0.2605249285697937  0.8627678751945497  1.0000
  U   U9        1.0  0.648382306098938  0.2608221471309662  0.48724225163459783  1.0000
