data_image0
_chemical_formula_structural       Br2CoFH2IrP2ReRhTb2
_chemical_formula_sum              "Br2 Co1 F1 H2 Ir1 P2 Re1 Rh1 Tb2"
_cell_length_a       5.144311994552278
_cell_length_b       7.3417916256044435
_cell_length_c       7.590759754180908
_cell_angle_alpha    108.88972107265937
_cell_angle_beta     89.09721508679091
_cell_angle_gamma    89.73580524703817

_space_group_name_H-M_alt    "P 1"
_space_group_IT_number       1

loop_
  _space_group_symop_operation_xyz
  'x, y, z'

loop_
  _atom_site_type_symbol
  _atom_site_label
  _atom_site_symmetry_multiplicity
  _atom_site_fract_x
  _atom_site_fract_y
  _atom_site_fract_z
  _atom_site_occupancy
  Br  Br1       1.0  0.6353484988212585  0.46636933088302607  0.35831785202026367  1.0000
  Br  Br2       1.0  0.1567617505788803  0.4886226654052734  0.20345380902290344  1.0000
  Co  Co1       1.0  0.1359223574399948  0.9842963814735411  0.910084068775177  1.0000
  F   F1        1.0  0.6305797696113588  0.4946604669094085  0.7825136780738831  1.0000
  H   H1        1.0  0.12707726657390594  0.5041462182998657  0.8020334243774414  1.0000
  H   H2        1.0  0.8877540230751038  0.27627798914909363  0.6937987208366393  1.0000
  Ir  Ir1       1.0  0.11859304457902908  0.9196948409080504  0.11076863855123514  1.0000
  P   P1        1.0  0.12665881216526031  0.4834242463111877  0.5140504837036133  1.0000
  P   P2        1.0  0.6330966949462891  0.3575460910797119  0.30048808455467224  1.0000
  Re  Re1       1.0  0.627733051776886  0.9581226706504821  0.05199585855007166  1.0000
  Rh  Rh1       1.0  0.13394981622695923  0.6526193022727966  0.9250651597976683  1.0000
  Tb  Tb1       1.0  0.1515173465013504  0.8704943656921386  0.4130121767520904  1.0000
  Tb  Tb2       1.0  0.6343405842781067  0.0692843422293663  0.4287852942943573  1.0000
