data_image0
_chemical_formula_structural       Br2FeH2LuP3RhSTbTi
_chemical_formula_sum              "Br2 Fe1 H2 Lu1 P3 Rh1 S1 Tb1 Ti1"
_cell_length_a       5.13584001889819
_cell_length_b       7.582908430225304
_cell_length_c       8.080301284790039
_cell_angle_alpha    115.33472245404033
_cell_angle_beta     89.3406514684331
_cell_angle_gamma    90.76660056687774

_space_group_name_H-M_alt    "P 1"
_space_group_IT_number       1

loop_
  _space_group_symop_operation_xyz
  'x, y, z'

loop_
  _atom_site_type_symbol
  _atom_site_label
  _atom_site_symmetry_multiplicity
  _atom_site_fract_x
  _atom_site_fract_y
  _atom_site_fract_z
  _atom_site_occupancy
  Br  Br1       1.0  0.032285142689943314  0.6046086549758911  0.7276433110237122  1.0000
  Br  Br2       1.0  0.5423768758773804  0.19981391727924344  0.09575004875659943  1.0000
  Fe  Fe1       1.0  0.04089823737740517  0.4601676762104034  0.5860385298728943  1.0000
  H   H1        1.0  0.5347899794578552  0.7605085968971251  0.04308068007230764  1.0000
  H   H2        1.0  0.8128403425216675  0.8406072854995726  0.3630633652210235  1.0000
  Lu  Lu1       1.0  0.04335051402449608  0.33602315187454224  0.10443295538425446  1.0000
  P   P1        1.0  0.0400255024433136  0.14846958220005035  0.3228570818901062  1.0000
  P   P2        1.0  0.053409818559885025  0.43987572193145746  0.2961805760860443  1.0000
  P   P3        1.0  0.052366409450769424  0.943184196949005  0.5785342454910278  1.0000
  Rh  Rh1       1.0  0.5477486252784729  0.3573271930217743  0.2518921494483948  1.0000
  S   S1        1.0  0.5250414609909058  0.3009910583496094  0.8645239472389221  1.0000
  Tb  Tb1       1.0  0.5499365329742432  0.7159616351127625  0.09056970477104187  1.0000
  Ti  Ti1       1.0  0.047090623527765274  0.8774211406707763  0.7611426711082458  1.0000
