data_image0
_chemical_formula_structural       Br2H4HoInScTb3Ti
_chemical_formula_sum              "Br2 H4 Ho1 In1 Sc1 Tb3 Ti1"
_cell_length_a       5.723374111269487
_cell_length_b       8.515936313774711
_cell_length_c       8.520963668823242
_cell_angle_alpha    120.00402155357266
_cell_angle_beta     89.7267838407457
_cell_angle_gamma    90.52023914168562

_space_group_name_H-M_alt    "P 1"
_space_group_IT_number       1

loop_
  _space_group_symop_operation_xyz
  'x, y, z'

loop_
  _atom_site_type_symbol
  _atom_site_label
  _atom_site_symmetry_multiplicity
  _atom_site_fract_x
  _atom_site_fract_y
  _atom_site_fract_z
  _atom_site_occupancy
  Br  Br1       1.0  0.11439939588308334  0.038279931992292404  0.907373011112213  1.0000
  Br  Br2       1.0  0.10557058453559875  0.8094555735588074  0.83067786693573  1.0000
  H   H1        1.0  0.6156275272369385  0.4129553437232971  0.011172538623213742  1.0000
  H   H2        1.0  0.09374527633190155  0.3224424719810486  0.8932899832725525  1.0000
  H   H3        1.0  0.5988849401473999  0.11447984725236893  0.39306446909904474  1.0000
  H   H4        1.0  0.5966318845748901  0.24404644966125488  0.46073105931282043  1.0000
  Ho  Ho1       1.0  0.09387676417827606  0.7976388335227966  0.4307365715503692  1.0000
  In  In1       1.0  0.8499764800071716  0.3940076231956482  0.4256017208099365  1.0000
  Sc  Sc1       1.0  0.5993207097053528  0.9627220034599304  0.9709873199462891  1.0000
  Tb  Tb1       1.0  0.6026972532272339  0.9683418869972229  0.4196949005126952  1.0000
  Tb  Tb2       1.0  0.3584960401058197  0.8032059073448181  0.8737800717353821  1.0000
  Tb  Tb3       1.0  0.1036059781908989  0.6396180391311646  0.6137482523918152  1.0000
  Ti  Ti1       1.0  0.10370785742998123  0.3054587244987488  0.07602027058601377  1.0000
