data_image0
_chemical_formula_structural       Br5H2Re2RhTe2Ti
_chemical_formula_sum              "Br5 H2 Re2 Rh1 Te2 Ti1"
_cell_length_a       6.991825720247748
_cell_length_b       6.6195605181477495
_cell_length_c       6.440915107727051
_cell_angle_alpha    118.18349156273378
_cell_angle_beta     115.19769504484763
_cell_angle_gamma    109.60263081017142

_space_group_name_H-M_alt    "P 1"
_space_group_IT_number       1

loop_
  _space_group_symop_operation_xyz
  'x, y, z'

loop_
  _atom_site_type_symbol
  _atom_site_label
  _atom_site_symmetry_multiplicity
  _atom_site_fract_x
  _atom_site_fract_y
  _atom_site_fract_z
  _atom_site_occupancy
  Br  Br1       1.0  0.9128926992416382  0.9997892379760742  0.9209513664245604  1.0000
  Br  Br2       1.0  0.6659448742866516  0.2941283881664275  0.5283549427986144  1.0000
  Br  Br3       1.0  0.38113120198249806  0.13628093898296345  0.845836579799652  1.0000
  Br  Br4       1.0  0.4008472263813019  0.5517907738685608  0.3752793371677398  1.0000
  Br  Br5       1.0  0.403386652469635  0.9728384613990784  0.02923067659139625  1.0000
  H   H1        1.0  0.40347763895988464  0.5408515334129333  0.3348125219345092  1.0000
  H   H2        1.0  0.15228715538978577  0.9528805017471313  0.13048556447029105  1.0000
  Re  Re1       1.0  0.15794801712036124  0.9369099140167235  0.6343006491661071  1.0000
  Re  Re2       1.0  0.9096357822418213  0.2825409173965454  0.03184947371482846  1.0000
  Rh  Rh1       1.0  0.16662736237049094  0.4395788609981536  0.5921666026115416  1.0000
  Te  Te1       1.0  0.9627160429954529  0.6432853341102599  0.44779232144355763  1.0000
  Te  Te2       1.0  0.9360979795455933  0.5852364897727966  0.05165019258856763  1.0000
  Ti  Ti1       1.0  0.639266848564148  0.8331452012062073  0.013703813776373776  1.0000
