data_image0
_chemical_formula_structural       Br3H5ReRh2Tb2
_chemical_formula_sum              "Br3 H5 Re1 Rh2 Tb2"
_cell_length_a       6.467164833033408
_cell_length_b       6.861451208217513
_cell_length_c       7.322503566741943
_cell_angle_alpha    110.86811299774024
_cell_angle_beta     105.91681936168168
_cell_angle_gamma    106.64502865713098

_space_group_name_H-M_alt    "P 1"
_space_group_IT_number       1

loop_
  _space_group_symop_operation_xyz
  'x, y, z'

loop_
  _atom_site_type_symbol
  _atom_site_label
  _atom_site_symmetry_multiplicity
  _atom_site_fract_x
  _atom_site_fract_y
  _atom_site_fract_z
  _atom_site_occupancy
  Br  Br1       1.0  0.09682014584541321  0.7834885120391846  0.5375065207481384  1.0000
  Br  Br2       1.0  0.0836660340428353  0.9815043807029725  0.1583229899406433  1.0000
  Br  Br3       1.0  0.3873300254344941  0.9043105840682985  0.48438626527786255  1.0000
  H   H1        1.0  0.5952210426330566  0.8810527920722961  0.8996396064758301  1.0000
  H   H2        1.0  0.010172931477427554  0.9165426492691041  0.4869180321693421  1.0000
  H   H3        1.0  0.32908013463020325  0.40446189045906067  0.9407089352607727  1.0000
  H   H4        1.0  0.09827690571546555  0.5379587411880493  0.894536554813385  1.0000
  H   H5        1.0  0.8654611110687256  0.41022977232933044  0.2564716935157776  1.0000
  Re  Re1       1.0  0.6150574088096619  0.4307449162006378  0.4779933989048004  1.0000
  Rh  Rh1       1.0  0.8211738467216492  0.12272699922323228  0.8658838868141174  1.0000
  Rh  Rh2       1.0  0.5803476572036743  0.5755175352096558  0.8976781368255615  1.0000
  Tb  Tb1       1.0  0.34487488865852356  0.4013440012931824  0.7019710540771484  1.0000
  Tb  Tb2       1.0  0.35682475566864014  0.14008276164531708  0.949013888835907  1.0000
