data_image0
_chemical_formula_structural       Br6H2Re4Se
_chemical_formula_sum              "Br6 H2 Re4 Se1"
_cell_length_a       6.700015797027379
_cell_length_b       9.509316050387083
_cell_length_c       9.639798164367676
_cell_angle_alpha    119.7572067819481
_cell_angle_beta     90.94634037687425
_cell_angle_gamma    88.65520880985085

_space_group_name_H-M_alt    "P 1"
_space_group_IT_number       1

loop_
  _space_group_symop_operation_xyz
  'x, y, z'

loop_
  _atom_site_type_symbol
  _atom_site_label
  _atom_site_symmetry_multiplicity
  _atom_site_fract_x
  _atom_site_fract_y
  _atom_site_fract_z
  _atom_site_occupancy
  Br  Br1       1.0  0.6059586405754089  0.33829453587532043  0.5037068128585815  1.0000
  Br  Br2       1.0  0.8673385977745057  0.9545672535896301  0.7720426321029663  1.0000
  Br  Br3       1.0  0.34064945578575134  0.19170232117176056  0.6909890174865723  1.0000
  Br  Br4       1.0  0.38936018943786627  0.6237432956695557  0.3980921506881714  1.0000
  Br  Br5       1.0  0.8927208781242372  0.36162102222442627  0.4713212251663208  1.0000
  Br  Br6       1.0  0.889801859855652  0.9260715246200562  0.6417529582977295  1.0000
  H   H1        1.0  0.9210367798805238  0.6825799942016602  0.602263331413269  1.0000
  H   H2        1.0  0.03287280350923538  0.014712262898683548  0.432699978351593  1.0000
  Re  Re1       1.0  0.8943564891815187  0.6790719032287598  0.25555229187011724  1.0000
  Re  Re2       1.0  0.1273927390575409  0.4916034936904907  0.9433059692382812  1.0000
  Re  Re3       1.0  0.37900707125663763  0.9262425303459167  0.7753368616104126  1.0000
  Re  Re4       1.0  0.8814292550086976  0.10717857629060745  0.8735238909721375  1.0000
  Se  Se1       1.0  0.615053117275238  0.9800246953964233  0.4844745993614196  1.0000
