data_image0
_chemical_formula_structural       Ba2Cl3PPt
_chemical_formula_sum              "Ba2 Cl3 P1 Pt1"
_cell_length_a       5.694877227941156
_cell_length_b       7.927724209733626
_cell_length_c       7.845682621002197
_cell_angle_alpha    121.17472987181846
_cell_angle_beta     91.85431806749878
_cell_angle_gamma    88.53374833669575

_space_group_name_H-M_alt    "P 1"
_space_group_IT_number       1

loop_
  _space_group_symop_operation_xyz
  'x, y, z'

loop_
  _atom_site_type_symbol
  _atom_site_label
  _atom_site_symmetry_multiplicity
  _atom_site_fract_x
  _atom_site_fract_y
  _atom_site_fract_z
  _atom_site_occupancy
  Ba  Ba1       1.0  0.4701760709285736  0.5749949216842651  0.7224709987640381  1.0000
  Ba  Ba2       1.0  0.9723878502845764  0.09462089836597443  0.531865656375885  1.0000
  Cl  Cl1       1.0  0.4897477924823761  0.8310561776161194  0.2236495465040208  1.0000
  Cl  Cl2       1.0  0.9802862405776978  0.19243603944778442  0.3538254499435425  1.0000
  Cl  Cl3       1.0  0.6045833826065063  0.7557462453842163  0.06712865084409719  1.0000
  P   P1        1.0  0.9618900418281555  0.8363966345787048  0.4200838804244996  1.0000
  Pt  Pt1       1.0  0.9839060306549072  0.18561352789402008  0.9277368187904358  1.0000
