data_image0
_chemical_formula_structural       In2Ru5
_chemical_formula_sum              "In2 Ru5"
_cell_length_a       4.76600413496536
_cell_length_b       5.3748723996790515
_cell_length_c       5.571700096130371
_cell_angle_alpha    115.92350189543936
_cell_angle_beta     88.47630547426402
_cell_angle_gamma    93.83715962716809

_space_group_name_H-M_alt    "P 1"
_space_group_IT_number       1

loop_
  _space_group_symop_operation_xyz
  'x, y, z'

loop_
  _atom_site_type_symbol
  _atom_site_label
  _atom_site_symmetry_multiplicity
  _atom_site_fract_x
  _atom_site_fract_y
  _atom_site_fract_z
  _atom_site_occupancy
  In  In1       1.0  0.18683886528015137  0.6138465404510498  0.8991411924362183  1.0000
  In  In2       1.0  0.6916248798370361  0.4977062046527863  0.6597055792808533  1.0000
  Ru  Ru1       1.0  0.6881474256515503  0.06989070773124695  0.41283711791038513  1.0000
  Ru  Ru2       1.0  0.1903911530971527  0.03820999339222908  0.6754428148269653  1.0000
  Ru  Ru3       1.0  0.1855752170085907  0.0036216974258422856  0.15401197969913483  1.0000
  Ru  Ru4       1.0  0.6867868304252625  0.7380848526954651  0.38644737005233765  1.0000
  Ru  Ru5       1.0  0.686193585395813  0.3609943091869354  0.1579406559467316  1.0000
