data_image0
_chemical_formula_structural       Ag4O5Pt
_chemical_formula_sum              "Ag4 O5 Pt1"
_cell_length_a       5.778477874696622
_cell_length_b       6.49408048261338
_cell_length_c       6.753215312957764
_cell_angle_alpha    63.16691739515234
_cell_angle_beta     65.28015217034492
_cell_angle_gamma    64.45250593516286

_space_group_name_H-M_alt    "P 1"
_space_group_IT_number       1

loop_
  _space_group_symop_operation_xyz
  'x, y, z'

loop_
  _atom_site_type_symbol
  _atom_site_label
  _atom_site_symmetry_multiplicity
  _atom_site_fract_x
  _atom_site_fract_y
  _atom_site_fract_z
  _atom_site_occupancy
  Ag  Ag1       1.0  0.26165640354156494  0.5339332222938538  0.4483570158481598  1.0000
  Ag  Ag2       1.0  0.7521836757659912  0.0843542069196701  0.9453781843185425  1.0000
  Ag  Ag3       1.0  0.2703510820865631  0.036158569157123566  0.12885317206382751  1.0000
  Ag  Ag4       1.0  0.7567185759544373  0.7848294377326965  0.14802247285842896  1.0000
  O   O1        1.0  0.04537063091993332  0.792887270450592  0.6258329749107361  1.0000
  O   O2        1.0  0.2670224905014038  0.032542116940021515  0.40594610571861267  1.0000
  O   O3        1.0  0.32139322161674505  0.8148192167282103  0.657919704914093  1.0000
  O   O4        1.0  0.45813465118408203  0.31887710094451904  0.14369510114192963  1.0000
  O   O5        1.0  0.570919394493103  0.36286187171936035  0.5009477734565735  1.0000
  Pt  Pt1       1.0  0.2865130603313446  0.03530007228255272  0.32705676555633545  1.0000
