data_image0
_chemical_formula_structural       Ag4O5Tl
_chemical_formula_sum              "Ag4 O5 Tl1"
_cell_length_a       4.380186661223875
_cell_length_b       7.001127641061899
_cell_length_c       7.2968268394470215
_cell_angle_alpha    97.39931457897718
_cell_angle_beta     97.1024235047489
_cell_angle_gamma    88.20976566361004

_space_group_name_H-M_alt    "P 1"
_space_group_IT_number       1

loop_
  _space_group_symop_operation_xyz
  'x, y, z'

loop_
  _atom_site_type_symbol
  _atom_site_label
  _atom_site_symmetry_multiplicity
  _atom_site_fract_x
  _atom_site_fract_y
  _atom_site_fract_z
  _atom_site_occupancy
  Ag  Ag1       1.0  0.8255603909492493  0.23619250953197482  0.2474115043878555  1.0000
  Ag  Ag2       1.0  0.09918010979890823  0.5076293349266052  0.6593730449676514  1.0000
  Ag  Ag3       1.0  0.3404540717601776  0.37989863753318787  0.08956363052129744  1.0000
  Ag  Ag4       1.0  0.10468793660402298  0.9269261360168458  0.7190177440643309  1.0000
  O   O1        1.0  0.7685999870300293  0.24683271348476413  0.43906921148300165  1.0000
  O   O2        1.0  0.5769562125205994  0.7070608139038086  0.9644919037818908  1.0000
  O   O3        1.0  0.0864967480301857  0.4875799119472504  0.917057693004608  1.0000
  O   O4        1.0  0.8420228958129883  0.645280659198761  0.15171673893928528  1.0000
  O   O5        1.0  0.37581613659858704  0.03182797506451607  0.19695805013179776  1.0000
  Tl  Tl1       1.0  0.39895713329315186  0.8769854307174683  0.28188639879226685  1.0000
