data_image0
_chemical_formula_structural       Ag4O5Te
_chemical_formula_sum              "Ag4 O5 Te1"
_cell_length_a       4.960177702078653
_cell_length_b       6.850046730817085
_cell_length_c       6.566540718078613
_cell_angle_alpha    120.93448301116965
_cell_angle_beta     90.96996953408474
_cell_angle_gamma    88.05904274969186

_space_group_name_H-M_alt    "P 1"
_space_group_IT_number       1

loop_
  _space_group_symop_operation_xyz
  'x, y, z'

loop_
  _atom_site_type_symbol
  _atom_site_label
  _atom_site_symmetry_multiplicity
  _atom_site_fract_x
  _atom_site_fract_y
  _atom_site_fract_z
  _atom_site_occupancy
  Ag  Ag1       1.0  0.8458934426307678  0.2813825011253357  0.15176022052764893  1.0000
  Ag  Ag2       1.0  0.34541696310043335  0.7454571723937988  0.49111902713775635  1.0000
  Ag  Ag3       1.0  0.3506949543952942  0.39703652262687683  0.8562104105949401  1.0000
  Ag  Ag4       1.0  0.8649401068687439  0.996146559715271  0.09135644137859343  1.0000
  O   O1        1.0  0.39013010263442993  0.11515927314758301  0.7988510131835936  1.0000
  O   O2        1.0  0.9008116126060486  0.31804320216178894  0.34883216023445124  1.0000
  O   O3        1.0  0.3791099190711975  0.5318713188171387  0.8303260803222655  1.0000
  O   O4        1.0  0.3425937592983246  0.42143139243125916  0.5854191780090332  1.0000
  O   O5        1.0  0.9045290946960449  0.27745914459228516  0.34969651699066157  1.0000
  Te  Te1       1.0  0.862109363079071  0.7978314757347107  0.7900340557098388  1.0000
