data_image0
_chemical_formula_structural       Ag3O7
_chemical_formula_sum              "Ag3 O7"
_cell_length_a       5.248885416163997
_cell_length_b       5.789360105947073
_cell_length_c       6.276317119598389
_cell_angle_alpha    59.72350936326351
_cell_angle_beta     62.58730358735265
_cell_angle_gamma    65.55020735568569

_space_group_name_H-M_alt    "P 1"
_space_group_IT_number       1

loop_
  _space_group_symop_operation_xyz
  'x, y, z'

loop_
  _atom_site_type_symbol
  _atom_site_label
  _atom_site_symmetry_multiplicity
  _atom_site_fract_x
  _atom_site_fract_y
  _atom_site_fract_z
  _atom_site_occupancy
  Ag  Ag1       1.0  0.5359675288200378  0.8749817609786987  0.0763813927769661  1.0000
  Ag  Ag2       1.0  0.8347420692443848  0.14288879930973053  0.6882558465003967  1.0000
  Ag  Ag3       1.0  0.09207054227590561  0.083973728120327  0.9770779013633729  1.0000
  O   O1        1.0  0.19637368619441986  0.8860445618629456  0.7213238477706909  1.0000
  O   O2        1.0  0.7869061231613159  0.5718745589256287  0.21011109650135043  1.0000
  O   O3        1.0  0.4538865387439728  0.9798872470855713  0.3512994050979614  1.0000
  O   O4        1.0  0.931949257850647  0.9486274719238281  0.12096100300550462  1.0000
  O   O5        1.0  0.43732818961143494  0.4637364149093628  0.40652939677238464  1.0000
  O   O6        1.0  0.4986313581466675  0.1085093766450882  0.9588902592658998  1.0000
  O   O7        1.0  0.4059979021549225  0.40249279141426086  0.279729962348938  1.0000
