data_image0
_chemical_formula_structural       Ag3O6Tl
_chemical_formula_sum              "Ag3 O6 Tl1"
_cell_length_a       5.159499697718467
_cell_length_b       5.698092595570788
_cell_length_c       6.416122913360596
_cell_angle_alpha    113.17417925027472
_cell_angle_beta     109.04539429558127
_cell_angle_gamma    89.1322701348246

_space_group_name_H-M_alt    "P 1"
_space_group_IT_number       1

loop_
  _space_group_symop_operation_xyz
  'x, y, z'

loop_
  _atom_site_type_symbol
  _atom_site_label
  _atom_site_symmetry_multiplicity
  _atom_site_fract_x
  _atom_site_fract_y
  _atom_site_fract_z
  _atom_site_occupancy
  Ag  Ag1       1.0  0.41851189732551575  0.8761427998542786  0.8471851348876953  1.0000
  Ag  Ag2       1.0  0.8970673680305481  0.41175585985183716  0.372676819562912  1.0000
  Ag  Ag3       1.0  0.13144393265247345  0.010884860530495644  0.5011464357376099  1.0000
  O   O1        1.0  0.18474598228931427  0.49506875872612  0.5911543369293213  1.0000
  O   O2        1.0  0.9812933802604675  0.9088303446769714  0.9218892455101013  1.0000
  O   O3        1.0  0.6982080340385437  0.14628542959690094  0.5634492039680481  1.0000
  O   O4        1.0  0.4171961545944214  0.3976709544658661  0.062476590275764465  1.0000
  O   O5        1.0  0.5654234886169434  0.7041749358177185  0.8506702780723572  1.0000
  O   O6        1.0  0.6797639727592468  0.039131082594394684  0.49664926528930664  1.0000
  Tl  Tl1       1.0  0.9021733403205872  0.7456473708152771  0.3554447293281555  1.0000
