data_image0
_chemical_formula_structural       Ag4O5Te
_chemical_formula_sum              "Ag4 O5 Te1"
_cell_length_a       5.1186080667707
_cell_length_b       4.3441988703636385
_cell_length_c       5.822768688201904
_cell_angle_alpha    142.27975255042128
_cell_angle_beta     105.79992606300378
_cell_angle_gamma    78.04335196520528

_space_group_name_H-M_alt    "P 1"
_space_group_IT_number       1

loop_
  _space_group_symop_operation_xyz
  'x, y, z'

loop_
  _atom_site_type_symbol
  _atom_site_label
  _atom_site_symmetry_multiplicity
  _atom_site_fract_x
  _atom_site_fract_y
  _atom_site_fract_z
  _atom_site_occupancy
  Ag  Ag1       1.0  0.2575452923774719  0.10452095419168471  0.6354073286056519  1.0000
  Ag  Ag2       1.0  0.19281814992427826  0.8068423867225646  0.4490795731544494  1.0000
  Ag  Ag3       1.0  0.7495858073234558  0.8418762683868406  0.541414976119995  1.0000
  Ag  Ag4       1.0  0.800938606262207  0.982138395309448  0.8451867699623107  1.0000
  O   O1        1.0  0.5017517209053038  0.9619733691215514  0.08970806747674938  1.0000
  O   O2        1.0  0.7988457083702087  0.6011151075363158  0.5515971779823302  1.0000
  O   O3        1.0  0.2862323820590973  0.9682082533836363  0.779660403728485  1.0000
  O   O4        1.0  0.8400877714157104  0.6288687586784361  0.8296294212341307  1.0000
  O   O5        1.0  0.3306933343410492  0.23599065840244293  0.8684276938438416  1.0000
  Te  Te1       1.0  0.736312210559845  0.7153486013412476  0.27982795238494873  1.0000
