data_image0
_chemical_formula_structural       B3Mn5Zn
_chemical_formula_sum              "B3 Mn5 Zn1"
_cell_length_a       5.019226075286416
_cell_length_b       5.470445377856007
_cell_length_c       5.413110256195068
_cell_angle_alpha    58.306595090779346
_cell_angle_beta     61.79646804516249
_cell_angle_gamma    62.62249957152236

_space_group_name_H-M_alt    "P 1"
_space_group_IT_number       1

loop_
  _space_group_symop_operation_xyz
  'x, y, z'

loop_
  _atom_site_type_symbol
  _atom_site_label
  _atom_site_symmetry_multiplicity
  _atom_site_fract_x
  _atom_site_fract_y
  _atom_site_fract_z
  _atom_site_occupancy
  B   B1        1.0  0.4350254237651825  0.1453600525856018  0.2740194499492645  1.0000
  B   B2        1.0  0.7047374248504639  0.30538633465766907  0.6209698915481567  1.0000
  B   B3        1.0  0.8868980407714844  0.3068087100982666  0.2727423012256621  1.0000
  Mn  Mn1       1.0  0.6519759297370911  0.10277891904115677  0.5117743611335754  1.0000
  Mn  Mn2       1.0  0.11143288761377335  0.8423205614089966  0.9759055376052856  1.0000
  Mn  Mn3       1.0  0.6986892819404602  0.668533205986023  0.8227662444114685  1.0000
  Mn  Mn4       1.0  0.12841938436031342  0.3263537585735321  0.0031460595782846004  1.0000
  Mn  Mn5       1.0  0.1507178246974945  0.630001962184906  0.1393950879573822  1.0000
  Zn  Zn1       1.0  0.44909507036209106  0.6597006916999817  0.24933671951293945  1.0000
