data_image0
_chemical_formula_structural       B4HMn4
_chemical_formula_sum              "B4 H1 Mn4"
_cell_length_a       4.9664923762672215
_cell_length_b       5.430487187903656
_cell_length_c       5.43862247467041
_cell_angle_alpha    63.688281985573624
_cell_angle_beta     60.78796352065909
_cell_angle_gamma    61.41806190944813

_space_group_name_H-M_alt    "P 1"
_space_group_IT_number       1

loop_
  _space_group_symop_operation_xyz
  'x, y, z'

loop_
  _atom_site_type_symbol
  _atom_site_label
  _atom_site_symmetry_multiplicity
  _atom_site_fract_x
  _atom_site_fract_y
  _atom_site_fract_z
  _atom_site_occupancy
  B   B1        1.0  0.8455251455307007  0.7101773023605347  0.1432746797800064  1.0000
  B   B2        1.0  0.8246071338653564  0.9876626133918762  0.7910736799240112  1.0000
  B   B3        1.0  0.5113347768783569  0.5641499161720276  0.4877946078777313  1.0000
  B   B4        1.0  0.47730085253715515  0.7381536960601807  0.414059579372406  1.0000
  H   H1        1.0  0.9061132669448853  0.22563688457012177  0.6520116329193115  1.0000
  Mn  Mn1       1.0  0.10753598064184189  0.5474001169204712  0.482759565114975  1.0000
  Mn  Mn2       1.0  0.4871908128261566  0.215177521109581  0.8956495523452759  1.0000
  Mn  Mn3       1.0  0.8506432175636292  0.5022183060646057  0.25232347846031183  1.0000
  Mn  Mn4       1.0  0.49386605620384216  0.9859493970870972  0.5017617344856261  1.0000
