data_image0
_chemical_formula_structural       B4HMn3P
_chemical_formula_sum              "B4 H1 Mn3 P1"
_cell_length_a       4.808000024866639
_cell_length_b       5.250306758776002
_cell_length_c       5.196572780609131
_cell_angle_alpha    57.759916145921146
_cell_angle_beta     61.35501709995667
_cell_angle_gamma    57.97927266653986

_space_group_name_H-M_alt    "P 1"
_space_group_IT_number       1

loop_
  _space_group_symop_operation_xyz
  'x, y, z'

loop_
  _atom_site_type_symbol
  _atom_site_label
  _atom_site_symmetry_multiplicity
  _atom_site_fract_x
  _atom_site_fract_y
  _atom_site_fract_z
  _atom_site_occupancy
  B   B1        1.0  0.446332186460495  0.32767805457115173  0.5631846189498901  1.0000
  B   B2        1.0  0.7336083054542542  0.07069046050310135  0.22807994484901434  1.0000
  B   B3        1.0  0.1869637817144394  0.09720747917890549  0.7876442670822144  1.0000
  B   B4        1.0  0.4498308598995209  0.8561536073684692  0.2179599553346634  1.0000
  H   H1        1.0  0.7618056535720825  0.5626004934310913  0.26599225401878357  1.0000
  Mn  Mn1       1.0  0.3937998116016388  0.7046387791633606  0.015240305103361607  1.0000
  Mn  Mn2       1.0  0.06968116015195847  0.5737393498420715  0.5607103109359741  1.0000
  Mn  Mn3       1.0  0.7212209701538086  0.07326406240463257  0.5625753402709961  1.0000
  P   P1        1.0  0.31505411863327026  0.6078638434410095  0.7223522067070007  1.0000
