data_image0
_chemical_formula_structural       B5Mn3Y
_chemical_formula_sum              "B5 Mn3 Y1"
_cell_length_a       4.613532665555404
_cell_length_b       5.1840943601860285
_cell_length_c       4.986948013305664
_cell_angle_alpha    64.43335149152018
_cell_angle_beta     64.49424148883185
_cell_angle_gamma    59.478996791140844

_space_group_name_H-M_alt    "P 1"
_space_group_IT_number       1

loop_
  _space_group_symop_operation_xyz
  'x, y, z'

loop_
  _atom_site_type_symbol
  _atom_site_label
  _atom_site_symmetry_multiplicity
  _atom_site_fract_x
  _atom_site_fract_y
  _atom_site_fract_z
  _atom_site_occupancy
  B   B1        1.0  0.2725374400615692  0.4209277927875519  0.3665938079357147  1.0000
  B   B2        1.0  0.8724051117897034  0.5763329267501831  0.9589015841484069  1.0000
  B   B3        1.0  0.5148497223854065  0.9597524404525757  0.6450971961021423  1.0000
  B   B4        1.0  0.12026257067918777  0.057289350777864456  0.8307981491088866  1.0000
  B   B5        1.0  0.5862981677055359  0.1024562269449234  0.10656547546386717  1.0000
  Mn  Mn1       1.0  0.36192941665649414  0.7668744325637817  0.13718417286872864  1.0000
  Mn  Mn2       1.0  0.5326167345046997  0.6936680674552917  0.6064943671226501  1.0000
  Mn  Mn3       1.0  0.01765485107898712  0.4916536808013916  0.6460878252983093  1.0000
  Y   Y1        1.0  0.7329235672950745  0.31901606917381287  0.8938540220260619  1.0000
