data_image0
_chemical_formula_structural       B4Mn4Y
_chemical_formula_sum              "B4 Mn4 Y1"
_cell_length_a       4.659547289680026
_cell_length_b       5.30381907336841
_cell_length_c       4.76670503616333
_cell_angle_alpha    59.49863068658421
_cell_angle_beta     60.84415614231677
_cell_angle_gamma    55.71544780533617

_space_group_name_H-M_alt    "P 1"
_space_group_IT_number       1

loop_
  _space_group_symop_operation_xyz
  'x, y, z'

loop_
  _atom_site_type_symbol
  _atom_site_label
  _atom_site_symmetry_multiplicity
  _atom_site_fract_x
  _atom_site_fract_y
  _atom_site_fract_z
  _atom_site_occupancy
  B   B1        1.0  0.38532161712646484  0.28227993845939636  0.4259793162345886  1.0000
  B   B2        1.0  0.3532717525959015  0.5232403874397278  0.7368303537368774  1.0000
  B   B3        1.0  0.8799436092376709  0.9442210793495178  0.7144038677215576  1.0000
  B   B4        1.0  0.36287423968315125  0.9718380570411682  0.1879115104675293  1.0000
  Mn  Mn1       1.0  0.38228553533554077  0.5026674866676331  0.04073862358927727  1.0000
  Mn  Mn2       1.0  0.6165121793746948  0.21232487261295319  0.6947211027145386  1.0000
  Mn  Mn3       1.0  0.7237777709960938  0.22487275302410126  0.7755358219146729  1.0000
  Mn  Mn4       1.0  0.8846181035041809  0.5309197902679443  0.03284247219562521  1.0000
  Y   Y1        1.0  0.015523026697337627  0.6865805387496948  0.939239501953125  1.0000
