data_image0
_chemical_formula_structural       HLuNbPdSc2Sn2Tc
_chemical_formula_sum              "H1 Lu1 Nb1 Pd1 Sc2 Sn2 Tc1"
_cell_length_a       6.205033325064258
_cell_length_b       5.8649744823349454
_cell_length_c       6.086824893951416
_cell_angle_alpha    63.581481140736805
_cell_angle_beta     60.41822647815545
_cell_angle_gamma    58.56327437880525

_space_group_name_H-M_alt    "P 1"
_space_group_IT_number       1

loop_
  _space_group_symop_operation_xyz
  'x, y, z'

loop_
  _atom_site_type_symbol
  _atom_site_label
  _atom_site_symmetry_multiplicity
  _atom_site_fract_x
  _atom_site_fract_y
  _atom_site_fract_z
  _atom_site_occupancy
  H   H1        1.0  0.5016165971755981  0.1391778439283371  0.6887726187705994  1.0000
  Lu  Lu1       1.0  0.986640453338623  0.6416358947753906  0.12583114206790924  1.0000
  Nb  Nb1       1.0  0.7155094742774963  0.3365923762321472  0.3315494358539581  1.0000
  Pd  Pd1       1.0  0.19973309338092804  0.9749557375907898  0.9647964835166932  1.0000
  Sc  Sc1       1.0  0.9988375902175903  0.7266048192977905  0.9595264792442323  1.0000
  Sc  Sc2       1.0  0.9936700463294983  0.0882301777601242  0.11807372421026223  1.0000
  Sn  Sn1       1.0  0.5233372449874878  0.385181725025177  0.3769503235816955  1.0000
  Sn  Sn2       1.0  0.9967854022979736  0.10936097055673599  0.7156022787094116  1.0000
  Tc  Tc1       1.0  0.15427842736244202  0.6349643468856812  0.3392185568809509  1.0000
