data_image0
_chemical_formula_structural       GeNbPPd4Sc2
_chemical_formula_sum              "Ge1 Nb1 P1 Pd4 Sc2"
_cell_length_a       5.785853764585163
_cell_length_b       5.7889175131907535
_cell_length_c       5.498095512390137
_cell_angle_alpha    77.24347510143842
_cell_angle_beta     64.9693825178761
_cell_angle_gamma    66.99700015926142

_space_group_name_H-M_alt    "P 1"
_space_group_IT_number       1

loop_
  _space_group_symop_operation_xyz
  'x, y, z'

loop_
  _atom_site_type_symbol
  _atom_site_label
  _atom_site_symmetry_multiplicity
  _atom_site_fract_x
  _atom_site_fract_y
  _atom_site_fract_z
  _atom_site_occupancy
  Ge  Ge1       1.0  0.3755222260951996  0.32487040758132935  0.7524033784866333  1.0000
  Nb  Nb1       1.0  0.3880115747451782  0.648192822933197  0.76643967628479  1.0000
  P   P1        1.0  0.8894983530044556  0.47178900241851807  0.31415456533432007  1.0000
  Pd  Pd1       1.0  0.15054278075695038  0.4486285448074341  0.06299172341823578  1.0000
  Pd  Pd2       1.0  0.1524748057126999  0.6493891477584839  0.07632473856210709  1.0000
  Pd  Pd3       1.0  0.6520459055900574  0.2562699615955353  0.9171997308731079  1.0000
  Pd  Pd4       1.0  0.8740680813789368  0.6046943068504333  0.5218376517295837  1.0000
  Sc  Sc1       1.0  0.3871306777000427  0.6103200316429138  0.5002094507217407  1.0000
  Sc  Sc2       1.0  0.8732069730758667  0.3915545642375946  0.9086178541183472  1.0000
