data_image0
_chemical_formula_structural       Nb2PPbPd2Sc3
_chemical_formula_sum              "Nb2 P1 Pb1 Pd2 Sc3"
_cell_length_a       5.8470680787499765
_cell_length_b       5.6850903499181396
_cell_length_c       5.413716793060303
_cell_angle_alpha    56.55440543537712
_cell_angle_beta     59.2409890748634
_cell_angle_gamma    55.94231995112568

_space_group_name_H-M_alt    "P 1"
_space_group_IT_number       1

loop_
  _space_group_symop_operation_xyz
  'x, y, z'

loop_
  _atom_site_type_symbol
  _atom_site_label
  _atom_site_symmetry_multiplicity
  _atom_site_fract_x
  _atom_site_fract_y
  _atom_site_fract_z
  _atom_site_occupancy
  Nb  Nb1       1.0  0.1506323218345642  0.12138921022415161  0.7305976748466492  1.0000
  Nb  Nb2       1.0  0.1413845270872116  0.5011659264564514  0.11123952269554138  1.0000
  P   P1        1.0  0.4405573010444641  0.36242926120758057  0.08502742648124695  1.0000
  Pb  Pb1       1.0  0.4872693121433258  0.7465027570724487  0.36367863416671753  1.0000
  Pd  Pd1       1.0  0.724850058555603  0.09925846010446548  0.7637677788734436  1.0000
  Pd  Pd2       1.0  0.9807595014572144  0.2678120732307434  0.4264276921749115  1.0000
  Sc  Sc1       1.0  0.472097247838974  0.6045731902122498  0.5579908490180969  1.0000
  Sc  Sc2       1.0  0.443278968334198  0.4061044752597809  0.9912055730819702  1.0000
  Sc  Sc3       1.0  0.9993181228637695  0.20361244678497314  0.16515208780765533  1.0000
