data_image0
_chemical_formula_structural       ClCrPPd2Sc3Tc
_chemical_formula_sum              "Cl1 Cr1 P1 Pd2 Sc3 Tc1"
_cell_length_a       3.810407366335368
_cell_length_b       3.8365122379048695
_cell_length_c       5.763946056365967
_cell_angle_alpha    112.89360697091158
_cell_angle_beta     90.14454490724854
_cell_angle_gamma    95.19844365222

_space_group_name_H-M_alt    "P 1"
_space_group_IT_number       1

loop_
  _space_group_symop_operation_xyz
  'x, y, z'

loop_
  _atom_site_type_symbol
  _atom_site_label
  _atom_site_symmetry_multiplicity
  _atom_site_fract_x
  _atom_site_fract_y
  _atom_site_fract_z
  _atom_site_occupancy
  Cl  Cl1       1.0  0.9477629661560059  0.9901137351989747  0.1283288151025772  1.0000
  Cr  Cr1       1.0  0.4658605754375458  0.8186219334602357  0.534630537033081  1.0000
  P   P1        1.0  0.9365689158439636  0.26364865899086  0.6702728867530823  1.0000
  Pd  Pd1       1.0  0.4692077040672302  0.30948320031166077  0.05607510358095169  1.0000
  Pd  Pd2       1.0  0.4680165648460388  0.36900326609611517  0.5814749002456665  1.0000
  Sc  Sc1       1.0  0.46575018763542175  0.14617706835269928  0.24611203372478485  1.0000
  Sc  Sc2       1.0  0.12508904933929443  0.31403735280036926  0.6622996926307678  1.0000
  Sc  Sc3       1.0  0.9650729298591615  0.09218194335699083  0.20079553127288818  1.0000
  Tc  Tc1       1.0  0.9539291262626648  0.9762930274009706  0.06394768506288533  1.0000
