data_image0
_chemical_formula_structural       Nb5Pd4
_chemical_formula_sum              "Nb5 Pd4"
_cell_length_a       4.422740223862656
_cell_length_b       4.701039742030588
_cell_length_c       5.520841121673584
_cell_angle_alpha    111.32674748126476
_cell_angle_beta     92.79775331526531
_cell_angle_gamma    93.67648890684916

_space_group_name_H-M_alt    "P 1"
_space_group_IT_number       1

loop_
  _space_group_symop_operation_xyz
  'x, y, z'

loop_
  _atom_site_type_symbol
  _atom_site_label
  _atom_site_symmetry_multiplicity
  _atom_site_fract_x
  _atom_site_fract_y
  _atom_site_fract_z
  _atom_site_occupancy
  Nb  Nb1       1.0  0.5383272767066956  0.7735508680343628  0.11414723098278046  1.0000
  Nb  Nb2       1.0  0.037643786519765854  0.872341513633728  0.8113317489624023  1.0000
  Nb  Nb3       1.0  0.03740592673420906  0.8007811903953552  0.4209008514881134  1.0000
  Nb  Nb4       1.0  0.5377540588378906  0.7301585674285889  0.2290873229503631  1.0000
  Nb  Nb5       1.0  0.5369940400123596  0.7273254990577698  0.9826373457908629  1.0000
  Pd  Pd1       1.0  0.5293952822685242  0.6205258369445801  0.7682533860206604  1.0000
  Pd  Pd2       1.0  0.5349096059799194  0.8297446966171265  0.5357938408851624  1.0000
  Pd  Pd3       1.0  0.03383297845721245  0.472923219203949  0.5615708231925964  1.0000
  Pd  Pd4       1.0  0.03640846163034439  0.8211032748222351  0.5058107376098632  1.0000
