data_image0
_chemical_formula_structural       Cl2FGeNScSrVXe
_chemical_formula_sum              "Cl2 F1 Ge1 N1 Sc1 Sr1 V1 Xe1"
_cell_length_a       6.212100887677924
_cell_length_b       6.202823657704116
_cell_length_c       7.0340986251831055
_cell_angle_alpha    63.532852182027774
_cell_angle_beta     63.84142349747318
_cell_angle_gamma    60.01080897637362

_space_group_name_H-M_alt    "P 1"
_space_group_IT_number       1

loop_
  _space_group_symop_operation_xyz
  'x, y, z'

loop_
  _atom_site_type_symbol
  _atom_site_label
  _atom_site_symmetry_multiplicity
  _atom_site_fract_x
  _atom_site_fract_y
  _atom_site_fract_z
  _atom_site_occupancy
  Cl  Cl1       1.0  0.9004035592079163  0.8353031277656555  0.04540532454848283  1.0000
  Cl  Cl2       1.0  0.5614610910415649  0.5500012040138245  0.03355414420366284  1.0000
  F   F1        1.0  0.21997970342636108  0.20588575303554535  0.02311574108898638  1.0000
  Ge  Ge1       1.0  0.5778574347496033  0.5399553775787354  0.5188309550285339  1.0000
  N   N1        1.0  0.07161743938922882  0.03224428743124008  0.46733102202415466  1.0000
  Sc  Sc1       1.0  0.897447407245636  0.3579694628715515  0.2359707802534103  1.0000
  Sr  Sr1       1.0  0.06249069422483444  0.5379406809806824  0.568716287612915  1.0000
  V   V1        1.0  0.4247981011867523  0.9296470284461975  0.2664710879325866  1.0000
  Xe  Xe1       1.0  0.6379929780960083  0.11491118371486664  0.6340954303741455  1.0000
