data_image0
_chemical_formula_structural       Nb3Pb3Sr3
_chemical_formula_sum              "Nb3 Pb3 Sr3"
_cell_length_a       6.030482221419994
_cell_length_b       6.366256249334223
_cell_length_c       7.823792457580566
_cell_angle_alpha    111.18900301092921
_cell_angle_beta     104.3109979239876
_cell_angle_gamma    92.96446531668968

_space_group_name_H-M_alt    "P 1"
_space_group_IT_number       1

loop_
  _space_group_symop_operation_xyz
  'x, y, z'

loop_
  _atom_site_type_symbol
  _atom_site_label
  _atom_site_symmetry_multiplicity
  _atom_site_fract_x
  _atom_site_fract_y
  _atom_site_fract_z
  _atom_site_occupancy
  Nb  Nb1       1.0  0.4153960049152374  0.2657531797885895  0.8795477747917175  1.0000
  Nb  Nb2       1.0  0.7592259049415588  0.8848891258239746  0.6404507756233215  1.0000
  Nb  Nb3       1.0  0.7514421343803406  0.29395803809165955  0.6354483366012573  1.0000
  Pb  Pb1       1.0  0.8890660405158997  0.6943053007125854  0.9362686276435852  1.0000
  Pb  Pb2       1.0  0.594666600227356  0.4455831050872803  0.32953161001205444  1.0000
  Pb  Pb3       1.0  0.16690795123577118  0.06584953516721725  0.49746590852737427  1.0000
  Sr  Sr1       1.0  0.5251603722572327  0.8747768998146057  0.19603510200977323  1.0000
  Sr  Sr2       1.0  0.25693389773368835  0.6269614100456238  0.6396575570106506  1.0000
  Sr  Sr3       1.0  0.9976614713668823  0.255234956741333  0.08417311310768125  1.0000
