data_image0
_chemical_formula_structural       Nb2Pb4Sr3
_chemical_formula_sum              "Nb2 Pb4 Sr3"
_cell_length_a       5.591085031412123
_cell_length_b       6.850840173427082
_cell_length_c       8.480077743530273
_cell_angle_alpha    107.00235281032515
_cell_angle_beta     89.97456011032094
_cell_angle_gamma    114.24704560327811

_space_group_name_H-M_alt    "P 1"
_space_group_IT_number       1

loop_
  _space_group_symop_operation_xyz
  'x, y, z'

loop_
  _atom_site_type_symbol
  _atom_site_label
  _atom_site_symmetry_multiplicity
  _atom_site_fract_x
  _atom_site_fract_y
  _atom_site_fract_z
  _atom_site_occupancy
  Nb  Nb1       1.0  0.3883471190929413  0.26115864515304565  0.008520609699189656  1.0000
  Nb  Nb2       1.0  0.7273544073104858  0.9747061729431152  0.7778280973434448  1.0000
  Pb  Pb1       1.0  0.21963904798030853  0.9437984824180603  0.6794688701629639  1.0000
  Pb  Pb2       1.0  0.35868018865585327  0.2046724408864975  0.34441071748733515  1.0000
  Pb  Pb3       1.0  0.859132707118988  0.18689092993736267  0.10356644541025162  1.0000
  Pb  Pb4       1.0  0.5256081819534302  0.537001371383667  0.8241078853607178  1.0000
  Sr  Sr1       1.0  0.9529275894165039  0.4096779525279999  0.5589764714241028  1.0000
  Sr  Sr2       1.0  0.14724712073802948  0.7602905035018921  0.04220657050609586  1.0000
  Sr  Sr3       1.0  0.6270191073417664  0.7543197274208069  0.34734293818473816  1.0000
