data_image0
_chemical_formula_structural       BaCd3GeZr4
_chemical_formula_sum              "Ba1 Cd3 Ge1 Zr4"
_cell_length_a       5.627894556150258
_cell_length_b       7.495266365485416
_cell_length_c       7.924557209014893
_cell_angle_alpha    123.76359129873056
_cell_angle_beta     90.07936954238657
_cell_angle_gamma    88.11473673963846

_space_group_name_H-M_alt    "P 1"
_space_group_IT_number       1

loop_
  _space_group_symop_operation_xyz
  'x, y, z'

loop_
  _atom_site_type_symbol
  _atom_site_label
  _atom_site_symmetry_multiplicity
  _atom_site_fract_x
  _atom_site_fract_y
  _atom_site_fract_z
  _atom_site_occupancy
  Ba  Ba1       1.0  0.8951975703239441  0.8345686793327332  0.24894411861896523  1.0000
  Cd  Cd1       1.0  0.38921496272087097  0.5641350150108337  0.823865056037903  1.0000
  Cd  Cd2       1.0  0.3972756564617157  0.6646122336387634  0.2996103763580322  1.0000
  Cd  Cd3       1.0  0.8957512378692627  0.7850933074951172  0.38150697946548473  1.0000
  Ge  Ge1       1.0  0.39194610714912415  0.40023860335350037  0.025496529415249856  1.0000
  Zr  Zr1       1.0  0.39633122086524963  0.5987967252731323  0.20063254237174996  1.0000
  Zr  Zr2       1.0  0.3968261480331421  0.9749422073364258  0.724553406238556  1.0000
  Zr  Zr3       1.0  0.896460771560669  0.6171589493751526  0.8177539110183717  1.0000
  Zr  Zr4       1.0  0.8959792256355286  0.9175063967704773  0.7790098190307618  1.0000
