data_image0
_chemical_formula_structural       Cd3OsSb2Zr3
_chemical_formula_sum              "Cd3 Os1 Sb2 Zr3"
_cell_length_a       5.6284532485257905
_cell_length_b       7.632141255642656
_cell_length_c       8.226991653442383
_cell_angle_alpha    123.70379981232048
_cell_angle_beta     89.00523615449539
_cell_angle_gamma    88.89400595761819

_space_group_name_H-M_alt    "P 1"
_space_group_IT_number       1

loop_
  _space_group_symop_operation_xyz
  'x, y, z'

loop_
  _atom_site_type_symbol
  _atom_site_label
  _atom_site_symmetry_multiplicity
  _atom_site_fract_x
  _atom_site_fract_y
  _atom_site_fract_z
  _atom_site_occupancy
  Cd  Cd1       1.0  0.7636613249778748  0.23044763505458832  0.8711269497871399  1.0000
  Cd  Cd2       1.0  0.2640398144721985  0.9555127620697021  0.597381353378296  1.0000
  Cd  Cd3       1.0  0.26845061779022217  0.18481239676475525  0.07242736965417862  1.0000
  Os  Os1       1.0  0.7640089988708496  0.7284113764762878  0.8645452857017517  1.0000
  Sb  Sb1       1.0  0.2601824402809143  0.5930267572402954  0.12282728403806686  1.0000
  Sb  Sb2       1.0  0.7608698606491089  0.3267243504524231  0.8698659539222717  1.0000
  Zr  Zr1       1.0  0.2635296881198883  0.12364233285188675  0.8085741400718689  1.0000
  Zr  Zr2       1.0  0.7671272158622742  0.15635398030281067  0.5980748534202576  1.0000
  Zr  Zr3       1.0  0.2675328552722931  0.24962587654590607  0.5699267387390137  1.0000
