data_image0
_chemical_formula_structural       Cd3Hg4SiZr
_chemical_formula_sum              "Cd3 Hg4 Si1 Zr1"
_cell_length_a       5.091891226386159
_cell_length_b       6.470677090229163
_cell_length_c       6.404761791229248
_cell_angle_alpha    123.192687113358
_cell_angle_beta     89.51417926048514
_cell_angle_gamma    88.99783454113039

_space_group_name_H-M_alt    "P 1"
_space_group_IT_number       1

loop_
  _space_group_symop_operation_xyz
  'x, y, z'

loop_
  _atom_site_type_symbol
  _atom_site_label
  _atom_site_symmetry_multiplicity
  _atom_site_fract_x
  _atom_site_fract_y
  _atom_site_fract_z
  _atom_site_occupancy
  Cd  Cd1       1.0  0.21192996203899384  0.13271154463291168  0.4046870172023774  1.0000
  Cd  Cd2       1.0  0.7108187079429626  0.44044443964958196  0.7054682970046997  1.0000
  Cd  Cd3       1.0  0.21163566410541534  0.5546060800552368  0.2324071824550629  1.0000
  Hg  Hg1       1.0  0.7134429812431335  0.8430255651474  0.7262313961982727  1.0000
  Hg  Hg2       1.0  0.2116786539554596  0.5974700450897217  0.2398419976234437  1.0000
  Hg  Hg3       1.0  0.708713173866272  0.4483646452426911  0.5856021046638489  1.0000
  Hg  Hg4       1.0  0.7097539901733398  0.4468571245670319  0.2682888209819794  1.0000
  Si  Si1       1.0  0.2136569619178772  0.3152713179588318  0.32370564341545105  1.0000
  Zr  Zr1       1.0  0.7134724855422974  0.047708358615636826  0.9079663157463076  1.0000
