data_image0
_chemical_formula_structural       Cd2HHg2PbZnZr2
_chemical_formula_sum              "Cd2 H1 Hg2 Pb1 Zn1 Zr2"
_cell_length_a       5.1698129299168905
_cell_length_b       3.7154454060919595
_cell_length_c       5.699855804443359
_cell_angle_alpha    175.02886084606573
_cell_angle_beta     88.11121749864081
_cell_angle_gamma    95.4525075316697

_space_group_name_H-M_alt    "P 1"
_space_group_IT_number       1

loop_
  _space_group_symop_operation_xyz
  'x, y, z'

loop_
  _atom_site_type_symbol
  _atom_site_label
  _atom_site_symmetry_multiplicity
  _atom_site_fract_x
  _atom_site_fract_y
  _atom_site_fract_z
  _atom_site_occupancy
  Cd  Cd1       1.0  0.5498459935188293  0.9574953317642212  0.8010466694831848  1.0000
  Cd  Cd2       1.0  0.03693002834916115  0.7932203412055969  0.8177860975265503  1.0000
  H   H1        1.0  0.6245129704475403  0.8956899046897885  0.9694877862930297  1.0000
  Hg  Hg1       1.0  0.3633912205696106  0.22253622114658356  0.6762145161628723  1.0000
  Hg  Hg2       1.0  0.8792933225631714  0.8734492659568786  0.6967166066169739  1.0000
  Pb  Pb1       1.0  0.3795671761035919  0.6559477448463442  0.7901243567466737  1.0000
  Zn  Zn1       1.0  0.8575804829597473  0.5754256844520568  0.5161306262016296  1.0000
  Zr  Zr1       1.0  0.1325419694185257  0.48710024356842035  0.4946698546409607  1.0000
  Zr  Zr2       1.0  0.8471137285232544  0.260681539773941  0.2825511693954468  1.0000
