data_image0
_chemical_formula_structural       CdHg6Zr2
_chemical_formula_sum              "Cd1 Hg6 Zr2"
_cell_length_a       5.945897683546924
_cell_length_b       6.563438711076004
_cell_length_c       6.453550815582275
_cell_angle_alpha    126.16707812869927
_cell_angle_beta     88.33538544779958
_cell_angle_gamma    89.15922514887542

_space_group_name_H-M_alt    "P 1"
_space_group_IT_number       1

loop_
  _space_group_symop_operation_xyz
  'x, y, z'

loop_
  _atom_site_type_symbol
  _atom_site_label
  _atom_site_symmetry_multiplicity
  _atom_site_fract_x
  _atom_site_fract_y
  _atom_site_fract_z
  _atom_site_occupancy
  Cd  Cd1       1.0  0.9093114733695983  0.7865030765533447  0.435508668422699  1.0000
  Hg  Hg1       1.0  0.9123231172561644  0.5046309232711792  0.9172752499580383  1.0000
  Hg  Hg2       1.0  0.40647479891777033  0.838569700717926  0.10635598748922348  1.0000
  Hg  Hg3       1.0  0.9089494943618773  0.4663621485233307  0.3897857666015625  1.0000
  Hg  Hg4       1.0  0.4171931147575378  0.769891619682312  0.5442114472389221  1.0000
  Hg  Hg5       1.0  0.911669373512268  0.4304463565349579  0.7071758508682251  1.0000
  Hg  Hg6       1.0  0.9133172631263732  0.8660920858383179  0.5867242217063904  1.0000
  Zr  Zr1       1.0  0.4112673699855804  0.9255701303482056  0.7230241298675537  1.0000
  Zr  Zr2       1.0  0.4114262163639068  0.11660174280405045  0.7299630045890808  1.0000
