data_image0
_chemical_formula_structural       Cd2Hg2PbSbZr3
_chemical_formula_sum              "Cd2 Hg2 Pb1 Sb1 Zr3"
_cell_length_a       5.340988499711534
_cell_length_b       7.390470768727152
_cell_length_c       7.859961032867432
_cell_angle_alpha    125.40911417642592
_cell_angle_beta     89.6485533706583
_cell_angle_gamma    89.18749068997738

_space_group_name_H-M_alt    "P 1"
_space_group_IT_number       1

loop_
  _space_group_symop_operation_xyz
  'x, y, z'

loop_
  _atom_site_type_symbol
  _atom_site_label
  _atom_site_symmetry_multiplicity
  _atom_site_fract_x
  _atom_site_fract_y
  _atom_site_fract_z
  _atom_site_occupancy
  Cd  Cd1       1.0  0.21769443154335022  0.9287831783294678  0.39021098613739014  1.0000
  Cd  Cd2       1.0  0.2122320979833603  0.646931529045105  0.4262497127056121  1.0000
  Hg  Hg1       1.0  0.7116172313690186  0.6667931079864502  0.10815824568271631  1.0000
  Hg  Hg2       1.0  0.7117040157318115  0.5831879377365112  0.599251925945282  1.0000
  Pb  Pb1       1.0  0.21473753452301025  0.42463165521621704  0.2492472231388092  1.0000
  Sb  Sb1       1.0  0.7129420638084412  0.37078383564949036  0.42746201157569885  1.0000
  Zr  Zr1       1.0  0.21401864290237427  0.21491526067256927  0.7884636521339417  1.0000
  Zr  Zr2       1.0  0.7141679525375366  0.9605317115783691  0.9374017715454102  1.0000
  Zr  Zr3       1.0  0.7120457291603088  0.6469050049781799  0.31737646460533137  1.0000
