data_image0
_chemical_formula_structural       BBaMn3Nb4
_chemical_formula_sum              "B1 Ba1 Mn3 Nb4"
_cell_length_a       5.417359840634253
_cell_length_b       5.839052274210255
_cell_length_c       5.737456798553467
_cell_angle_alpha    65.23528506310114
_cell_angle_beta     59.766907340244295
_cell_angle_gamma    58.357342651983146

_space_group_name_H-M_alt    "P 1"
_space_group_IT_number       1

loop_
  _space_group_symop_operation_xyz
  'x, y, z'

loop_
  _atom_site_type_symbol
  _atom_site_label
  _atom_site_symmetry_multiplicity
  _atom_site_fract_x
  _atom_site_fract_y
  _atom_site_fract_z
  _atom_site_occupancy
  B   B1        1.0  0.5538058876991272  0.6270945072174072  0.03204263374209404  1.0000
  Ba  Ba1       1.0  0.6102539896965027  0.6505099534988403  0.32191348075866705  1.0000
  Mn  Mn1       1.0  0.26516368985176086  0.6454492211341858  0.6467803716659546  1.0000
  Mn  Mn2       1.0  0.6503244042396545  0.9376645088195801  0.19633837044239044  1.0000
  Mn  Mn3       1.0  0.2264595627784729  0.18065276741981506  0.8660313487052917  1.0000
  Nb  Nb1       1.0  0.9624491333961487  0.7931873202323914  0.11002389341592789  1.0000
  Nb  Nb2       1.0  0.05141357704997063  0.9503703713417053  0.31788280606269836  1.0000
  Nb  Nb3       1.0  0.2835673689842224  0.37166908383369446  0.730850875377655  1.0000
  Nb  Nb4       1.0  0.5436089634895325  0.19869738817214966  0.9960823059082031  1.0000
