data_image0
_chemical_formula_structural       Ba3GaMn3Nb2
_chemical_formula_sum              "Ba3 Ga1 Mn3 Nb2"
_cell_length_a       5.106648085242185
_cell_length_b       5.516225803680961
_cell_length_c       5.762385368347168
_cell_angle_alpha    61.03608640503587
_cell_angle_beta     59.776604384695496
_cell_angle_gamma    59.820267928911726

_space_group_name_H-M_alt    "P 1"
_space_group_IT_number       1

loop_
  _space_group_symop_operation_xyz
  'x, y, z'

loop_
  _atom_site_type_symbol
  _atom_site_label
  _atom_site_symmetry_multiplicity
  _atom_site_fract_x
  _atom_site_fract_y
  _atom_site_fract_z
  _atom_site_occupancy
  Ba  Ba1       1.0  0.682066023349762  0.9238216280937195  0.5204585194587708  1.0000
  Ba  Ba2       1.0  0.2048606425523758  0.9186655282974243  0.5392855405807495  1.0000
  Ba  Ba3       1.0  0.29953205585479736  0.37618720531463623  0.9820019006729126  1.0000
  Ga  Ga1       1.0  0.7514612674713135  0.37545228004455566  0.8593653440475464  1.0000
  Mn  Mn1       1.0  0.7189351320266724  0.4154015779495239  0.46943435072898865  1.0000
  Mn  Mn2       1.0  0.26597335934638977  0.925412118434906  0.4233870506286621  1.0000
  Mn  Mn3       1.0  0.9790090322494507  0.6466044187545776  0.9773695468902588  1.0000
  Nb  Nb1       1.0  0.011840425431728363  0.9077162146568298  0.8158129453659058  1.0000
  Nb  Nb2       1.0  0.6563330292701721  0.1895507574081421  0.17281614243984222  1.0000
