data_image0
_chemical_formula_structural       Ba5CoLaMn2
_chemical_formula_sum              "Ba5 Co1 La1 Mn2"
_cell_length_a       5.362711435896298
_cell_length_b       6.089918216233789
_cell_length_c       5.003240585327148
_cell_angle_alpha    63.67922655937455
_cell_angle_beta     60.26974508640187
_cell_angle_gamma    63.261842618458

_space_group_name_H-M_alt    "P 1"
_space_group_IT_number       1

loop_
  _space_group_symop_operation_xyz
  'x, y, z'

loop_
  _atom_site_type_symbol
  _atom_site_label
  _atom_site_symmetry_multiplicity
  _atom_site_fract_x
  _atom_site_fract_y
  _atom_site_fract_z
  _atom_site_occupancy
  Ba  Ba1       1.0  0.26434993743896484  0.06736937165260315  0.2636527419090271  1.0000
  Ba  Ba2       1.0  0.27868470549583435  0.5567252039909363  0.7583193778991699  1.0000
  Ba  Ba3       1.0  0.7610476613044739  0.00215006317012012  0.48226892948150646  1.0000
  Ba  Ba4       1.0  0.28352776169776917  0.6350321173667908  0.2603500783443451  1.0000
  Ba  Ba5       1.0  0.7739599943161011  0.9189503192901611  0.2477445900440216  1.0000
  Co  Co1       1.0  0.37890198826789856  0.4128880500793457  0.9699079990386963  1.0000
  La  La1       1.0  0.27660149335861206  0.018848780542612076  0.7548191547393799  1.0000
  Mn  Mn1       1.0  0.7705047130584717  0.5594308376312256  0.7588043212890625  1.0000
  Mn  Mn2       1.0  0.8160696625709534  0.2622174024581909  0.4891839623451233  1.0000
