data_image0
_chemical_formula_structural       Ba4FeMn3Zn
_chemical_formula_sum              "Ba4 Fe1 Mn3 Zn1"
_cell_length_a       4.958779112394239
_cell_length_b       5.913701855626449
_cell_length_c       7.030420303344727
_cell_angle_alpha    87.63519338697668
_cell_angle_beta     90.68053068083086
_cell_angle_gamma    114.05017510073453

_space_group_name_H-M_alt    "P 1"
_space_group_IT_number       1

loop_
  _space_group_symop_operation_xyz
  'x, y, z'

loop_
  _atom_site_type_symbol
  _atom_site_label
  _atom_site_symmetry_multiplicity
  _atom_site_fract_x
  _atom_site_fract_y
  _atom_site_fract_z
  _atom_site_occupancy
  Ba  Ba1       1.0  0.8241881728172302  0.2984113097190857  0.680572509765625  1.0000
  Ba  Ba2       1.0  0.7008455395698547  0.812115490436554  0.1700678914785385  1.0000
  Ba  Ba3       1.0  0.23268559575080872  0.3395983576774597  0.44958457350730896  1.0000
  Ba  Ba4       1.0  0.22776906192302704  0.8015133738517761  0.3557110130786896  1.0000
  Fe  Fe1       1.0  0.5309587717056274  0.5554132461547852  0.029195193201303482  1.0000
  Mn  Mn1       1.0  0.7189236879348755  0.5752377510070801  0.551476240158081  1.0000
  Mn  Mn2       1.0  0.5273680090904236  0.09719893336296082  0.042851224541664124  1.0000
  Mn  Mn3       1.0  0.24293453991413116  0.8600172996520996  0.5112521052360535  1.0000
  Zn  Zn1       1.0  0.031038856133818626  0.14441236853599548  0.684615433216095  1.0000
