data_image0
_chemical_formula_structural       Ba2Mn3Nb3Zn
_chemical_formula_sum              "Ba2 Mn3 Nb3 Zn1"
_cell_length_a       5.620226012606886
_cell_length_b       5.80891173138032
_cell_length_c       6.064335823059082
_cell_angle_alpha    102.75190181194522
_cell_angle_beta     103.8916800041978
_cell_angle_gamma    111.73320306967939

_space_group_name_H-M_alt    "P 1"
_space_group_IT_number       1

loop_
  _space_group_symop_operation_xyz
  'x, y, z'

loop_
  _atom_site_type_symbol
  _atom_site_label
  _atom_site_symmetry_multiplicity
  _atom_site_fract_x
  _atom_site_fract_y
  _atom_site_fract_z
  _atom_site_occupancy
  Ba  Ba1       1.0  0.18617379665374756  0.6890640258789062  0.622085690498352  1.0000
  Ba  Ba2       1.0  0.6806563138961792  0.941100537776947  0.4962342083454132  1.0000
  Mn  Mn1       1.0  0.3922923803329468  0.3757106065750122  0.49279746413230896  1.0000
  Mn  Mn2       1.0  0.7317066788673401  0.8803778290748596  0.5021722912788391  1.0000
  Mn  Mn3       1.0  0.6787383556365967  0.40513989329338074  0.862281322479248  1.0000
  Nb  Nb1       1.0  0.8713493943214417  0.16298794746398926  0.7795621752738953  1.0000
  Nb  Nb2       1.0  0.18180063366889954  0.6387966871261597  0.6948986649513245  1.0000
  Nb  Nb3       1.0  0.34792566299438477  0.13810846209526062  0.8722511529922485  1.0000
  Zn  Zn1       1.0  0.9465698599815369  0.8557695150375366  0.34646081924438477  1.0000
