data_image0
_chemical_formula_structural       BBa5OSb3
_chemical_formula_sum              "B1 Ba5 O1 Sb3"
_cell_length_a       5.467429427335691
_cell_length_b       5.967350494075934
_cell_length_c       9.331300735473633
_cell_angle_alpha    89.92878752461505
_cell_angle_beta     89.78926060122427
_cell_angle_gamma    119.55736946157833

_space_group_name_H-M_alt    "P 1"
_space_group_IT_number       1

loop_
  _space_group_symop_operation_xyz
  'x, y, z'

loop_
  _atom_site_type_symbol
  _atom_site_label
  _atom_site_symmetry_multiplicity
  _atom_site_fract_x
  _atom_site_fract_y
  _atom_site_fract_z
  _atom_site_occupancy
  B   B1        1.0  0.3662404716014862  0.48493078351020813  0.12974241375923157  1.0000
  Ba  Ba1       1.0  0.6412808299064636  0.8018628358840942  0.8516953587532043  1.0000
  Ba  Ba2       1.0  0.012833474203944206  0.7273154258728027  0.8561282753944397  1.0000
  Ba  Ba3       1.0  0.593852162361145  0.09786418825387955  0.5577945709228516  1.0000
  Ba  Ba4       1.0  0.6564459204673767  0.03459639847278595  0.8762200474739075  1.0000
  Ba  Ba5       1.0  0.011828839778900146  0.29531991481781006  0.13758103549480438  1.0000
  O   O1        1.0  0.15362288057804108  0.7992139458656311  0.6368432641029358  1.0000
  Sb  Sb1       1.0  0.37906044721603394  0.7295562624931335  0.15849357843399048  1.0000
  Sb  Sb2       1.0  0.5490748286247253  0.9167019724845886  0.879353404045105  1.0000
  Sb  Sb3       1.0  0.3813977837562561  0.3062787652015686  0.3851693272590637  1.0000
