data_image0
_chemical_formula_structural       BBa2LaO2PSb3
_chemical_formula_sum              "B1 Ba2 La1 O2 P1 Sb3"
_cell_length_a       5.641349660446985
_cell_length_b       6.883627612095262
_cell_length_c       8.32394790649414
_cell_angle_alpha    89.04228669383265
_cell_angle_beta     89.6232815125395
_cell_angle_gamma    113.95643436472322

_space_group_name_H-M_alt    "P 1"
_space_group_IT_number       1

loop_
  _space_group_symop_operation_xyz
  'x, y, z'

loop_
  _atom_site_type_symbol
  _atom_site_label
  _atom_site_symmetry_multiplicity
  _atom_site_fract_x
  _atom_site_fract_y
  _atom_site_fract_z
  _atom_site_occupancy
  B   B1        1.0  0.5574654340744019  0.27358299493789673  0.2776343524456024  1.0000
  Ba  Ba1       1.0  0.534461259841919  0.6565387845039368  0.6809046268463135  1.0000
  Ba  Ba2       1.0  0.7721037864685059  0.5093945264816284  0.07276810705661774  1.0000
  La  La1       1.0  0.08656575530767441  0.08117276430130005  0.935847818851471  1.0000
  O   O1        1.0  0.013423969969153404  0.9327782392501831  0.7027586698532104  1.0000
  O   O2        1.0  0.36620771884918213  0.7044841051101685  0.32718735933303833  1.0000
  P   P1        1.0  0.06527754664421082  0.4701479375362396  0.5666154623031616  1.0000
  Sb  Sb1       1.0  0.2175755649805069  0.246812641620636  0.3546576499938965  1.0000
  Sb  Sb2       1.0  0.40348950028419495  0.834126353263855  0.030538111925125122  1.0000
  Sb  Sb3       1.0  0.9064236283302307  0.32001081109046936  0.6121627688407898  1.0000
