data_image0
_chemical_formula_structural       BBa2LaO3PSb2
_chemical_formula_sum              "B1 Ba2 La1 O3 P1 Sb2"
_cell_length_a       4.936518509162
_cell_length_b       6.636583953995613
_cell_length_c       6.878939628601074
_cell_angle_alpha    105.75147285237007
_cell_angle_beta     91.30947781294464
_cell_angle_gamma    91.56567665548585

_space_group_name_H-M_alt    "P 1"
_space_group_IT_number       1

loop_
  _space_group_symop_operation_xyz
  'x, y, z'

loop_
  _atom_site_type_symbol
  _atom_site_label
  _atom_site_symmetry_multiplicity
  _atom_site_fract_x
  _atom_site_fract_y
  _atom_site_fract_z
  _atom_site_occupancy
  B   B1        1.0  0.53777676820755  0.2018556445837021  0.21937397122383118  1.0000
  Ba  Ba1       1.0  0.49641960859298706  0.846585214138031  0.6430398225784302  1.0000
  Ba  Ba2       1.0  0.0032918453216552734  0.652957558631897  0.8170066475868225  1.0000
  La  La1       1.0  0.07174339890480042  0.4328415989875794  0.3753170669078827  1.0000
  O   O1        1.0  0.07894724607467651  0.8070397973060608  0.5352863073348999  1.0000
  O   O2        1.0  0.6167393326759338  0.41831332445144653  0.5085306763648987  1.0000
  O   O3        1.0  0.37581655383110046  0.2620486915111542  0.3106292188167572  1.0000
  P   P1        1.0  0.7880111932754517  0.16679683327674866  0.12190450727939606  1.0000
  Sb  Sb1       1.0  0.48287108540534973  0.13430210947990417  0.9489369988441467  1.0000
  Sb  Sb2       1.0  0.06509613990783691  0.9225251078605653  0.8909374475479126  1.0000
