data_image0
_chemical_formula_structural       BaCaFO4Sb3
_chemical_formula_sum              "Ba1 Ca1 F1 O4 Sb3"
_cell_length_a       5.423101090194631
_cell_length_b       6.489512305897883
_cell_length_c       6.6992268562316895
_cell_angle_alpha    106.25220375238192
_cell_angle_beta     106.74149408352714
_cell_angle_gamma    109.77059503516472

_space_group_name_H-M_alt    "P 1"
_space_group_IT_number       1

loop_
  _space_group_symop_operation_xyz
  'x, y, z'

loop_
  _atom_site_type_symbol
  _atom_site_label
  _atom_site_symmetry_multiplicity
  _atom_site_fract_x
  _atom_site_fract_y
  _atom_site_fract_z
  _atom_site_occupancy
  Ba  Ba1       1.0  0.25128626823425293  0.28964561223983765  0.6593058705329895  1.0000
  Ca  Ca1       1.0  0.8105010986328125  0.12308394163846971  0.088311105966568  1.0000
  F   F1        1.0  0.08706235885620127  0.8362163305282594  0.5822694301605225  1.0000
  O   O1        1.0  0.074235461652279  0.8417584896087648  0.771064043045044  1.0000
  O   O2        1.0  0.6232977509498597  0.8123720288276673  0.1963876485824585  1.0000
  O   O3        1.0  0.4242132306098938  0.09966406226158143  0.18762856721878052  1.0000
  O   O4        1.0  0.7498944401741028  0.32863202691078186  0.38112011551856995  1.0000
  Sb  Sb1       1.0  0.08111363649368286  0.3398054540157318  0.16808348894119263  1.0000
  Sb  Sb2       1.0  0.7990972995758057  0.4609153270721436  0.4981280267238617  1.0000
  Sb  Sb3       1.0  0.58551025390625  0.31965968012809753  0.7159497737884521  1.0000
