data_image0
_chemical_formula_structural       Ba5O4P
_chemical_formula_sum              "Ba5 O4 P1"
_cell_length_a       4.696373325488537
_cell_length_b       6.792737082221639
_cell_length_c       8.216647148132324
_cell_angle_alpha    98.9688353842625
_cell_angle_beta     103.79904842667472
_cell_angle_gamma    90.0103513727272

_space_group_name_H-M_alt    "P 1"
_space_group_IT_number       1

loop_
  _space_group_symop_operation_xyz
  'x, y, z'

loop_
  _atom_site_type_symbol
  _atom_site_label
  _atom_site_symmetry_multiplicity
  _atom_site_fract_x
  _atom_site_fract_y
  _atom_site_fract_z
  _atom_site_occupancy
  Ba  Ba1       1.0  0.08644472062587738  0.5120371580123901  0.8014244437217712  1.0000
  Ba  Ba2       1.0  0.7726181745529175  0.25963354110717773  0.3009400963783264  1.0000
  Ba  Ba3       1.0  0.17080189287662506  0.7929003238677979  0.0549621507525444  1.0000
  Ba  Ba4       1.0  0.6310101747512817  0.39227747917175293  0.14235445857048035  1.0000
  Ba  Ba5       1.0  0.651566207408905  0.8186425566673279  0.8022053837776184  1.0000
  O   O1        1.0  0.28095921874046326  0.30875056982040405  0.6843851804733276  1.0000
  O   O2        1.0  0.13891516625881195  0.08056239783763885  0.14005129039287567  1.0000
  O   O3        1.0  0.7976359128952026  0.08161578327417374  0.1011684313416481  1.0000
  O   O4        1.0  0.6939316391944885  0.3214072287082672  0.5403842329978943  1.0000
  P   P1        1.0  0.5290029644966125  0.8043054342269897  0.7225444912910461  1.0000
