data_image0
_chemical_formula_structural       Ba3O4Sb3
_chemical_formula_sum              "Ba3 O4 Sb3"
_cell_length_a       5.5636457745089745
_cell_length_b       7.16874773222086
_cell_length_c       7.639098644256592
_cell_angle_alpha    120.6803114057339
_cell_angle_beta     89.12554988302092
_cell_angle_gamma    89.74322998274086

_space_group_name_H-M_alt    "P 1"
_space_group_IT_number       1

loop_
  _space_group_symop_operation_xyz
  'x, y, z'

loop_
  _atom_site_type_symbol
  _atom_site_label
  _atom_site_symmetry_multiplicity
  _atom_site_fract_x
  _atom_site_fract_y
  _atom_site_fract_z
  _atom_site_occupancy
  Ba  Ba1       1.0  0.5839325189590454  0.6616482138633728  0.40423458814620966  1.0000
  Ba  Ba2       1.0  0.08183649927377701  0.1592964380979538  0.8956562280654906  1.0000
  Ba  Ba3       1.0  0.5816347599029541  0.37488552927970886  0.5904250144958496  1.0000
  O   O1        1.0  0.07569635659456253  0.09225884824991226  0.8617838621139525  1.0000
  O   O2        1.0  0.08164293318986893  0.6631511449813843  0.1359641700983047  1.0000
  O   O3        1.0  0.5973551869392395  0.8265444040298462  0.2048659920692443  1.0000
  O   O4        1.0  0.5837951898574829  0.13565443456172943  0.7548522353172302  1.0000
  Sb  Sb1       1.0  0.34659069776535034  0.17193907499313354  0.1874801069498062  1.0000
  Sb  Sb2       1.0  0.08278786391019821  0.5947391986846924  0.34269887208938593  1.0000
  Sb  Sb3       1.0  0.8488280177116395  0.9687817096710205  0.20631021261215207  1.0000
