data_image0
_chemical_formula_structural       Ag3Al3K2
_chemical_formula_sum              "Ag3 Al3 K2"
_cell_length_a       4.583715903721886
_cell_length_b       4.760534741124568
_cell_length_c       9.635049819946289
_cell_angle_alpha    103.95449407275471
_cell_angle_beta     103.92431574467308
_cell_angle_gamma    90.15340279079841

_space_group_name_H-M_alt    "P 1"
_space_group_IT_number       1

loop_
  _space_group_symop_operation_xyz
  'x, y, z'

loop_
  _atom_site_type_symbol
  _atom_site_label
  _atom_site_symmetry_multiplicity
  _atom_site_fract_x
  _atom_site_fract_y
  _atom_site_fract_z
  _atom_site_occupancy
  Ag  Ag1       1.0  0.6129615306854248  0.06824153661727905  0.38828259706497187  1.0000
  Ag  Ag2       1.0  0.01982797123491764  0.9715628623962402  0.1910267174243927  1.0000
  Ag  Ag3       1.0  0.24595363438129425  0.1903851330280304  0.6271074414253235  1.0000
  Al  Al1       1.0  0.9351220726966858  0.3926800489425659  0.02945214882493019  1.0000
  Al  Al2       1.0  0.7909461855888367  0.2378530651330948  0.7325168251991272  1.0000
  Al  Al3       1.0  0.5189051032066345  0.4676192104816437  0.18598310649394986  1.0000
  K   K1        1.0  0.3771269917488098  0.8221367597579956  0.892935574054718  1.0000
  K   K2        1.0  0.14956609904766083  0.6019347310066223  0.4465392827987671  1.0000
