data_image0
_chemical_formula_structural       Ag2Al3K3
_chemical_formula_sum              "Ag2 Al3 K3"
_cell_length_a       4.453972216593361
_cell_length_b       7.221221421722606
_cell_length_c       7.22680139541626
_cell_angle_alpha    104.18351957222278
_cell_angle_beta     90.11477747140836
_cell_angle_gamma    90.1437819089705

_space_group_name_H-M_alt    "P 1"
_space_group_IT_number       1

loop_
  _space_group_symop_operation_xyz
  'x, y, z'

loop_
  _atom_site_type_symbol
  _atom_site_label
  _atom_site_symmetry_multiplicity
  _atom_site_fract_x
  _atom_site_fract_y
  _atom_site_fract_z
  _atom_site_occupancy
  Ag  Ag1       1.0  0.025118820369243622  0.4217299520969391  0.34115609526634216  1.0000
  Ag  Ag2       1.0  0.5268650054931641  0.6171082854270935  0.16870073974132535  1.0000
  Al  Al1       1.0  0.5297028422355652  0.9381222724914551  0.5505580902099609  1.0000
  Al  Al2       1.0  0.025210939347743988  0.7972772121429443  0.36800873279571533  1.0000
  Al  Al3       1.0  0.5295630097389221  0.5696945786476135  0.5190697312355042  1.0000
  K   K1        1.0  0.02817671187222004  0.7680131793022156  0.8469933271408081  1.0000
  K   K2        1.0  0.026675255969166756  0.28486689925193787  0.7838651537895203  1.0000
  K   K3        1.0  0.5255972743034363  0.10545800626277924  0.1607794314622879  1.0000
