data_image0
_chemical_formula_structural       AgBiBrErGeHfKLi
_chemical_formula_sum              "Ag1 Bi1 Br1 Er1 Ge1 Hf1 K1 Li1"
_cell_length_a       5.8985865009321214
_cell_length_b       5.893703766694649
_cell_length_c       6.203356742858887
_cell_angle_alpha    89.88965709760964
_cell_angle_beta     89.971995517179
_cell_angle_gamma    119.84136149420058

_space_group_name_H-M_alt    "P 1"
_space_group_IT_number       1

loop_
  _space_group_symop_operation_xyz
  'x, y, z'

loop_
  _atom_site_type_symbol
  _atom_site_label
  _atom_site_symmetry_multiplicity
  _atom_site_fract_x
  _atom_site_fract_y
  _atom_site_fract_z
  _atom_site_occupancy
  Ag  Ag1       1.0  0.08227859437465668  0.3199440538883209  0.16946868598461148  1.0000
  Bi  Bi1       1.0  0.43412497639656067  0.5159848928451538  0.7996262311935425  1.0000
  Br  Br1       1.0  0.6124899983406067  0.3360680043697357  0.3112798035144806  1.0000
  Er  Er1       1.0  0.5728110671043396  0.8377728462219238  0.3968616724014282  1.0000
  Ge  Ge1       1.0  0.9453390836715698  0.9994691610336304  0.7868528366088866  1.0000
  Hf  Hf1       1.0  0.5534536242485046  0.07936087250709534  0.9081084728240967  1.0000
  K   K1        1.0  0.08201711624860764  0.839772641658783  0.16939505934715274  1.0000
  Li  Li1       1.0  0.9617601037025452  0.5430737733840942  0.7980913519859314  1.0000
