data_image0
_chemical_formula_structural       Fe2HMnPSiYZn2
_chemical_formula_sum              "Fe2 H1 Mn1 P1 Si1 Y1 Zn2"
_cell_length_a       5.439219423045164
_cell_length_b       5.691836586580824
_cell_length_c       5.630509376525879
_cell_angle_alpha    106.9938731273505
_cell_angle_beta     104.50509806411344
_cell_angle_gamma    110.40409793573762

_space_group_name_H-M_alt    "P 1"
_space_group_IT_number       1

loop_
  _space_group_symop_operation_xyz
  'x, y, z'

loop_
  _atom_site_type_symbol
  _atom_site_label
  _atom_site_symmetry_multiplicity
  _atom_site_fract_x
  _atom_site_fract_y
  _atom_site_fract_z
  _atom_site_occupancy
  Fe  Fe1       1.0  0.6558796763420105  0.34147024154663086  0.3648371696472168  1.0000
  Fe  Fe2       1.0  0.9681611657142638  0.44139453768730164  0.25478553771972656  1.0000
  H   H1        1.0  0.3885631561279297  0.909587025642395  0.41293504834175104  1.0000
  Mn  Mn1       1.0  0.42262089252471924  0.7035990357398987  0.5317280888557434  1.0000
  P   P1        1.0  0.4858115911483764  0.11916171759366989  0.8490982651710509  1.0000
  Si  Si1       1.0  0.8380576372146606  0.8266120553016663  0.0446283258497715  1.0000
  Y   Y1        1.0  0.09282887727022171  0.9037477374076843  0.6196406483650208  1.0000
  Zn  Zn1       1.0  0.8311358690261841  0.5903642773628235  0.6862802505493164  1.0000
  Zn  Zn2       1.0  0.8127241134643555  0.10277582705020905  0.14897973835468292  1.0000
