data_image0
_chemical_formula_structural       O5SbScTb3
_chemical_formula_sum              "O5 Sb1 Sc1 Tb3"
_cell_length_a       4.500152666839185
_cell_length_b       6.838645850813911
_cell_length_c       7.285146713256836
_cell_angle_alpha    113.20135944498213
_cell_angle_beta     88.78205495843861
_cell_angle_gamma    106.27282251269533

_space_group_name_H-M_alt    "P 1"
_space_group_IT_number       1

loop_
  _space_group_symop_operation_xyz
  'x, y, z'

loop_
  _atom_site_type_symbol
  _atom_site_label
  _atom_site_symmetry_multiplicity
  _atom_site_fract_x
  _atom_site_fract_y
  _atom_site_fract_z
  _atom_site_occupancy
  O   O1        1.0  0.029090873897075653  0.015901848673820496  0.4227568209171295  1.0000
  O   O2        1.0  0.970463216304779  0.5135048627853394  0.6722120046615601  1.0000
  O   O3        1.0  0.3233446478843689  0.7542237043380737  0.5938565135002136  1.0000
  O   O4        1.0  0.33393698930740356  0.8040766716003418  0.5099344253540039  1.0000
  O   O5        1.0  0.5133637189865112  0.5135891437530518  0.49569180607795715  1.0000
  Sb  Sb1       1.0  0.30673015117645264  0.042891811579465866  0.6773439049720764  1.0000
  Sc  Sc1       1.0  0.5313386917114258  0.29472723603248596  0.006311546545475737  1.0000
  Tb  Tb1       1.0  0.8414749503135681  0.6546229720115662  0.3249065577983856  1.0000
  Tb  Tb2       1.0  0.07502496242523193  0.5373396277427673  0.12012753635644913  1.0000
  Tb  Tb3       1.0  0.05694328621029854  0.011889278888702393  0.9092366099357605  1.0000
