data_image0
_chemical_formula_structural       CrO4SbTb4
_chemical_formula_sum              "Cr1 O4 Sb1 Tb4"
_cell_length_a       6.090876736270579
_cell_length_b       6.451475932646505
_cell_length_c       6.617344379425049
_cell_angle_alpha    108.1469209327073
_cell_angle_beta     106.81633661151376
_cell_angle_gamma    111.09389257538852

_space_group_name_H-M_alt    "P 1"
_space_group_IT_number       1

loop_
  _space_group_symop_operation_xyz
  'x, y, z'

loop_
  _atom_site_type_symbol
  _atom_site_label
  _atom_site_symmetry_multiplicity
  _atom_site_fract_x
  _atom_site_fract_y
  _atom_site_fract_z
  _atom_site_occupancy
  Cr  Cr1       1.0  0.9713654518127441  0.9805638790130614  0.996635377407074  1.0000
  O   O1        1.0  0.04879123717546463  0.07372621446847916  0.20149466395378113  1.0000
  O   O2        1.0  0.6643202304840088  0.16411736607551575  0.5007463097572327  1.0000
  O   O3        1.0  0.13342377543449396  0.48895025253295893  0.3281622529029846  1.0000
  O   O4        1.0  0.6618936061859131  0.8074450492858887  0.20671506226062775  1.0000
  Sb  Sb1       1.0  0.4550630450248718  0.3099733591079712  0.018898122012615204  1.0000
  Tb  Tb1       1.0  0.39686140418052673  0.03842131793498993  0.20012551546096802  1.0000
  Tb  Tb2       1.0  0.30531835556030273  0.5577163696289062  0.3143254518508911  1.0000
  Tb  Tb3       1.0  0.5032863020896912  0.3078519105911255  0.7039722204208374  1.0000
  Tb  Tb4       1.0  0.8937808275222778  0.881861388683319  0.4059898853302002  1.0000
