data_image0
_chemical_formula_structural       Cr3O4Tb3
_chemical_formula_sum              "Cr3 O4 Tb3"
_cell_length_a       5.352728475663023
_cell_length_b       6.012807161674259
_cell_length_c       6.241090297698975
_cell_angle_alpha    114.5788241651926
_cell_angle_beta     103.34410357599958
_cell_angle_gamma    104.86726182117452

_space_group_name_H-M_alt    "P 1"
_space_group_IT_number       1

loop_
  _space_group_symop_operation_xyz
  'x, y, z'

loop_
  _atom_site_type_symbol
  _atom_site_label
  _atom_site_symmetry_multiplicity
  _atom_site_fract_x
  _atom_site_fract_y
  _atom_site_fract_z
  _atom_site_occupancy
  Cr  Cr1       1.0  0.02336384356021881  0.3236747086048126  0.7946842908859253  1.0000
  Cr  Cr2       1.0  0.9567096829414368  0.31042933464050293  0.04463610425591469  1.0000
  Cr  Cr3       1.0  0.6139271855354309  0.6198270320892334  0.8454579710960388  1.0000
  O   O1        1.0  0.5857662558555603  0.6369546055793762  0.37415802478790283  1.0000
  O   O2        1.0  0.4637422263622284  0.041693296283483505  0.03628333657979965  1.0000
  O   O3        1.0  0.13779354095458984  0.9566758871078491  0.8419275283813477  1.0000
  O   O4        1.0  0.46378403902053833  0.4046037793159485  0.8576772212982178  1.0000
  Tb  Tb1       1.0  0.6509519815444946  0.1260148584842682  0.23679840564727783  1.0000
  Tb  Tb2       1.0  0.6573644280433655  0.7488060593605042  0.5049721598625183  1.0000
  Tb  Tb3       1.0  0.35128429532051086  0.07666975259780884  0.11764375120401382  1.0000
