data_image0
_chemical_formula_structural       O6Sc2Tb2
_chemical_formula_sum              "O6 Sc2 Tb2"
_cell_length_a       4.932472153993357
_cell_length_b       6.6486664484654066
_cell_length_c       6.802757740020752
_cell_angle_alpha    116.35676379922886
_cell_angle_beta     101.82573298142736
_cell_angle_gamma    89.01169332085897

_space_group_name_H-M_alt    "P 1"
_space_group_IT_number       1

loop_
  _space_group_symop_operation_xyz
  'x, y, z'

loop_
  _atom_site_type_symbol
  _atom_site_label
  _atom_site_symmetry_multiplicity
  _atom_site_fract_x
  _atom_site_fract_y
  _atom_site_fract_z
  _atom_site_occupancy
  O   O1        1.0  0.38094303011894226  0.24439121782779694  0.1737927794456482  1.0000
  O   O2        1.0  0.4575539827346802  0.9192585349082947  0.6406909227371216  1.0000
  O   O3        1.0  0.5475345849990845  0.3483131229877472  0.3030882477760315  1.0000
  O   O4        1.0  0.038727741688489914  0.14609095454216003  0.8080855011940002  1.0000
  O   O5        1.0  0.923814594745636  0.8184016346931458  0.3190504014492035  1.0000
  O   O6        1.0  0.02172164060175419  0.8910853266716003  0.22396732866764069  1.0000
  Sc  Sc1       1.0  0.6771655082702637  0.7984684109687805  0.5072405934333801  1.0000
  Sc  Sc2       1.0  0.7310667634010315  0.06044701114296913  0.8175163269042969  1.0000
  Tb  Tb1       1.0  0.21697786450386047  0.39863061904907227  0.48228171467781067  1.0000
  Tb  Tb2       1.0  0.21395529806613922  0.8323001265525818  0.25898584723472595  1.0000
