data_image0
_chemical_formula_structural       Cr3O4Tb3
_chemical_formula_sum              "Cr3 O4 Tb3"
_cell_length_a       4.516169275650751
_cell_length_b       6.206002843749633
_cell_length_c       6.588998794555664
_cell_angle_alpha    120.73554089092394
_cell_angle_beta     104.92207895511888
_cell_angle_gamma    87.72595915035028

_space_group_name_H-M_alt    "P 1"
_space_group_IT_number       1

loop_
  _space_group_symop_operation_xyz
  'x, y, z'

loop_
  _atom_site_type_symbol
  _atom_site_label
  _atom_site_symmetry_multiplicity
  _atom_site_fract_x
  _atom_site_fract_y
  _atom_site_fract_z
  _atom_site_occupancy
  Cr  Cr1       1.0  0.5567785501480103  0.0967106893658638  0.7410682439804077  1.0000
  Cr  Cr2       1.0  0.1268930286169052  0.11044030636548995  0.486758828163147  1.0000
  Cr  Cr3       1.0  0.0877099335193634  0.5543388724327087  0.2337268590927124  1.0000
  O   O1        1.0  0.1296529322862625  0.1809263974428177  0.46583372354507446  1.0000
  O   O2        1.0  0.8396499752998352  0.6418197751045227  0.05389616638422012  1.0000
  O   O3        1.0  0.3373875021934509  0.44710698723793024  0.9592075347900391  1.0000
  O   O4        1.0  0.3987980782985687  0.261729896068573  0.23581761121749878  1.0000
  Tb  Tb1       1.0  0.5695216655731201  0.09601335972547531  0.9747119545936584  1.0000
  Tb  Tb2       1.0  0.6110088229179382  0.6043546795845032  0.561360239982605  1.0000
  Tb  Tb3       1.0  0.831954300403595  0.7275559902191162  0.24118760228157043  1.0000
