data_image0
_chemical_formula_structural       O4Tb5Te
_chemical_formula_sum              "O4 Tb5 Te1"
_cell_length_a       6.0870959968183085
_cell_length_b       6.758081093011646
_cell_length_c       6.740019798278809
_cell_angle_alpha    108.36238201620685
_cell_angle_beta     108.07025729359327
_cell_angle_gamma    113.67851588694673

_space_group_name_H-M_alt    "P 1"
_space_group_IT_number       1

loop_
  _space_group_symop_operation_xyz
  'x, y, z'

loop_
  _atom_site_type_symbol
  _atom_site_label
  _atom_site_symmetry_multiplicity
  _atom_site_fract_x
  _atom_site_fract_y
  _atom_site_fract_z
  _atom_site_occupancy
  O   O1        1.0  0.13165684044361123  0.9917032718658448  0.7954009771347046  1.0000
  O   O2        1.0  0.9111871123313904  0.12388139963150026  0.4939248859882355  1.0000
  O   O3        1.0  0.6323279142379761  0.7460507750511169  0.8507007360458374  1.0000
  O   O4        1.0  0.3852308690547943  0.60872882604599  0.016779223456978798  1.0000
  Tb  Tb1       1.0  0.4949801564216614  0.15175509452819824  0.2814020812511444  1.0000
  Tb  Tb2       1.0  0.4719702899456025  0.869466781616211  0.6891323924064636  1.0000
  Tb  Tb3       1.0  0.14576473832130432  0.3734482228755951  0.7731868028640747  1.0000
  Tb  Tb4       1.0  0.793513298034668  0.40255898237228394  0.5680850744247437  1.0000
  Tb  Tb5       1.0  0.7981034517288208  0.8862711191177369  0.07554960250854499  1.0000
  Te  Te1       1.0  0.8326839804649353  0.4674061834812165  0.43213245272636414  1.0000
