data_image0
_chemical_formula_structural       AlBr4RhRu
_chemical_formula_sum              "Al1 Br4 Rh1 Ru1"
_cell_length_a       7.2265357192799184
_cell_length_b       7.0781234214929984
_cell_length_c       8.837352752685547
_cell_angle_alpha    66.18240624059474
_cell_angle_beta     64.188115311714
_cell_angle_gamma    60.30104443183384

_space_group_name_H-M_alt    "P 1"
_space_group_IT_number       1

loop_
  _space_group_symop_operation_xyz
  'x, y, z'

loop_
  _atom_site_type_symbol
  _atom_site_label
  _atom_site_symmetry_multiplicity
  _atom_site_fract_x
  _atom_site_fract_y
  _atom_site_fract_z
  _atom_site_occupancy
  Al  Al1       1.0  0.6828188896179199  0.09723573178052902  0.4048158526420593  1.0000
  Br  Br1       1.0  0.6606147289276123  0.33603334426879883  0.26434293389320374  1.0000
  Br  Br2       1.0  0.9371434450149536  0.6332751512527466  0.8815279006958008  1.0000
  Br  Br3       1.0  0.842731237411499  0.588188111782074  0.2762376666069031  1.0000
  Br  Br4       1.0  0.10054770112037659  0.01914757303893566  0.060906264930963516  1.0000
  Rh  Rh1       1.0  0.16367670893669128  0.3243166506290436  0.8925237655639648  1.0000
  Ru  Ru1       1.0  0.8352182507514954  0.07894968241453171  0.7858366966247559  1.0000
