data_image0
_chemical_formula_structural       ClP2Pb2S8Zr
_chemical_formula_sum              "Cl1 P2 Pb2 S8 Zr1"
_cell_length_a       7.71005459305671
_cell_length_b       7.657555483854274
_cell_length_c       7.969593048095703
_cell_angle_alpha    62.02160991059061
_cell_angle_beta     61.55717302833139
_cell_angle_gamma    57.46732830301542

_space_group_name_H-M_alt    "P 1"
_space_group_IT_number       1

loop_
  _space_group_symop_operation_xyz
  'x, y, z'

loop_
  _atom_site_type_symbol
  _atom_site_label
  _atom_site_symmetry_multiplicity
  _atom_site_fract_x
  _atom_site_fract_y
  _atom_site_fract_z
  _atom_site_occupancy
  Cl  Cl1       1.0  0.6225239038467407  0.0773322656750679  0.5964884757995605  1.0000
  P   P1        1.0  0.646176278591156  0.5862394571304321  0.03559359535574913  1.0000
  P   P2        1.0  0.14445675909519196  0.0807451382279396  0.7842823266983032  1.0000
  Pb  Pb1       1.0  0.2222443521022796  0.8191007375717164  0.7694265842437744  1.0000
  Pb  Pb2       1.0  0.9584408402442932  0.5572381615638733  0.8374067544937134  1.0000
  S   S1        1.0  0.8721945285797119  0.4231420457363129  0.745615541934967  1.0000
  S   S2        1.0  0.32329797744750977  0.050714138895273216  0.3093891739845276  1.0000
  S   S3        1.0  0.12115664035081863  0.0590733215212822  0.07790660858154297  1.0000
  S   S4        1.0  0.5492621064186096  0.8124332427978517  0.31822121143341064  1.0000
  S   S5        1.0  0.7079910039901733  0.5834116339683533  0.5932917594909668  1.0000
  S   S6        1.0  0.32736214995384216  0.02695742063224316  0.9919374585151672  1.0000
  S   S7        1.0  0.9753260612487793  0.4173991680145264  0.9888215065002441  1.0000
  S   S8        1.0  0.5499244332313538  0.8390431404113771  0.07285970449447632  1.0000
  Zr  Zr1       1.0  0.22434337437152863  0.32218286395072937  0.7655191421508789  1.0000
