data_image0
_chemical_formula_structural       BaCuFMnPPb3S6
_chemical_formula_sum              "Ba1 Cu1 F1 Mn1 P1 Pb3 S6"
_cell_length_a       5.5078726774582405
_cell_length_b       8.982834373453347
_cell_length_c       9.105053901672363
_cell_angle_alpha    119.86641244042887
_cell_angle_beta     93.02671928962802
_cell_angle_gamma    89.05247513412547

_space_group_name_H-M_alt    "P 1"
_space_group_IT_number       1

loop_
  _space_group_symop_operation_xyz
  'x, y, z'

loop_
  _atom_site_type_symbol
  _atom_site_label
  _atom_site_symmetry_multiplicity
  _atom_site_fract_x
  _atom_site_fract_y
  _atom_site_fract_z
  _atom_site_occupancy
  Ba  Ba1       1.0  0.5129843354225159  0.3488510251045227  0.02979121170938015  1.0000
  Cu  Cu1       1.0  0.7509257197380066  0.22104652225971222  0.7564369440078735  1.0000
  F   F1        1.0  0.4773848354816437  0.7399587035179138  0.6978750228881836  1.0000
  Mn  Mn1       1.0  0.5140766501426697  0.4054873585700989  0.8868646025657654  1.0000
  P   P1        1.0  0.030041832476854324  0.8169373869895935  0.8388426899909973  1.0000
  Pb  Pb1       1.0  0.9759659767150879  0.5992509722709656  0.4663550853729248  1.0000
  Pb  Pb2       1.0  0.2373630404472351  0.8799050450325012  0.3803408443927765  1.0000
  Pb  Pb3       1.0  0.5130239129066467  0.05795390531420708  0.4241374731063843  1.0000
  S   S1        1.0  0.5186595916748047  0.08519674837589264  0.43613171577453613  1.0000
  S   S2        1.0  0.006698031909763813  0.3732522130012512  0.8257286548614502  1.0000
  S   S3        1.0  0.9829357266426086  0.8931405544281006  0.5760747194290161  1.0000
  S   S4        1.0  0.5171003937721252  0.8523958921432495  0.17955008149147034  1.0000
  S   S5        1.0  0.029119225218892097  0.517282247543335  0.15383484959602356  1.0000
  S   S6        1.0  0.014688406139612198  0.7531168460845947  0.04401002451777458  1.0000
