data_image0
_chemical_formula_structural       Bi4F2OPbS6
_chemical_formula_sum              "Bi4 F2 O1 Pb1 S6"
_cell_length_a       6.250429985432526
_cell_length_b       7.071743615192797
_cell_length_c       11.516940116882324
_cell_angle_alpha    74.32438877684903
_cell_angle_beta     72.15153498147217
_cell_angle_gamma    64.094578094564

_space_group_name_H-M_alt    "P 1"
_space_group_IT_number       1

loop_
  _space_group_symop_operation_xyz
  'x, y, z'

loop_
  _atom_site_type_symbol
  _atom_site_label
  _atom_site_symmetry_multiplicity
  _atom_site_fract_x
  _atom_site_fract_y
  _atom_site_fract_z
  _atom_site_occupancy
  Bi  Bi1       1.0  0.6657708883285522  0.3832588791847229  0.23479802906513214  1.0000
  Bi  Bi2       1.0  0.45635020732879633  0.041379667818546295  0.9406601190567017  1.0000
  Bi  Bi3       1.0  0.6974098682403564  0.8708001971244812  0.1872314214706421  1.0000
  Bi  Bi4       1.0  0.7241684794425964  0.47196415066719055  0.7510197758674622  1.0000
  F   F1        1.0  0.13212597370147705  0.5359429121017456  0.2556305229663849  1.0000
  F   F2        1.0  0.8858491182327269  0.35058385133743286  0.6427661180496216  1.0000
  O   O1        1.0  0.1912150681018829  0.09666334837675095  0.8345763683319092  1.0000
  Pb  Pb1       1.0  0.13763900101184845  0.29978469014167786  0.49583518505096436  1.0000
  S   S1        1.0  0.41875836253166193  0.362415075302124  0.6898849606513977  1.0000
  S   S2        1.0  0.23190264403820035  0.015905283391475677  0.2395392656326294  1.0000
  S   S3        1.0  0.19215162098407743  0.8606102466583252  0.5337093472480774  1.0000
  S   S4        1.0  0.35110265016555786  0.3043553829193115  0.016412662342190742  1.0000
  S   S5        1.0  0.8004963994026183  0.2578486502170563  0.5169582366943359  1.0000
  S   S6        1.0  0.6277031898498535  0.29569414258003235  0.32298552989959717  1.0000
