data_image0
_chemical_formula_structural       Bi6ClFOS5
_chemical_formula_sum              "Bi6 Cl1 F1 O1 S5"
_cell_length_a       7.480072252262083
_cell_length_b       7.701787950430852
_cell_length_c       8.255558967590332
_cell_angle_alpha    61.647115695421476
_cell_angle_beta     58.98619835281422
_cell_angle_gamma    60.12865019251728

_space_group_name_H-M_alt    "P 1"
_space_group_IT_number       1

loop_
  _space_group_symop_operation_xyz
  'x, y, z'

loop_
  _atom_site_type_symbol
  _atom_site_label
  _atom_site_symmetry_multiplicity
  _atom_site_fract_x
  _atom_site_fract_y
  _atom_site_fract_z
  _atom_site_occupancy
  Bi  Bi1       1.0  0.7882269620895386  0.357571542263031  0.7798187136650085  1.0000
  Bi  Bi2       1.0  0.31286099553108215  0.20338399708271027  0.6675393581390381  1.0000
  Bi  Bi3       1.0  0.8544301986694336  0.6719786524772644  0.653807520866394  1.0000
  Bi  Bi4       1.0  0.601254940032959  0.8693447113037109  0.4685518145561218  1.0000
  Bi  Bi5       1.0  0.8795421123504639  0.7829412221908569  0.16113469004631042  1.0000
  Bi  Bi6       1.0  0.9988452196121216  0.17178793251514435  0.9589096307754517  1.0000
  Cl  Cl1       1.0  0.1209155023097992  0.8373690843582153  0.9643818736076355  1.0000
  F   F1        1.0  0.9801006317138672  0.8998145461082458  0.668317139148712  1.0000
  O   O1        1.0  0.24697113037109375  0.14775307476520538  0.6323941349983215  1.0000
  S   S1        1.0  0.013697355054318905  0.18475712835788727  0.8623747825622559  1.0000
  S   S2        1.0  0.5568867921829224  0.0005803108215332031  0.026295652613043785  1.0000
  S   S3        1.0  0.23021331429481506  0.6806648373603821  0.4636404812335968  1.0000
  S   S4        1.0  0.6546143293380737  0.07405195385217667  0.13722306489944458  1.0000
  S   S5        1.0  0.5491776466369629  0.6564175486564636  0.9844138622283936  1.0000
