data_image0
_chemical_formula_structural       Bi6Cu4F2PbTe
_chemical_formula_sum              "Bi6 Cu4 F2 Pb1 Te1"
_cell_length_a       5.531687914726952
_cell_length_b       5.852294305347941
_cell_length_c       11.106379508972168
_cell_angle_alpha    87.54155397061284
_cell_angle_beta     85.82277525728199
_cell_angle_gamma    117.7201381251584

_space_group_name_H-M_alt    "P 1"
_space_group_IT_number       1

loop_
  _space_group_symop_operation_xyz
  'x, y, z'

loop_
  _atom_site_type_symbol
  _atom_site_label
  _atom_site_symmetry_multiplicity
  _atom_site_fract_x
  _atom_site_fract_y
  _atom_site_fract_z
  _atom_site_occupancy
  Bi  Bi1       1.0  0.6293625831604004  0.6144192814826965  0.1839112937450409  1.0000
  Bi  Bi2       1.0  0.9872060418128967  0.6881119608879089  0.6832394003868103  1.0000
  Bi  Bi3       1.0  0.9837630391120911  0.28260281682014465  0.5349360704421997  1.0000
  Bi  Bi4       1.0  0.9852498769760132  0.2732749283313751  0.7735497951507568  1.0000
  Bi  Bi5       1.0  0.04084458574652672  0.550570547580719  0.979529619216919  1.0000
  Bi  Bi6       1.0  0.6301034688949585  0.9068925380706787  0.29348698258399963  1.0000
  Cu  Cu1       1.0  0.3323323726654053  0.10256634652614594  0.6731305122375488  1.0000
  Cu  Cu2       1.0  0.33869877457618713  0.13250203430652618  0.525545597076416  1.0000
  Cu  Cu3       1.0  0.32626107335090637  0.9141021370887756  0.7969146370887756  1.0000
  Cu  Cu4       1.0  0.6841596961021423  0.572469174861908  0.18006375432014465  1.0000
  F   F1        1.0  0.15801078081130981  0.44939902424812317  0.28072941303253174  1.0000
  F   F2        1.0  0.6571235656738281  0.44930699467658997  0.781871497631073  1.0000
  Pb  Pb1       1.0  0.32793569564819336  0.2137458622455597  0.17744292318820953  1.0000
  Te  Te1       1.0  0.340865820646286  0.6833974123001099  0.9149943590164185  1.0000
