data_image0
_chemical_formula_structural       Bi7Cu4FSSn
_chemical_formula_sum              "Bi7 Cu4 F1 S1 Sn1"
_cell_length_a       5.2974429268564975
_cell_length_b       6.103485813018095
_cell_length_c       12.835736274719238
_cell_angle_alpha    89.9937495436835
_cell_angle_beta     84.52097708011665
_cell_angle_gamma    118.01963862755541

_space_group_name_H-M_alt    "P 1"
_space_group_IT_number       1

loop_
  _space_group_symop_operation_xyz
  'x, y, z'

loop_
  _atom_site_type_symbol
  _atom_site_label
  _atom_site_symmetry_multiplicity
  _atom_site_fract_x
  _atom_site_fract_y
  _atom_site_fract_z
  _atom_site_occupancy
  Bi  Bi1       1.0  0.05807151645421982  0.8221135139465332  0.9263136982917786  1.0000
  Bi  Bi2       1.0  0.5405692458152771  0.0011470450554043055  0.5731443166732788  1.0000
  Bi  Bi3       1.0  0.6167183518409729  0.49360108375549316  0.7729190587997437  1.0000
  Bi  Bi4       1.0  0.04912104457616806  0.015326952561736107  0.5067288875579834  1.0000
  Bi  Bi5       1.0  0.5617225170135498  0.6429981589317322  0.011137896217405796  1.0000
  Bi  Bi6       1.0  0.5724900364875793  0.0012316607171669602  0.1681458055973053  1.0000
  Bi  Bi7       1.0  0.04918061941862106  0.0014901590766385198  0.5091967582702637  1.0000
  Cu  Cu1       1.0  0.048845771700143814  0.48920997977256775  0.08577640354633331  1.0000
  Cu  Cu2       1.0  0.03410530462861061  0.0035958883818238974  0.7361495494842529  1.0000
  Cu  Cu3       1.0  0.3021682798862457  0.5020261406898499  0.1120460033416748  1.0000
  Cu  Cu4       1.0  0.98821622133255  0.7380818128585815  0.2691958248615265  1.0000
  F   F1        1.0  0.03990005701780319  0.9973140954971313  0.5354798436164856  1.0000
  S   S1        1.0  0.04185279458761215  0.4992033839225769  0.04473007097840309  1.0000
  Sn  Sn1       1.0  0.5638771057128906  0.37949955463409424  0.6577906608581543  1.0000
