data_image0
_chemical_formula_structural       H4I5P7
_chemical_formula_sum              "H4 I5 P7"
_cell_length_a       5.749058784962227
_cell_length_b       8.313517310408898
_cell_length_c       9.387040138244629
_cell_angle_alpha    86.30782962377167
_cell_angle_beta     81.51820919586086
_cell_angle_gamma    85.03869304016261

_space_group_name_H-M_alt    "P 1"
_space_group_IT_number       1

loop_
  _space_group_symop_operation_xyz
  'x, y, z'

loop_
  _atom_site_type_symbol
  _atom_site_label
  _atom_site_symmetry_multiplicity
  _atom_site_fract_x
  _atom_site_fract_y
  _atom_site_fract_z
  _atom_site_occupancy
  H   H1        1.0  0.046448562294244766  0.8485976457595825  0.05279869958758354  1.0000
  H   H2        1.0  0.02824496477842331  0.07944776117801666  0.4937446713447571  1.0000
  H   H3        1.0  0.030386801809072495  0.6147502064704895  0.9466962218284607  1.0000
  H   H4        1.0  0.5103101134300232  0.5574973821640015  0.3172207176685333  1.0000
  I   I1        1.0  0.016470659524202347  0.6365361213684082  0.9205461740493774  1.0000
  I   I2        1.0  0.5118852257728577  0.9979566931724548  0.32400500774383545  1.0000
  I   I3        1.0  0.02193603105843067  0.6960871815681458  0.21568675339221954  1.0000
  I   I4        1.0  0.014591652899980545  0.34727784991264343  0.4570847749710083  1.0000
  I   I5        1.0  0.5195168852806091  0.9391441345214844  0.4194325804710388  1.0000
  P   P1        1.0  0.0063179656863212585  0.5488024353981018  0.8247513771057129  1.0000
  P   P2        1.0  0.517289936542511  0.567513644695282  0.16635635495185852  1.0000
  P   P3        1.0  0.4875347316265106  0.1649753749370575  0.9364184141159058  1.0000
  P   P4        1.0  0.5040328502655029  0.4732900857925415  0.007346186321228743  1.0000
  P   P5        1.0  0.5068177580833435  0.6268550157546997  0.7086443305015564  1.0000
  P   P6        1.0  0.5329216718673706  0.9694728255271912  0.567204475402832  1.0000
  P   P7        1.0  0.037140730768442154  0.899773895740509  0.8606399297714233  1.0000
