data_image0
_chemical_formula_structural       H3I4P8Pt
_chemical_formula_sum              "H3 I4 P8 Pt1"
_cell_length_a       7.456622294865205
_cell_length_b       7.6405672887963965
_cell_length_c       8.615883827209473
_cell_angle_alpha    77.62167476153788
_cell_angle_beta     74.44470085172284
_cell_angle_gamma    68.28005383201429

_space_group_name_H-M_alt    "P 1"
_space_group_IT_number       1

loop_
  _space_group_symop_operation_xyz
  'x, y, z'

loop_
  _atom_site_type_symbol
  _atom_site_label
  _atom_site_symmetry_multiplicity
  _atom_site_fract_x
  _atom_site_fract_y
  _atom_site_fract_z
  _atom_site_occupancy
  H   H1        1.0  0.7764947414398193  0.9359186291694642  0.11295496672391891  1.0000
  H   H2        1.0  0.6582852602005005  0.5839227437973022  0.7919949889183044  1.0000
  H   H3        1.0  0.7616425156593323  0.15682435035705566  0.36938512325286865  1.0000
  I   I1        1.0  0.46697309613227844  0.16220439970493317  0.46635621786117554  1.0000
  I   I2        1.0  0.8084204196929932  0.5302992463111877  0.4390912353992462  1.0000
  I   I3        1.0  0.729895293712616  0.5401382446289062  0.380200982093811  1.0000
  I   I4        1.0  0.7382276058197021  0.1390414983034134  0.9528435468673706  1.0000
  P   P1        1.0  0.14254754781723022  0.27619469165802  0.1969607025384903  1.0000
  P   P2        1.0  0.19988547265529633  0.16272255778312683  0.5742194056510925  1.0000
  P   P3        1.0  0.9513176679611206  0.5223251581192017  0.827348530292511  1.0000
  P   P4        1.0  0.9016187787055969  0.628119945526123  0.6933214068412781  1.0000
  P   P5        1.0  0.44130781292915344  0.13196341693401337  0.08765490353107452  1.0000
  P   P6        1.0  0.2786054015159607  0.32937783002853394  0.7207939028739929  1.0000
  P   P7        1.0  0.40890324115753174  0.7331312894821167  0.16684590280056  1.0000
  P   P8        1.0  0.1522250473499298  0.019932568073272705  0.303568959236145  1.0000
  Pt  Pt1       1.0  0.6265279650688171  0.8988386988639833  0.18510940670967102  1.0000
