data_image0
_chemical_formula_structural       H4I6OP5
_chemical_formula_sum              "H4 I6 O1 P5"
_cell_length_a       5.748928359173966
_cell_length_b       6.5979312161471135
_cell_length_c       10.35812759399414
_cell_angle_alpha    90.62993534313676
_cell_angle_beta     89.9704238019405
_cell_angle_gamma    111.53754236618093

_space_group_name_H-M_alt    "P 1"
_space_group_IT_number       1

loop_
  _space_group_symop_operation_xyz
  'x, y, z'

loop_
  _atom_site_type_symbol
  _atom_site_label
  _atom_site_symmetry_multiplicity
  _atom_site_fract_x
  _atom_site_fract_y
  _atom_site_fract_z
  _atom_site_occupancy
  H   H1        1.0  0.26583361625671387  0.25263649225234985  0.4546433687210083  1.0000
  H   H2        1.0  0.7501848936080933  0.6209661960601807  0.7774108648300171  1.0000
  H   H3        1.0  0.9959482550621033  0.589955747127533  0.5958572030067444  1.0000
  H   H4        1.0  0.7138370871543884  0.9571096301078796  0.1742689460515976  1.0000
  I   I1        1.0  0.22243718802928925  0.00997517816722393  0.3471769690513611  1.0000
  I   I2        1.0  0.7087900042533875  0.5211316347122192  0.1640530675649643  1.0000
  I   I3        1.0  0.7258473038673401  0.6074057817459106  0.33651992678642273  1.0000
  I   I4        1.0  0.23652103543281555  0.9844644069671631  0.9514608383178711  1.0000
  I   I5        1.0  0.42119482159614563  0.6377533078193665  0.9969742298126221  1.0000
  I   I6        1.0  0.15551301836967468  0.8080902695655823  0.5393523573875427  1.0000
  O   O1        1.0  0.9148827195167542  0.9185218214988708  0.231719970703125  1.0000
  P   P1        1.0  0.2589377760887146  0.5868204236030579  0.30979490280151367  1.0000
  P   P2        1.0  0.40193283557891846  0.7136723399162292  0.8634626865386963  1.0000
  P   P3        1.0  0.41067108511924744  0.9030716419219971  0.3390819728374481  1.0000
  P   P4        1.0  0.26293206214904785  0.15831437706947327  0.3596689999103546  1.0000
  P   P5        1.0  0.16433319449424744  0.7601290941238403  0.6338898539543152  1.0000
