data_image0
_chemical_formula_structural       H3I6OP5Pt
_chemical_formula_sum              "H3 I6 O1 P5 Pt1"
_cell_length_a       6.648651007489352
_cell_length_b       6.6188610282676725
_cell_length_c       9.771623611450195
_cell_angle_alpha    75.63483607377638
_cell_angle_beta     70.7930090144125
_cell_angle_gamma    58.72384754268851

_space_group_name_H-M_alt    "P 1"
_space_group_IT_number       1

loop_
  _space_group_symop_operation_xyz
  'x, y, z'

loop_
  _atom_site_type_symbol
  _atom_site_label
  _atom_site_symmetry_multiplicity
  _atom_site_fract_x
  _atom_site_fract_y
  _atom_site_fract_z
  _atom_site_occupancy
  H   H1        1.0  0.03562583774328232  0.9382981657981873  0.11882110685110092  1.0000
  H   H2        1.0  0.9510882496833802  0.48269709944725037  0.002385538537055254  1.0000
  H   H3        1.0  0.9329357147216798  0.7073381543159485  0.3295454084873199  1.0000
  I   I1        1.0  0.41958284378051763  0.5293002724647522  0.31653696298599243  1.0000
  I   I2        1.0  0.20894007384777072  0.8303144574165344  0.5493196845054626  1.0000
  I   I3        1.0  0.5376022458076477  0.5587935447692871  0.5854209065437317  1.0000
  I   I4        1.0  0.40597966313362127  0.7786682844161987  0.8290777802467346  1.0000
  I   I5        1.0  0.9470118880271913  0.33972087502479553  0.9754894971847534  1.0000
  I   I6        1.0  0.9848317503929139  0.7119094133377075  0.3542426526546478  1.0000
  O   O1        1.0  0.43351364135742193  0.3295089602470398  0.45907360315322876  1.0000
  P   P1        1.0  0.9423070549964906  0.8446921110153198  0.9175724387168884  1.0000
  P   P2        1.0  0.7018858790397645  0.40265095233917236  0.8522012829780579  1.0000
  P   P3        1.0  0.1680012345314026  0.319192498922348  0.2583276331424713  1.0000
  P   P4        1.0  0.2568727135658264  0.7116837501525879  0.6085014343261719  1.0000
  P   P5        1.0  0.7002190947532655  0.31426340341567993  0.19572976231575012  1.0000
  Pt  Pt1       1.0  0.16164761781692505  0.6155356764793396  0.046236444264650345  1.0000
