data_image0
_chemical_formula_structural       GeH3I6OP5
_chemical_formula_sum              "Ge1 H3 I6 O1 P5"
_cell_length_a       7.619079879217085
_cell_length_b       8.081370505128032
_cell_length_c       8.549975395202637
_cell_angle_alpha    61.00794566516833
_cell_angle_beta     64.99235719434948
_cell_angle_gamma    62.542782304653535

_space_group_name_H-M_alt    "P 1"
_space_group_IT_number       1

loop_
  _space_group_symop_operation_xyz
  'x, y, z'

loop_
  _atom_site_type_symbol
  _atom_site_label
  _atom_site_symmetry_multiplicity
  _atom_site_fract_x
  _atom_site_fract_y
  _atom_site_fract_z
  _atom_site_occupancy
  Ge  Ge1       1.0  0.8571686148643494  0.6638058423995972  0.40163207054138184  1.0000
  H   H1        1.0  0.6611795425415039  0.5085853338241577  0.7033174633979797  1.0000
  H   H2        1.0  0.3576282262802124  0.16997961699962616  0.3958609104156494  1.0000
  H   H3        1.0  0.6574220657348633  0.773787796497345  0.6532834768295288  1.0000
  I   I1        1.0  0.41575732827186584  0.4053315222263336  0.5127143263816833  1.0000
  I   I2        1.0  0.04624704644083977  0.33605027198791504  0.3953823745250702  1.0000
  I   I3        1.0  0.14789287745952606  0.9999773502349854  0.6467195153236389  1.0000
  I   I4        1.0  0.9560005068778992  0.44615083932876587  0.11921609193086624  1.0000
  I   I5        1.0  0.1505242884159088  0.47581568360328674  0.6061754822731018  1.0000
  I   I6        1.0  0.0717674121260643  0.23636165261268616  0.810556173324585  1.0000
  O   O1        1.0  0.39787769317626953  0.6472446918487549  0.4682559072971344  1.0000
  P   P1        1.0  0.4488225281238556  0.5708779692649841  0.15026794373989105  1.0000
  P   P2        1.0  0.9031019806861877  0.1363525688648224  0.645163357257843  1.0000
  P   P3        1.0  0.06671769917011261  0.5826783180236816  0.7192019820213318  1.0000
  P   P4        1.0  0.38778239488601685  0.6705054044723511  0.30611860752105713  1.0000
  P   P5        1.0  0.04646327346563339  0.4336615800857544  0.43640822172164917  1.0000
