data_image0
_chemical_formula_structural       H3I4O2P4Pt3
_chemical_formula_sum              "H3 I4 O2 P4 Pt3"
_cell_length_a       6.172116022785338
_cell_length_b       6.4085067793258705
_cell_length_c       8.01424503326416
_cell_angle_alpha    73.37754452479251
_cell_angle_beta     72.93700856614717
_cell_angle_gamma    59.13683967775771

_space_group_name_H-M_alt    "P 1"
_space_group_IT_number       1

loop_
  _space_group_symop_operation_xyz
  'x, y, z'

loop_
  _atom_site_type_symbol
  _atom_site_label
  _atom_site_symmetry_multiplicity
  _atom_site_fract_x
  _atom_site_fract_y
  _atom_site_fract_z
  _atom_site_occupancy
  H   H1        1.0  0.6149245500564575  0.7509236931800842  0.26804614067077637  1.0000
  H   H2        1.0  0.6651085019111633  0.7160248160362244  0.24020440876483917  1.0000
  H   H3        1.0  0.18730990588665009  0.2496406137943268  0.7647603154182434  1.0000
  I   I1        1.0  0.822689950466156  0.6837377548217773  0.9733113646507263  1.0000
  I   I2        1.0  0.0586090162396431  0.579842746257782  0.03283466398715973  1.0000
  I   I3        1.0  0.567351222038269  0.2654421031475067  0.9660750031471252  1.0000
  I   I4        1.0  0.12456364184617995  0.5482966303825378  0.9797513484954834  1.0000
  O   O1        1.0  0.27525368332862854  0.12074866890907289  0.48031559586524963  1.0000
  O   O2        1.0  0.918303370475769  0.7651335000991821  0.03369804099202156  1.0000
  P   P1        1.0  0.1068006306886673  0.7841321229934692  0.7168027758598328  1.0000
  P   P2        1.0  0.7539640069007874  0.8602501749992371  0.4331604838371277  1.0000
  P   P3        1.0  0.5119197964668274  0.6447896957397461  0.631568968296051  1.0000
  P   P4        1.0  0.8115140795707703  0.7071957588195801  0.41731011867523193  1.0000
  Pt  Pt1       1.0  0.4193152189254761  0.08268597722053528  0.939080536365509  1.0000
  Pt  Pt2       1.0  0.5887253284454346  0.19846396148204803  0.26091468334198  1.0000
  Pt  Pt3       1.0  0.20595216751098633  0.8825635313987732  0.9912838339805603  1.0000
