data_image0
_chemical_formula_structural       Ge3Lu7O2
_chemical_formula_sum              "Ge3 Lu7 O2"
_cell_length_a       4.6610521910978004
_cell_length_b       6.946116185876116
_cell_length_c       7.917537212371826
_cell_angle_alpha    120.43047863105808
_cell_angle_beta     89.4387789299338
_cell_angle_gamma    89.34764526375801

_space_group_name_H-M_alt    "P 1"
_space_group_IT_number       1

loop_
  _space_group_symop_operation_xyz
  'x, y, z'

loop_
  _atom_site_type_symbol
  _atom_site_label
  _atom_site_symmetry_multiplicity
  _atom_site_fract_x
  _atom_site_fract_y
  _atom_site_fract_z
  _atom_site_occupancy
  Ge  Ge1       1.0  0.01280218455940485  0.3340008556842804  0.10295321047306062  1.0000
  Ge  Ge2       1.0  0.5126269459724426  0.8614987730979919  0.8228880167007447  1.0000
  Ge  Ge3       1.0  0.04224563017487526  0.1958063393831253  0.8384323716163636  1.0000
  Lu  Lu1       1.0  0.028618663549423218  0.2442379593849182  0.8398354649543763  1.0000
  Lu  Lu2       1.0  0.531132698059082  0.6846635341644287  0.31006890535354614  1.0000
  Lu  Lu3       1.0  0.5194385647773743  0.8506951928138733  0.9569025039672853  1.0000
  Lu  Lu4       1.0  0.024662677198648453  0.38623788952827454  0.5858528017997742  1.0000
  Lu  Lu5       1.0  0.5417866706848145  0.199054554104805  0.7306482791900636  1.0000
  Lu  Lu6       1.0  0.5287603735923767  0.689610481262207  0.6902332305908204  1.0000
  Lu  Lu7       1.0  0.5204633474349976  0.03172510489821434  0.1121104583144188  1.0000
  O   O1        1.0  0.07808282226324081  0.8812270760536194  0.8422423005104066  1.0000
  O   O2        1.0  0.5415555238723755  0.24160394072532654  0.838908076286316  1.0000
