data_image0
_chemical_formula_structural       Ge3Lu8Zn
_chemical_formula_sum              "Ge3 Lu8 Zn1"
_cell_length_a       4.436473380180252
_cell_length_b       6.210105910829983
_cell_length_c       7.379994869232178
_cell_angle_alpha    89.4896941269899
_cell_angle_beta     92.1149751583096
_cell_angle_gamma    92.10567745519201

_space_group_name_H-M_alt    "P 1"
_space_group_IT_number       1

loop_
  _space_group_symop_operation_xyz
  'x, y, z'

loop_
  _atom_site_type_symbol
  _atom_site_label
  _atom_site_symmetry_multiplicity
  _atom_site_fract_x
  _atom_site_fract_y
  _atom_site_fract_z
  _atom_site_occupancy
  Ge  Ge1       1.0  0.6904574036598206  0.8743114471435547  0.007729907985776664  1.0000
  Ge  Ge2       1.0  0.04221952334046364  0.5735179781913757  0.4531939029693604  1.0000
  Ge  Ge3       1.0  0.6751610636711121  0.8589929938316345  0.816264569759369  1.0000
  Lu  Lu1       1.0  0.04389910772442818  0.5213361978530884  0.11158212274312974  1.0000
  Lu  Lu2       1.0  0.028915388509631157  0.5829617381095886  0.3357790410518646  1.0000
  Lu  Lu3       1.0  0.7899223566055298  0.5429980158805847  0.5964767932891846  1.0000
  Lu  Lu4       1.0  0.30549079179763794  0.1482275277376175  0.07818600535392761  1.0000
  Lu  Lu5       1.0  0.05421842262148857  0.9096034169197083  0.8614521622657777  1.0000
  Lu  Lu6       1.0  0.5502025485038757  0.3845476806163788  0.3118581175804138  1.0000
  Lu  Lu7       1.0  0.4866246581077576  0.3800566494464874  0.01770150475203991  1.0000
  Lu  Lu8       1.0  0.5638885498046875  0.8830977082252502  0.3180002272129059  1.0000
  Zn  Zn1       1.0  0.5501938462257385  0.09337645769119263  0.3206026256084442  1.0000
