data_image0
_chemical_formula_structural       Ge9OsSi2
_chemical_formula_sum              "Ge9 Os1 Si2"
_cell_length_a       4.983791722226607
_cell_length_b       8.155785311224902
_cell_length_c       8.139909744262695
_cell_angle_alpha    120.55718996353981
_cell_angle_beta     87.66316986785856
_cell_angle_gamma    92.90375710942159

_space_group_name_H-M_alt    "P 1"
_space_group_IT_number       1

loop_
  _space_group_symop_operation_xyz
  'x, y, z'

loop_
  _atom_site_type_symbol
  _atom_site_label
  _atom_site_symmetry_multiplicity
  _atom_site_fract_x
  _atom_site_fract_y
  _atom_site_fract_z
  _atom_site_occupancy
  Ge  Ge1       1.0  0.5468782782554626  0.026041602715849876  0.7619898319244385  1.0000
  Ge  Ge2       1.0  0.5482860207557678  0.5715026259422302  0.2936408221721649  1.0000
  Ge  Ge3       1.0  0.30835747718811035  0.20611107349395752  0.4851521849632263  1.0000
  Ge  Ge4       1.0  0.8013556599617004  0.39661720395088196  0.7708258628845215  1.0000
  Ge  Ge5       1.0  0.056133996695280075  0.7445424199104309  0.8387203812599182  1.0000
  Ge  Ge6       1.0  0.5545467138290405  0.8659332394599915  0.25429823994636536  1.0000
  Ge  Ge7       1.0  0.3082256019115448  0.4005853533744812  0.20514346659183502  1.0000
  Ge  Ge8       1.0  0.8144064545631409  0.6889534592628479  0.6453177332878113  1.0000
  Ge  Ge9       1.0  0.8019899725914001  0.23858797550201416  0.5091699957847595  1.0000
  Os  Os1       1.0  0.5558815598487854  0.3927443027496338  0.4120030105113983  1.0000
  Si  Si1       1.0  0.061881083995103836  0.7858247756958008  0.8288416862487793  1.0000
  Si  Si2       1.0  0.06092766672372818  0.778582751750946  0.17280694842338562  1.0000
