data_image0
_chemical_formula_structural       Ge3Lu6PYZn
_chemical_formula_sum              "Ge3 Lu6 P1 Y1 Zn1"
_cell_length_a       6.497044924957569
_cell_length_b       6.758168127599008
_cell_length_c       7.165957927703857
_cell_angle_alpha    108.28756077159038
_cell_angle_beta     106.50149048282402
_cell_angle_gamma    112.43213639566035

_space_group_name_H-M_alt    "P 1"
_space_group_IT_number       1

loop_
  _space_group_symop_operation_xyz
  'x, y, z'

loop_
  _atom_site_type_symbol
  _atom_site_label
  _atom_site_symmetry_multiplicity
  _atom_site_fract_x
  _atom_site_fract_y
  _atom_site_fract_z
  _atom_site_occupancy
  Ge  Ge1       1.0  0.9874393343925476  0.25479528307914734  0.3905932009220124  1.0000
  Ge  Ge2       1.0  0.7966021299362183  0.7236179709434509  0.408626824617386  1.0000
  Ge  Ge3       1.0  0.4799020290374756  0.7403831481933594  0.07982523739337923  1.0000
  Lu  Lu1       1.0  0.335357129573822  0.2598169445991516  0.19510819017887118  1.0000
  Lu  Lu2       1.0  0.3704565763473511  0.2505330443382263  0.38486784696578985  1.0000
  Lu  Lu3       1.0  0.5610174536705017  0.37300005555152893  0.3924912512302399  1.0000
  Lu  Lu4       1.0  0.22147904336452484  0.7646142840385437  0.3879945278167725  1.0000
  Lu  Lu5       1.0  0.8609009981155396  0.7442364692687988  0.6535608172416688  1.0000
  Lu  Lu6       1.0  0.6369908452033997  0.0034964021760970354  0.6499442458152772  1.0000
  P   P1        1.0  0.9152281284332275  0.9538137316703796  0.8572828173637391  1.0000
  Y   Y1        1.0  0.14339418709278107  0.7069113850593567  0.9056747555732728  1.0000
  Zn  Zn1       1.0  0.37916994094848633  0.24268926680088043  0.38200137019157415  1.0000
