data_image0
_chemical_formula_structural       Ge7IrOs3Y
_chemical_formula_sum              "Ge7 Ir1 Os3 Y1"
_cell_length_a       5.885374601549866
_cell_length_b       7.525110672281872
_cell_length_c       7.753370761871338
_cell_angle_alpha    124.49652308403998
_cell_angle_beta     87.93091010038258
_cell_angle_gamma    89.51331489034246

_space_group_name_H-M_alt    "P 1"
_space_group_IT_number       1

loop_
  _space_group_symop_operation_xyz
  'x, y, z'

loop_
  _atom_site_type_symbol
  _atom_site_label
  _atom_site_symmetry_multiplicity
  _atom_site_fract_x
  _atom_site_fract_y
  _atom_site_fract_z
  _atom_site_occupancy
  Ge  Ge1       1.0  0.8468946814537048  0.6401036977767944  0.45550552010536194  1.0000
  Ge  Ge2       1.0  0.0933179259300232  0.983350932598114  0.10829398036003113  1.0000
  Ge  Ge3       1.0  0.16050440073013306  0.3407106399536133  0.4735594391822815  1.0000
  Ge  Ge4       1.0  0.8658334612846375  0.3651323616504669  0.3696291148662567  1.0000
  Ge  Ge5       1.0  0.8571417927742004  0.7216305136680603  0.8853620290756226  1.0000
  Ge  Ge6       1.0  0.37976324558258057  0.6622276902198792  0.7781410217285156  1.0000
  Ge  Ge7       1.0  0.3849186301231384  0.8694728016853333  0.8905571103096008  1.0000
  Ir  Ir1       1.0  0.35604730248451233  0.9258808493614197  0.7385761737823486  1.0000
  Os  Os1       1.0  0.8518622517585754  0.006382582243531942  0.6530308127403259  1.0000
  Os  Os2       1.0  0.8476854562759399  0.39105886220932007  0.3727886378765106  1.0000
  Os  Os3       1.0  0.3576231002807617  0.11726540327072144  0.15921925008296967  1.0000
  Y   Y1        1.0  0.3776680529117584  0.35023999214172363  0.37217316031455994  1.0000
