data_image0
_chemical_formula_structural       Ge2Lu9P
_chemical_formula_sum              "Ge2 Lu9 P1"
_cell_length_a       6.185802298292853
_cell_length_b       7.1194083935097225
_cell_length_c       7.356417655944824
_cell_angle_alpha    111.96348183805887
_cell_angle_beta     105.13542842967176
_cell_angle_gamma    105.91788714794086

_space_group_name_H-M_alt    "P 1"
_space_group_IT_number       1

loop_
  _space_group_symop_operation_xyz
  'x, y, z'

loop_
  _atom_site_type_symbol
  _atom_site_label
  _atom_site_symmetry_multiplicity
  _atom_site_fract_x
  _atom_site_fract_y
  _atom_site_fract_z
  _atom_site_occupancy
  Ge  Ge1       1.0  0.7960509061813354  0.112226702272892  0.7998308539390563  1.0000
  Ge  Ge2       1.0  0.2905820608139038  0.8057335615158081  0.13624206185340887  1.0000
  Lu  Lu1       1.0  0.2758360207080841  0.04265247657895088  0.022089058533310887  1.0000
  Lu  Lu2       1.0  0.5085275769233704  0.2509286105632782  0.7195100188255309  1.0000
  Lu  Lu3       1.0  0.7893803715705872  0.28634899854660034  0.7767722010612487  1.0000
  Lu  Lu4       1.0  0.040641456842422485  0.38835108280181885  0.744917333126068  1.0000
  Lu  Lu5       1.0  0.04304921254515648  0.7374613881111145  0.22186622023582456  1.0000
  Lu  Lu6       1.0  0.04458094388246536  0.4028615951538086  0.5852909684181212  1.0000
  Lu  Lu7       1.0  0.7665898203849792  0.5696288347244263  0.9350886344909667  1.0000
  Lu  Lu8       1.0  0.5386249423027039  0.3968334496021271  0.40551778674125666  1.0000
  Lu  Lu9       1.0  0.4533501863479614  0.809495747089386  0.09030804783105849  1.0000
  P   P1        1.0  0.06120052561163902  0.06185783073306084  0.25719988346099854  1.0000
