data_image0
_chemical_formula_structural       BrK2LiMgO9S3
_chemical_formula_sum              "Br1 K2 Li1 Mg1 O9 S3"
_cell_length_a       8.361210866872295
_cell_length_b       8.04638334087495
_cell_length_c       8.260684967041016
_cell_angle_alpha    61.6399486333018
_cell_angle_beta     59.89692714905492
_cell_angle_gamma    60.78370479853153

_space_group_name_H-M_alt    "P 1"
_space_group_IT_number       1

loop_
  _space_group_symop_operation_xyz
  'x, y, z'

loop_
  _atom_site_type_symbol
  _atom_site_label
  _atom_site_symmetry_multiplicity
  _atom_site_fract_x
  _atom_site_fract_y
  _atom_site_fract_z
  _atom_site_occupancy
  Br  Br1       1.0  0.2783856987953186  0.09728486835956573  0.16160640120506287  1.0000
  K   K1        1.0  0.6546749472618103  0.38318461179733276  0.2584942877292633  1.0000
  K   K2        1.0  0.4894375503063202  0.023764660581946373  0.01742212474346161  1.0000
  Li  Li1       1.0  0.2632238566875458  0.7656978368759155  0.6129072308540344  1.0000
  Mg  Mg1       1.0  0.9699203372001648  0.5675153136253357  0.3749975860118866  1.0000
  O   O1        1.0  0.26393353939056396  0.34354114532470703  0.45707839727401733  1.0000
  O   O2        1.0  0.2207813858985901  0.8453149795532227  0.6655606031417847  1.0000
  O   O3        1.0  0.15602265298366547  0.5405429005622864  0.26545804738998413  1.0000
  O   O4        1.0  0.7710689306259155  0.15268515050411224  0.9377816319465637  1.0000
  O   O5        1.0  0.11450393497943878  0.11070248484611511  0.5590044856071472  1.0000
  O   O6        1.0  0.4878186285495758  0.525088906288147  0.9255250692367554  1.0000
  O   O7        1.0  0.6468749046325684  0.829955518245697  0.8212947845458984  1.0000
  O   O8        1.0  0.7054873108863831  0.6149755120277405  0.6948853135108948  1.0000
  O   O9        1.0  0.23535023629665375  0.7794835567474365  0.6540079712867737  1.0000
  S   S1        1.0  0.8553458452224731  0.5926286578178406  0.9207563996315002  1.0000
  S   S2        1.0  0.2612418532371521  0.38949280977249146  0.9416172504425049  1.0000
  S   S3        1.0  0.2980256676673889  0.18297944962978363  0.018085746094584465  1.0000
