data_image0
_chemical_formula_structural       Ca2InLiMgO9S2Tl
_chemical_formula_sum              "Ca2 In1 Li1 Mg1 O9 S2 Tl1"
_cell_length_a       8.667122069464458
_cell_length_b       8.389038042656024
_cell_length_c       7.926133155822754
_cell_angle_alpha    59.67358434383889
_cell_angle_beta     60.65144631795278
_cell_angle_gamma    60.10339359270136

_space_group_name_H-M_alt    "P 1"
_space_group_IT_number       1

loop_
  _space_group_symop_operation_xyz
  'x, y, z'

loop_
  _atom_site_type_symbol
  _atom_site_label
  _atom_site_symmetry_multiplicity
  _atom_site_fract_x
  _atom_site_fract_y
  _atom_site_fract_z
  _atom_site_occupancy
  Ca  Ca1       1.0  0.7274557948112489  0.7899131774902344  0.06546797603368759  1.0000
  Ca  Ca2       1.0  0.9035471677780152  0.11993957310914993  0.8919453024864196  1.0000
  In  In1       1.0  0.8809801936149598  0.6515094041824341  0.14291749894618988  1.0000
  Li  Li1       1.0  0.7294521927833558  0.2736523747444153  0.3912441432476043  1.0000
  Mg  Mg1       1.0  0.22119466960430148  0.3049050271511078  0.6431073546409607  1.0000
  O   O1        1.0  0.031429652124643326  0.9852887392044067  0.47912445664405817  1.0000
  O   O2        1.0  0.8057954311370851  0.01874365285038948  0.9855540990829467  1.0000
  O   O3        1.0  0.25856366753578186  0.8467082977294922  0.5424342751502991  1.0000
  O   O4        1.0  0.6525642871856691  0.5177909731864929  0.7413407564163208  1.0000
  O   O5        1.0  0.3030939400196076  0.8618309497833252  0.40153330564498896  1.0000
  O   O6        1.0  0.4273637533187867  0.2833905816078186  0.8664358258247374  1.0000
  O   O7        1.0  0.2642146348953247  0.4810123145580292  0.0693402886390686  1.0000
  O   O8        1.0  0.804688334465027  0.07074488699436188  0.5669930577278137  1.0000
  O   O9        1.0  0.8460286259651185  0.5573005676269531  0.6327154040336609  1.0000
  S   S1        1.0  0.15947394073009494  0.5227255821228027  0.3119651675224304  1.0000
  S   S2        1.0  0.7401198148727418  0.7606905698776245  0.34243670105934143  1.0000
  Tl  Tl1       1.0  0.22542843222618106  0.7453808188438416  0.9131599068641661  1.0000
