data_image0
_chemical_formula_structural       BrCa2MgO12S
_chemical_formula_sum              "Br1 Ca2 Mg1 O12 S1"
_cell_length_a       8.085220266333843
_cell_length_b       8.180125508116861
_cell_length_c       8.249879837036133
_cell_angle_alpha    60.28985594914629
_cell_angle_beta     62.23103098588885
_cell_angle_gamma    61.622654103606294

_space_group_name_H-M_alt    "P 1"
_space_group_IT_number       1

loop_
  _space_group_symop_operation_xyz
  'x, y, z'

loop_
  _atom_site_type_symbol
  _atom_site_label
  _atom_site_symmetry_multiplicity
  _atom_site_fract_x
  _atom_site_fract_y
  _atom_site_fract_z
  _atom_site_occupancy
  Br  Br1       1.0  0.6177001595497131  0.5623083114624023  0.2253316044807434  1.0000
  Ca  Ca1       1.0  0.9198359251022338  0.6596473455429077  0.28526771068573  1.0000
  Ca  Ca2       1.0  0.02617801539599895  0.3568439185619354  0.14213314652442932  1.0000
  Mg  Mg1       1.0  0.5647323131561279  0.10659253597259521  0.4611462354660034  1.0000
  O   O1        1.0  0.7685940861701965  0.7239241600036621  0.06033916398882866  1.0000
  O   O2        1.0  0.2626813054084778  0.6650306582450867  0.7904154658317566  1.0000
  O   O3        1.0  0.2941332459449768  0.2560051381587982  0.0929894745349884  1.0000
  O   O4        1.0  0.2606792151927948  0.5587796568870544  0.5737085938453674  1.0000
  O   O5        1.0  0.9310254454612731  0.9616551995277405  0.33935245871543884  1.0000
  O   O6        1.0  0.2722942531108856  0.9345716238021851  0.35283759236335754  1.0000
  O   O7        1.0  0.6925015449523926  0.571781575679779  0.5024608969688416  1.0000
  O   O8        1.0  0.6941927075386047  0.4700721502304077  0.2714824974536896  1.0000
  O   O9        1.0  0.9212200045585631  0.601881206035614  0.9336206316947937  1.0000
  O   O10       1.0  0.699832558631897  0.9575689435005188  0.5064501762390137  1.0000
  O   O11       1.0  0.06002822890877723  0.12206555902957916  0.42243263125419617  1.0000
  O   O12       1.0  0.5180029273033142  0.4087655544281006  0.29462218284606934  1.0000
  S   S1        1.0  0.26840513944625854  0.6642224788665771  0.9889890551567078  1.0000
