data_image0
_chemical_formula_structural       BrCaMg2O9S4
_chemical_formula_sum              "Br1 Ca1 Mg2 O9 S4"
_cell_length_a       8.107367396007922
_cell_length_b       8.050744218231262
_cell_length_c       7.935169696807861
_cell_angle_alpha    60.20106227253875
_cell_angle_beta     62.136825536377096
_cell_angle_gamma    59.73935161612375

_space_group_name_H-M_alt    "P 1"
_space_group_IT_number       1

loop_
  _space_group_symop_operation_xyz
  'x, y, z'

loop_
  _atom_site_type_symbol
  _atom_site_label
  _atom_site_symmetry_multiplicity
  _atom_site_fract_x
  _atom_site_fract_y
  _atom_site_fract_z
  _atom_site_occupancy
  Br  Br1       1.0  0.18327824771404266  0.712020993232727  0.5532577037811279  1.0000
  Ca  Ca1       1.0  0.4974026978015899  0.6503247022628784  0.26197725534439087  1.0000
  Mg  Mg1       1.0  0.47129434347152704  0.7146243453025818  0.5296158790588379  1.0000
  Mg  Mg2       1.0  0.981740117073059  0.4728036522865296  0.9297056198120117  1.0000
  O   O1        1.0  0.5943484306335449  0.958959996700287  0.9357824325561523  1.0000
  O   O2        1.0  0.19881020486354828  0.2029290944337845  0.8561640381813049  1.0000
  O   O3        1.0  0.09488197416067116  0.810652792453766  0.41490039229393005  1.0000
  O   O4        1.0  0.2268474996089935  0.19306112825870517  0.5597567558288574  1.0000
  O   O5        1.0  0.26445734500885004  0.432563066482544  0.9647781848907472  1.0000
  O   O6        1.0  0.8518939614295958  0.7822316884994508  0.851109266281128  1.0000
  O   O7        1.0  0.1891569346189498  0.9567739963531495  0.4567772150039673  1.0000
  O   O8        1.0  0.9219801425933837  0.6751192212104797  0.10868131369352341  1.0000
  O   O9        1.0  0.977280557155609  0.24419777095317843  0.278562068939209  1.0000
  S   S1        1.0  0.49223577976226796  0.9962032437324525  0.0032999175600707813  1.0000
  S   S2        1.0  0.938013195991516  0.1842848509550095  0.11447720974683762  1.0000
  S   S3        1.0  0.9189383387565612  0.2412517219781876  0.7745991945266724  1.0000
  S   S4        1.0  0.41311621665954584  0.2369060814380646  0.11465657502412796  1.0000
