data_image0
_chemical_formula_structural       CaMg2O9S4Tl
_chemical_formula_sum              "Ca1 Mg2 O9 S4 Tl1"
_cell_length_a       7.875319040215245
_cell_length_b       7.779302168263673
_cell_length_c       7.788748741149902
_cell_angle_alpha    59.719634237731185
_cell_angle_beta     59.94948362108828
_cell_angle_gamma    58.61409779567127

_space_group_name_H-M_alt    "P 1"
_space_group_IT_number       1

loop_
  _space_group_symop_operation_xyz
  'x, y, z'

loop_
  _atom_site_type_symbol
  _atom_site_label
  _atom_site_symmetry_multiplicity
  _atom_site_fract_x
  _atom_site_fract_y
  _atom_site_fract_z
  _atom_site_occupancy
  Ca  Ca1       1.0  0.029627718031406416  0.22099144756793973  0.8807570338249205  1.0000
  Mg  Mg1       1.0  0.9040411710739136  0.7325819134712219  0.8271567225456237  1.0000
  Mg  Mg2       1.0  0.9950003027915953  0.43522232770919794  0.5789768695831299  1.0000
  O   O1        1.0  0.006318954285234213  0.6165737509727478  0.05834613367915153  1.0000
  O   O2        1.0  0.7855077981948853  0.9044423699378966  0.6341314911842345  1.0000
  O   O3        1.0  0.9054913520812988  0.7561075687408447  0.301527202129364  1.0000
  O   O4        1.0  0.6507052779197693  0.6692715287208557  0.634960114955902  1.0000
  O   O5        1.0  0.28838053345680237  0.46780467033386225  0.7174836993217467  1.0000
  O   O6        1.0  0.4467729330062866  0.7523298859596252  0.5267206430435181  1.0000
  O   O7        1.0  0.4856074154376984  0.8973255157470702  0.11451632529497145  1.0000
  O   O8        1.0  0.010558467358350818  0.8399115800857543  0.0470375083386898  1.0000
  O   O9        1.0  0.7119957804679871  0.20895285904407498  0.9806499481201171  1.0000
  S   S1        1.0  0.11332258582115173  0.030535111203789708  0.728163719177246  1.0000
  S   S2        1.0  0.3090817630290985  0.7616379261016846  0.18679697811603543  1.0000
  S   S3        1.0  0.0014151334762573893  0.8735803961753844  0.29656440019607544  1.0000
  S   S4        1.0  0.7051292061805725  0.04139493778347969  0.23138965666294095  1.0000
  Tl  Tl1       1.0  0.6448400020599365  0.5485778450965881  0.25203946232795715  1.0000
