data_image0
_chemical_formula_structural       Ca2Mg2O11S2
_chemical_formula_sum              "Ca2 Mg2 O11 S2"
_cell_length_a       7.943977209404576
_cell_length_b       7.883759073014405
_cell_length_c       7.974387168884277
_cell_angle_alpha    58.785709737842545
_cell_angle_beta     59.700015240895155
_cell_angle_gamma    58.820601316451544

_space_group_name_H-M_alt    "P 1"
_space_group_IT_number       1

loop_
  _space_group_symop_operation_xyz
  'x, y, z'

loop_
  _atom_site_type_symbol
  _atom_site_label
  _atom_site_symmetry_multiplicity
  _atom_site_fract_x
  _atom_site_fract_y
  _atom_site_fract_z
  _atom_site_occupancy
  Ca  Ca1       1.0  0.7747264504432678  0.8918387293815613  0.5921483635902405  1.0000
  Ca  Ca2       1.0  0.14752201735973358  0.5302680134773254  0.9814131855964661  1.0000
  Mg  Mg1       1.0  0.4832512438297272  0.7358211278915405  0.26489195227622986  1.0000
  Mg  Mg2       1.0  0.20231249928474426  0.5213788747787476  0.33958756923675537  1.0000
  O   O1        1.0  0.11772441118955612  0.7327276468276978  0.23420222103595734  1.0000
  O   O2        1.0  0.5064020752906799  0.22340965270996094  0.6486638784408569  1.0000
  O   O3        1.0  0.795796811580658  0.3980121612548828  0.06116662174463272  1.0000
  O   O4        1.0  0.2015925496816635  0.966300368309021  0.4613116383552551  1.0000
  O   O5        1.0  0.8460102677345276  0.37420937418937683  0.41266927123069763  1.0000
  O   O6        1.0  0.8403635621070862  0.9203289151191711  0.9563961625099182  1.0000
  O   O7        1.0  0.2487371861934662  0.1539086550474167  0.8928842544555664  1.0000
  O   O8        1.0  0.7521228194236755  0.23503652215003967  0.1255598366260529  1.0000
  O   O9        1.0  0.8208185434341431  0.8837706446647644  0.5050964951515198  1.0000
  O   O10       1.0  0.6315050721168518  0.5509275197982788  0.6745817065238953  1.0000
  O   O11       1.0  0.20288844406604767  0.27656853199005127  0.266532838344574  1.0000
  S   S1        1.0  0.8853121995925903  0.20176589488983154  0.8036215305328369  1.0000
  S   S2        1.0  0.3855381906032562  0.17940180003643036  0.051990486681461334  1.0000
