data_image0
_chemical_formula_structural       CsRu5UZn2
_chemical_formula_sum              "Cs1 Ru5 U1 Zn2"
_cell_length_a       5.788960755923099
_cell_length_b       6.16483190945398
_cell_length_c       6.387413501739502
_cell_angle_alpha    63.88617869930681
_cell_angle_beta     63.16332550979855
_cell_angle_gamma    63.06434720957883

_space_group_name_H-M_alt    "P 1"
_space_group_IT_number       1

loop_
  _space_group_symop_operation_xyz
  'x, y, z'

loop_
  _atom_site_type_symbol
  _atom_site_label
  _atom_site_symmetry_multiplicity
  _atom_site_fract_x
  _atom_site_fract_y
  _atom_site_fract_z
  _atom_site_occupancy
  Cs  Cs1       1.0  0.08695806562900543  0.7541375160217285  0.2614514231681824  1.0000
  Ru  Ru1       1.0  0.07656113803386688  0.4372333586215973  0.0554011762142181  1.0000
  Ru  Ru2       1.0  0.4172004461288452  0.7740123867988586  0.9826049208641051  1.0000
  Ru  Ru3       1.0  0.03354019299149513  0.7584897875785828  0.7732912898063659  1.0000
  Ru  Ru4       1.0  0.40435007214546204  0.2526679039001465  0.5289959907531738  1.0000
  Ru  Ru5       1.0  0.7622117400169373  0.24897611141204837  0.7438870072364806  1.0000
  U   U1        1.0  0.4350411295890808  0.2583462595939636  0.24824556708335874  1.0000
  Zn  Zn1       1.0  0.7452023029327393  0.48683264851570135  0.04609088227152824  1.0000
  Zn  Zn2       1.0  0.7459015250205994  0.7706469297409058  0.5431087613105774  1.0000
