data_image0
_chemical_formula_structural       H2Ru3Zn4
_chemical_formula_sum              "H2 Ru3 Zn4"
_cell_length_a       5.357317436401068
_cell_length_b       5.326806091222874
_cell_length_c       6.057948112487793
_cell_angle_alpha    65.55582377610808
_cell_angle_beta     65.7948139568027
_cell_angle_gamma    61.70170588542233

_space_group_name_H-M_alt    "P 1"
_space_group_IT_number       1

loop_
  _space_group_symop_operation_xyz
  'x, y, z'

loop_
  _atom_site_type_symbol
  _atom_site_label
  _atom_site_symmetry_multiplicity
  _atom_site_fract_x
  _atom_site_fract_y
  _atom_site_fract_z
  _atom_site_occupancy
  H   H1        1.0  0.7737385630607605  0.47161245346069336  0.6800748109817505  1.0000
  H   H2        1.0  0.24936038255691528  0.4974657893180847  0.21269887685775757  1.0000
  Ru  Ru1       1.0  0.2641381621360779  0.5049355030059814  0.7331023216247559  1.0000
  Ru  Ru2       1.0  0.24865275621414185  0.5466631054878235  0.42350563406944275  1.0000
  Ru  Ru3       1.0  0.6839454174041748  0.5323306918144226  0.5760661959648132  1.0000
  Zn  Zn1       1.0  0.7645589709281921  0.7077388763427734  0.2466239631175995  1.0000
  Zn  Zn2       1.0  0.8738529086112976  0.12539421021938324  0.9180683493614197  1.0000
  Zn  Zn3       1.0  0.39285147190093994  0.8871700763702393  0.47722944617271423  1.0000
  Zn  Zn4       1.0  0.41136521100997925  0.85965496301651  0.6731575131416321  1.0000
