data_image0
_chemical_formula_structural       Cs2NiRu4Zn2
_chemical_formula_sum              "Cs2 Ni1 Ru4 Zn2"
_cell_length_a       4.279079694475899
_cell_length_b       6.578107879702465
_cell_length_c       6.382794380187988
_cell_angle_alpha    121.26358858494808
_cell_angle_beta     90.53727209619696
_cell_angle_gamma    90.56399287159394

_space_group_name_H-M_alt    "P 1"
_space_group_IT_number       1

loop_
  _space_group_symop_operation_xyz
  'x, y, z'

loop_
  _atom_site_type_symbol
  _atom_site_label
  _atom_site_symmetry_multiplicity
  _atom_site_fract_x
  _atom_site_fract_y
  _atom_site_fract_z
  _atom_site_occupancy
  Cs  Cs1       1.0  0.761320173740387  0.8735569715499878  0.3782548904418946  1.0000
  Cs  Cs2       1.0  0.267679363489151  0.3764515519142151  0.007926790975034237  1.0000
  Ni  Ni1       1.0  0.26939892768859863  0.6512483954429626  0.15462198853492737  1.0000
  Ru  Ru1       1.0  0.2640812397003174  0.8989517688751221  0.7708711624145508  1.0000
  Ru  Ru2       1.0  0.7746097445487976  0.35599303245544434  0.8992837071418762  1.0000
  Ru  Ru3       1.0  0.2702004015445709  0.5974419116973877  0.5208513140678406  1.0000
  Ru  Ru4       1.0  0.769178569316864  0.986890137195587  0.3946181833744049  1.0000
  Zn  Zn1       1.0  0.7672192454338074  0.36195114254951477  0.6083893775939941  1.0000
  Zn  Zn2       1.0  0.2704848051071167  0.1985894739627838  0.2096530646085739  1.0000
