data_image0
_chemical_formula_structural       AlCs3Ru3Zn2
_chemical_formula_sum              "Al1 Cs3 Ru3 Zn2"
_cell_length_a       5.6266953092047
_cell_length_b       6.27096122854389
_cell_length_c       7.054084300994873
_cell_angle_alpha    73.88945490262445
_cell_angle_beta     64.5173380420495
_cell_angle_gamma    65.25469776663469

_space_group_name_H-M_alt    "P 1"
_space_group_IT_number       1

loop_
  _space_group_symop_operation_xyz
  'x, y, z'

loop_
  _atom_site_type_symbol
  _atom_site_label
  _atom_site_symmetry_multiplicity
  _atom_site_fract_x
  _atom_site_fract_y
  _atom_site_fract_z
  _atom_site_occupancy
  Al  Al1       1.0  0.09938811510801324  0.9703470468521117  0.8162876963615417  1.0000
  Cs  Cs1       1.0  0.9766292572021484  0.5117936730384827  0.9423848986625671  1.0000
  Cs  Cs2       1.0  0.484661340713501  0.5138988494873047  0.5780398845672607  1.0000
  Cs  Cs3       1.0  0.9880139827728271  0.5034424662590027  0.7019181847572327  1.0000
  Ru  Ru1       1.0  0.7521232366561891  0.9632045626640319  0.36168918013572693  1.0000
  Ru  Ru2       1.0  0.5809593796730042  0.8894975185394286  0.5880932807922363  1.0000
  Ru  Ru3       1.0  0.20548680424690247  0.2123037278652191  0.08815436065196991  1.0000
  Zn  Zn1       1.0  0.47524696588516235  0.4140759408473968  0.9634411334991455  1.0000
  Zn  Zn2       1.0  0.8435882925987244  0.15806005895137787  0.2954026758670807  1.0000
