data_image0
_chemical_formula_structural       PrRu7Zn
_chemical_formula_sum              "Pr1 Ru7 Zn1"
_cell_length_a       4.355962088737825
_cell_length_b       6.683693160853712
_cell_length_c       6.647903919219971
_cell_angle_alpha    125.26376217786823
_cell_angle_beta     89.07766443069137
_cell_angle_gamma    91.7034318693148

_space_group_name_H-M_alt    "P 1"
_space_group_IT_number       1

loop_
  _space_group_symop_operation_xyz
  'x, y, z'

loop_
  _atom_site_type_symbol
  _atom_site_label
  _atom_site_symmetry_multiplicity
  _atom_site_fract_x
  _atom_site_fract_y
  _atom_site_fract_z
  _atom_site_occupancy
  Pr  Pr1       1.0  0.6280432939529419  0.22191448509693146  0.07050739228725435  1.0000
  Ru  Ru1       1.0  0.6305541396141052  0.6999907493591309  0.4025398790836334  1.0000
  Ru  Ru2       1.0  0.13028360903263092  0.9337977170944214  0.2600581645965576  1.0000
  Ru  Ru3       1.0  0.12749336659908295  0.7636242508888245  0.24943296611309057  1.0000
  Ru  Ru4       1.0  0.619834840297699  0.6229495406150818  0.8764558434486389  1.0000
  Ru  Ru5       1.0  0.13275356590747833  0.6468157172203064  0.8333837985992432  1.0000
  Ru  Ru6       1.0  0.1375841200351715  0.14780010282993317  0.5907244682312012  1.0000
  Ru  Ru7       1.0  0.6295380592346191  0.5097907781600952  0.3518202006816864  1.0000
  Zn  Zn1       1.0  0.13741151988506317  0.37504664063453674  0.9402331113815308  1.0000
