data_image0
_chemical_formula_structural       NaPrRu6Zn
_chemical_formula_sum              "Na1 Pr1 Ru6 Zn1"
_cell_length_a       4.530739223538389
_cell_length_b       6.8179956829326045
_cell_length_c       6.713631629943848
_cell_angle_alpha    125.75075885215206
_cell_angle_beta     91.23573519245912
_cell_angle_gamma    91.56263997851637

_space_group_name_H-M_alt    "P 1"
_space_group_IT_number       1

loop_
  _space_group_symop_operation_xyz
  'x, y, z'

loop_
  _atom_site_type_symbol
  _atom_site_label
  _atom_site_symmetry_multiplicity
  _atom_site_fract_x
  _atom_site_fract_y
  _atom_site_fract_z
  _atom_site_occupancy
  Na  Na1       1.0  0.5545126795768738  0.24651497602462766  0.7406917214393616  1.0000
  Pr  Pr1       1.0  0.5426796674728394  0.6827491521835327  0.47186493873596197  1.0000
  Ru  Ru1       1.0  0.0515567809343338  0.044196680188179016  0.03144942224025727  1.0000
  Ru  Ru2       1.0  0.0507933646440506  0.23394678533077237  0.17367957532405853  1.0000
  Ru  Ru3       1.0  0.04850465804338455  0.7500838041305542  0.18482182919979095  1.0000
  Ru  Ru4       1.0  0.5431060194969177  0.7328190207481384  0.6766235828399658  1.0000
  Ru  Ru5       1.0  0.05213790014386177  0.20697276294231412  0.6744059324264526  1.0000
  Ru  Ru6       1.0  0.04774977266788482  0.9932699799537658  0.6670014262199402  1.0000
  Zn  Zn1       1.0  0.5418964624404907  0.6256869435310364  0.19980724155902865  1.0000
