data_image0
_chemical_formula_structural       Ca2FO3PbZr3
_chemical_formula_sum              "Ca2 F1 O3 Pb1 Zr3"
_cell_length_a       6.592471646397308
_cell_length_b       4.650863325796429
_cell_length_c       5.489840030670166
_cell_angle_alpha    63.17283224946565
_cell_angle_beta     55.925844692539954
_cell_angle_gamma    38.6986561224796

_space_group_name_H-M_alt    "P 1"
_space_group_IT_number       1

loop_
  _space_group_symop_operation_xyz
  'x, y, z'

loop_
  _atom_site_type_symbol
  _atom_site_label
  _atom_site_symmetry_multiplicity
  _atom_site_fract_x
  _atom_site_fract_y
  _atom_site_fract_z
  _atom_site_occupancy
  Ca  Ca1       1.0  0.623258650302887  0.3254239559173584  0.6077271103858949  1.0000
  Ca  Ca2       1.0  0.205016627907753  0.2933061718940735  0.5866880416870117  1.0000
  F   F1        1.0  0.7989435195922852  0.031942933797836304  0.1760171204805375  1.0000
  O   O1        1.0  0.16113030910491935  0.793424427509308  0.39949077367782604  1.0000
  O   O2        1.0  0.7865716814994812  0.5029109120368958  0.8975769877433777  1.0000
  O   O3        1.0  0.28376495838165283  0.6670387387275696  0.7974488735198975  1.0000
  Pb  Pb1       1.0  0.8259182572364807  0.16586744785308838  0.9012101292610168  1.0000
  Zr  Zr1       1.0  0.4662809371948241  0.80304753780365  0.5735623836517334  1.0000
  Zr  Zr2       1.0  0.6243836879730223  0.857235610485077  0.3834579288959503  1.0000
  Zr  Zr3       1.0  0.8848801851272583  0.4149711728096009  0.05807474628090875  1.0000
