data_image0
_chemical_formula_structural       Ca6O3Zr
_chemical_formula_sum              "Ca6 O3 Zr1"
_cell_length_a       6.634801977918288
_cell_length_b       6.022194939477338
_cell_length_c       6.472118854522705
_cell_angle_alpha    56.86144861681328
_cell_angle_beta     62.01165018993553
_cell_angle_gamma    56.78306861051375

_space_group_name_H-M_alt    "P 1"
_space_group_IT_number       1

loop_
  _space_group_symop_operation_xyz
  'x, y, z'

loop_
  _atom_site_type_symbol
  _atom_site_label
  _atom_site_symmetry_multiplicity
  _atom_site_fract_x
  _atom_site_fract_y
  _atom_site_fract_z
  _atom_site_occupancy
  Ca  Ca1       1.0  0.8814980387687682  0.1413155496120453  0.9448598027229309  1.0000
  Ca  Ca2       1.0  0.7910268902778624  0.5816993117332458  0.2612064480781555  1.0000
  Ca  Ca3       1.0  0.2838212549686432  0.5615951418876648  0.8604867458343506  1.0000
  Ca  Ca4       1.0  0.3089781403541565  0.38208168745040894  0.5747916102409363  1.0000
  Ca  Ca5       1.0  0.7806183099746704  0.7464953660964966  0.9571239352226257  1.0000
  Ca  Ca6       1.0  0.28538691997528076  0.9779415130615234  0.4585857391357422  1.0000
  O   O1        1.0  0.6176679134368896  0.05229673907160759  0.019552312791347504  1.0000
  O   O2        1.0  0.7645073533058167  0.8578513264656067  0.004302908200770582  1.0000
  O   O3        1.0  0.6774690747261047  0.5668485164642334  0.9368875622749329  1.0000
  Zr  Zr1       1.0  0.2895784378051758  0.5722957849502563  0.6768807768821716  1.0000
