data_image0
_chemical_formula_structural       Ca2IO3Si4
_chemical_formula_sum              "Ca2 I1 O3 Si4"
_cell_length_a       6.690963350938651
_cell_length_b       6.755930049381559
_cell_length_c       7.1398210525512695
_cell_angle_alpha    63.830558659667794
_cell_angle_beta     65.44097179841131
_cell_angle_gamma    63.368662047918505

_space_group_name_H-M_alt    "P 1"
_space_group_IT_number       1

loop_
  _space_group_symop_operation_xyz
  'x, y, z'

loop_
  _atom_site_type_symbol
  _atom_site_label
  _atom_site_symmetry_multiplicity
  _atom_site_fract_x
  _atom_site_fract_y
  _atom_site_fract_z
  _atom_site_occupancy
  Ca  Ca1       1.0  0.1945616453886032  0.9726888537406921  0.7427381873130798  1.0000
  Ca  Ca2       1.0  0.5496087670326233  0.9196045994758606  0.2908244729042053  1.0000
  I   I1        1.0  0.9367361068725587  0.7521333694458008  0.803807258605957  1.0000
  O   O1        1.0  0.668716311454773  0.1519147902727127  0.5016636848449707  1.0000
  O   O2        1.0  0.05705273151397706  0.31547218561172485  0.8458117246627808  1.0000
  O   O3        1.0  0.5496402978897095  0.8509169220924377  0.6189558506011963  1.0000
  Si  Si1       1.0  0.9436733126640321  0.979583740234375  0.7627158761024475  1.0000
  Si  Si2       1.0  0.10504498332738876  0.6928481459617615  0.10058736801147461  1.0000
  Si  Si3       1.0  0.567835807800293  0.6576728820800781  0.6133941411972046  1.0000
  Si  Si4       1.0  0.4718258976936341  0.9597522020339966  0.5614100098609924  1.0000
