data_image0
_chemical_formula_structural       Ca4O2Si4
_chemical_formula_sum              "Ca4 O2 Si4"
_cell_length_a       6.134240225387892
_cell_length_b       5.928288364262484
_cell_length_c       6.265644550323486
_cell_angle_alpha    63.73769677109302
_cell_angle_beta     67.36538333911616
_cell_angle_gamma    68.11688838422438

_space_group_name_H-M_alt    "P 1"
_space_group_IT_number       1

loop_
  _space_group_symop_operation_xyz
  'x, y, z'

loop_
  _atom_site_type_symbol
  _atom_site_label
  _atom_site_symmetry_multiplicity
  _atom_site_fract_x
  _atom_site_fract_y
  _atom_site_fract_z
  _atom_site_occupancy
  Ca  Ca1       1.0  0.7828977704048157  0.6614936590194702  0.7244399189949036  1.0000
  Ca  Ca2       1.0  0.2859742045402527  0.48074746131896967  0.6368968486785889  1.0000
  Ca  Ca3       1.0  0.7843987941741943  0.5076183080673218  0.45478612184524536  1.0000
  Ca  Ca4       1.0  0.2963828146457672  0.050447847694158554  0.5723440647125244  1.0000
  O   O1        1.0  0.30879583954811096  0.8472087979316711  0.14905762672424316  1.0000
  O   O2        1.0  0.3115430772304535  0.6335367560386658  0.42251843214035034  1.0000
  Si  Si1       1.0  0.2923569679260254  0.7992379665374756  0.06481517851352692  1.0000
  Si  Si2       1.0  0.2745286822319031  0.60823655128479  0.03423938900232315  1.0000
  Si  Si3       1.0  0.7959963083267212  0.9113799333572388  0.6356335878372192  1.0000
  Si  Si4       1.0  0.7997361421585083  0.5322665572166443  0.12866508960723877  1.0000
