data_image0
_chemical_formula_structural       Ca5O3Si2
_chemical_formula_sum              "Ca5 O3 Si2"
_cell_length_a       5.256052349416026
_cell_length_b       5.098094321173128
_cell_length_c       8.069296836853027
_cell_angle_alpha    89.57863295755345
_cell_angle_beta     88.64843070813568
_cell_angle_gamma    114.55210204982819

_space_group_name_H-M_alt    "P 1"
_space_group_IT_number       1

loop_
  _space_group_symop_operation_xyz
  'x, y, z'

loop_
  _atom_site_type_symbol
  _atom_site_label
  _atom_site_symmetry_multiplicity
  _atom_site_fract_x
  _atom_site_fract_y
  _atom_site_fract_z
  _atom_site_occupancy
  Ca  Ca1       1.0  0.9896386861801147  0.0023644710890948772  0.12433283776044848  1.0000
  Ca  Ca2       1.0  0.9896935224533081  0.45381373167037964  0.452343612909317  1.0000
  Ca  Ca3       1.0  0.48607468605041504  0.8713574409484863  0.06415849179029465  1.0000
  Ca  Ca4       1.0  0.48142388463020325  0.1824316382408142  0.20737585425376892  1.0000
  Ca  Ca5       1.0  0.4865119755268097  0.563641369342804  0.2786322832107544  1.0000
  O   O1        1.0  0.7903668880462646  0.17253592610359192  0.826659619808197  1.0000
  O   O2        1.0  0.9847232103347778  0.7287982702255249  0.09576411545276642  1.0000
  O   O3        1.0  0.6684699058532715  0.6704182028770447  0.4505465626716614  1.0000
  Si  Si1       1.0  0.5004285573959351  0.153616800904274  0.8293280601501465  1.0000
  Si  Si2       1.0  0.9948946833610535  0.9445778727531433  0.15108555555343628  1.0000
