data_image0
_chemical_formula_structural       Ca6O2Si2
_chemical_formula_sum              "Ca6 O2 Si2"
_cell_length_a       6.506372326219471
_cell_length_b       6.0631515038683625
_cell_length_c       6.262859344482422
_cell_angle_alpha    66.62137844385465
_cell_angle_beta     61.62381662809826
_cell_angle_gamma    61.59913618361674

_space_group_name_H-M_alt    "P 1"
_space_group_IT_number       1

loop_
  _space_group_symop_operation_xyz
  'x, y, z'

loop_
  _atom_site_type_symbol
  _atom_site_label
  _atom_site_symmetry_multiplicity
  _atom_site_fract_x
  _atom_site_fract_y
  _atom_site_fract_z
  _atom_site_occupancy
  Ca  Ca1       1.0  0.5191555619239807  0.2289082407951355  0.5582828521728516  1.0000
  Ca  Ca2       1.0  0.2747045159339905  0.4285527467727661  0.4626117050647735  1.0000
  Ca  Ca3       1.0  0.262674480676651  0.49873602390289307  0.7212724089622498  1.0000
  Ca  Ca4       1.0  0.9629966616630554  0.5647190809249878  0.386592835187912  1.0000
  Ca  Ca5       1.0  0.2855507731437683  0.05798681080341339  0.4187918007373809  1.0000
  Ca  Ca6       1.0  0.7602936029434204  0.5410432815551758  0.12653283774852753  1.0000
  O   O1        1.0  0.32475191354751587  0.8835350871086121  0.8006844520568848  1.0000
  O   O2        1.0  0.7619326114654541  0.7607833743095398  0.7502566576004028  1.0000
  Si  Si1       1.0  0.7617815732955933  0.3962378203868866  0.6671535968780518  1.0000
  Si  Si2       1.0  0.9626708030700684  0.4699103832244873  0.657815158367157  1.0000
