data_image0
_chemical_formula_structural       FK5P3
_chemical_formula_sum              "F1 K5 P3"
_cell_length_a       6.397810162824356
_cell_length_b       6.904944653578495
_cell_length_c       9.065601348876953
_cell_angle_alpha    90.75032658440257
_cell_angle_beta     88.38474481235629
_cell_angle_gamma    116.44719962416002

_space_group_name_H-M_alt    "P 1"
_space_group_IT_number       1

loop_
  _space_group_symop_operation_xyz
  'x, y, z'

loop_
  _atom_site_type_symbol
  _atom_site_label
  _atom_site_symmetry_multiplicity
  _atom_site_fract_x
  _atom_site_fract_y
  _atom_site_fract_z
  _atom_site_occupancy
  F   F1        1.0  0.7135260701179504  0.837105929851532  0.06903557479381561  1.0000
  K   K1        1.0  0.613100528717041  0.9240179061889648  0.6895936131477356  1.0000
  K   K2        1.0  0.4471812844276428  0.1129753515124321  0.9034081697463989  1.0000
  K   K3        1.0  0.9379473328590393  0.6493202447891235  0.7890864610671997  1.0000
  K   K4        1.0  0.6655200123786926  0.6039754152297974  0.7817962765693665  1.0000
  K   K5        1.0  0.1970326453447342  0.620530903339386  0.5952451825141907  1.0000
  P   P1        1.0  0.6407191157341003  0.93874591588974  0.2912765443325043  1.0000
  P   P2        1.0  0.2096228152513504  0.9778801798820496  0.7888460755348206  1.0000
  P   P3        1.0  0.1544429063796997  0.17162635922431946  0.2861466109752655  1.0000
