data_image0
_chemical_formula_structural       F2K4LuPPb
_chemical_formula_sum              "F2 K4 Lu1 P1 Pb1"
_cell_length_a       5.479039417987035
_cell_length_b       6.516892657240778
_cell_length_c       8.61306095123291
_cell_angle_alpha    89.18761722583982
_cell_angle_beta     90.10816000133559
_cell_angle_gamma    112.92172387972552

_space_group_name_H-M_alt    "P 1"
_space_group_IT_number       1

loop_
  _space_group_symop_operation_xyz
  'x, y, z'

loop_
  _atom_site_type_symbol
  _atom_site_label
  _atom_site_symmetry_multiplicity
  _atom_site_fract_x
  _atom_site_fract_y
  _atom_site_fract_z
  _atom_site_occupancy
  F   F1        1.0  0.31097421050071716  0.12058676034212112  0.03382118418812752  1.0000
  F   F2        1.0  0.32537728548049927  0.23372943699359894  0.30286675691604614  1.0000
  K   K1        1.0  0.6239328980445862  0.10596611350774765  0.5285671949386597  1.0000
  K   K2        1.0  0.8637678027153015  0.6056389212608337  0.5412933230400085  1.0000
  K   K3        1.0  0.10170816630125046  0.5886574387550354  0.29673653841018677  1.0000
  K   K4        1.0  0.33575308322906494  0.14561434090137482  0.8045186400413513  1.0000
  Lu  Lu1       1.0  0.29381200671195984  0.21043336391448975  0.5477725267410278  1.0000
  P   P1        1.0  0.33671805262565613  0.43041855096817017  0.2999774217605591  1.0000
  Pb  Pb1       1.0  0.8469566702842712  0.8916288018226624  0.8026530146598816  1.0000
