data_image0
_chemical_formula_structural       F3K3PPbV
_chemical_formula_sum              "F3 K3 P1 Pb1 V1"
_cell_length_a       5.390987445444407
_cell_length_b       6.125025468922772
_cell_length_c       8.387224197387695
_cell_angle_alpha    89.59845448855503
_cell_angle_beta     88.75940967019197
_cell_angle_gamma    119.01373349138919

_space_group_name_H-M_alt    "P 1"
_space_group_IT_number       1

loop_
  _space_group_symop_operation_xyz
  'x, y, z'

loop_
  _atom_site_type_symbol
  _atom_site_label
  _atom_site_symmetry_multiplicity
  _atom_site_fract_x
  _atom_site_fract_y
  _atom_site_fract_z
  _atom_site_occupancy
  F   F1        1.0  0.0030104280449450016  0.6125338077545166  0.29011785984039307  1.0000
  F   F2        1.0  0.2226739376783371  0.2970883548259735  0.8834890127182007  1.0000
  F   F3        1.0  0.5110200643539429  0.5521115064620972  0.1230359822511673  1.0000
  K   K1        1.0  0.4796926975250244  0.6297050714492798  0.5987027287483215  1.0000
  K   K2        1.0  0.12341596931219101  0.8938171863555908  0.5809396505355835  1.0000
  K   K3        1.0  0.6188634634017944  0.9565348029136658  0.5702329277992249  1.0000
  P   P1        1.0  0.5177813768386841  0.07669238746166229  0.7314791083335876  1.0000
  Pb  Pb1       1.0  0.8160437941551208  0.13580147922039032  0.6141034364700317  1.0000
  V   V1        1.0  0.5081121325492859  0.08438250422477722  0.07397539913654327  1.0000
