data_image0
_chemical_formula_structural       F6KPb2
_chemical_formula_sum              "F6 K1 Pb2"
_cell_length_a       6.956650489316589
_cell_length_b       7.334748994746765
_cell_length_c       7.988609790802002
_cell_angle_alpha    88.86786800814488
_cell_angle_beta     90.02586865656393
_cell_angle_gamma    123.03640329628442

_space_group_name_H-M_alt    "P 1"
_space_group_IT_number       1

loop_
  _space_group_symop_operation_xyz
  'x, y, z'

loop_
  _atom_site_type_symbol
  _atom_site_label
  _atom_site_symmetry_multiplicity
  _atom_site_fract_x
  _atom_site_fract_y
  _atom_site_fract_z
  _atom_site_occupancy
  F   F1        1.0  0.018993746489286423  0.2872066795825958  0.9353687763214111  1.0000
  F   F2        1.0  0.3654225468635559  0.7159367799758911  0.4430820047855377  1.0000
  F   F3        1.0  0.7232871651649475  0.47736984491348267  0.7068050503730774  1.0000
  F   F4        1.0  0.3586326539516449  0.7730472683906555  0.39928483963012695  1.0000
  F   F5        1.0  0.6951067447662354  0.2346315234899521  0.7815889120101929  1.0000
  F   F6        1.0  0.03171633183956146  0.29309138655662537  0.2617763876914978  1.0000
  K   K1        1.0  0.0897022932767868  0.8564624190330505  0.10018378496170044  1.0000
  Pb  Pb1       1.0  0.3640143573284149  0.7139183878898621  0.7772126197814941  1.0000
  Pb  Pb2       1.0  0.04117082431912422  0.33402377367019653  0.9651728868484497  1.0000
