data_image0
_chemical_formula_structural       F4K3P2
_chemical_formula_sum              "F4 K3 P2"
_cell_length_a       5.661642127608004
_cell_length_b       6.3043798823879635
_cell_length_c       9.117351531982422
_cell_angle_alpha    89.51439536680934
_cell_angle_beta     89.14851847675367
_cell_angle_gamma    118.57722769975348

_space_group_name_H-M_alt    "P 1"
_space_group_IT_number       1

loop_
  _space_group_symop_operation_xyz
  'x, y, z'

loop_
  _atom_site_type_symbol
  _atom_site_label
  _atom_site_symmetry_multiplicity
  _atom_site_fract_x
  _atom_site_fract_y
  _atom_site_fract_z
  _atom_site_occupancy
  F   F1        1.0  0.9699453115463258  0.03295167163014412  0.03862399235367775  1.0000
  F   F2        1.0  0.6544650197029114  0.8740224242210388  0.2843322157859802  1.0000
  F   F3        1.0  0.3002907633781433  0.5151475071907043  0.22409723699092865  1.0000
  F   F4        1.0  0.65848708152771  0.37164628505706787  0.2858779728412628  1.0000
  K   K1        1.0  0.803620994091034  0.33883199095726013  0.7303255796432495  1.0000
  K   K2        1.0  0.3418583571910858  0.3965626657009125  0.78300541639328  1.0000
  K   K3        1.0  0.46345451474189764  0.7271132469177246  0.044294606894254684  1.0000
  P   P1        1.0  0.3005352318286896  0.02080182172358036  0.9617674350738525  1.0000
  P   P2        1.0  0.979940950870514  0.7176027894020081  0.05398177728056908  1.0000
