data_image0
_chemical_formula_structural       GeIP2PtSbV2Zr
_chemical_formula_sum              "Ge1 I1 P2 Pt1 Sb1 V2 Zr1"
_cell_length_a       4.556075510793681
_cell_length_b       5.699339786893388
_cell_length_c       6.572483062744141
_cell_angle_alpha    120.02156815608201
_cell_angle_beta     89.76868088641976
_cell_angle_gamma    91.2375537187006

_space_group_name_H-M_alt    "P 1"
_space_group_IT_number       1

loop_
  _space_group_symop_operation_xyz
  'x, y, z'

loop_
  _atom_site_type_symbol
  _atom_site_label
  _atom_site_symmetry_multiplicity
  _atom_site_fract_x
  _atom_site_fract_y
  _atom_site_fract_z
  _atom_site_occupancy
  Ge  Ge1       1.0  0.21669363975524902  0.9180052280426025  0.8152189254760743  1.0000
  I   I1        1.0  0.7138755917549133  0.7245514392852783  0.7791237235069276  1.0000
  P   P1        1.0  0.714163064956665  0.20872314274311066  0.09857135266065599  1.0000
  P   P2        1.0  0.21336479485034943  0.3670709431171417  0.9525606036186219  1.0000
  Pt  Pt1       1.0  0.715518057346344  0.98009192943573  0.3200725913047791  1.0000
  Sb  Sb1       1.0  0.710761308670044  0.46745583415031433  0.5459828972816467  1.0000
  V   V1        1.0  0.708785891532898  0.6436832547187805  0.27470067143440247  1.0000
  V   V2        1.0  0.2150796353816986  0.5801921486854553  0.7193239331245423  1.0000
  Zr  Zr1       1.0  0.7135289907455444  0.9349852204322815  0.7171686291694642  1.0000
