data_image0
_chemical_formula_structural       DyOSb5VYb
_chemical_formula_sum              "Dy1 O1 Sb5 V1 Yb1"
_cell_length_a       5.553049981729258
_cell_length_b       5.829969532536796
_cell_length_c       6.469773769378662
_cell_angle_alpha    117.16069746738589
_cell_angle_beta     115.538360871352
_cell_angle_gamma    100.69984963107238

_space_group_name_H-M_alt    "P 1"
_space_group_IT_number       1

loop_
  _space_group_symop_operation_xyz
  'x, y, z'

loop_
  _atom_site_type_symbol
  _atom_site_label
  _atom_site_symmetry_multiplicity
  _atom_site_fract_x
  _atom_site_fract_y
  _atom_site_fract_z
  _atom_site_occupancy
  Dy  Dy1       1.0  0.14767687022686005  0.8326727151870728  0.6017006635665895  1.0000
  O   O1        1.0  0.5068842172622681  0.4866146445274353  0.21391572058200836  1.0000
  Sb  Sb1       1.0  0.6353945732116699  0.7202146649360657  0.043645624071359704  1.0000
  Sb  Sb2       1.0  0.6565283536911011  0.26807889342308044  0.746996283531189  1.0000
  Sb  Sb3       1.0  0.6581605076789856  0.022183090448379517  0.7421637773513794  1.0000
  Sb  Sb4       1.0  0.16117805242538452  0.9993520975112915  0.8559146523475647  1.0000
  Sb  Sb5       1.0  0.6554043889045715  0.2347210794687271  0.9904344677925111  1.0000
  V   V1        1.0  0.1506929099559784  0.6099267601966858  0.42438146471977234  1.0000
  Yb  Yb1       1.0  0.16156518459320068  0.822610080242157  0.36713239550590526  1.0000
