data_image0
_chemical_formula_structural       Ca8I2P
_chemical_formula_sum              "Ca8 I2 P1"
_cell_length_a       4.9698236325086
_cell_length_b       4.746151571686318
_cell_length_c       14.185161590576172
_cell_angle_alpha    98.61921611591812
_cell_angle_beta     89.83243766622603
_cell_angle_gamma    73.83822866076784

_space_group_name_H-M_alt    "P 1"
_space_group_IT_number       1

loop_
  _space_group_symop_operation_xyz
  'x, y, z'

loop_
  _atom_site_type_symbol
  _atom_site_label
  _atom_site_symmetry_multiplicity
  _atom_site_fract_x
  _atom_site_fract_y
  _atom_site_fract_z
  _atom_site_occupancy
  Ca  Ca1       1.0  0.18356603384017944  0.3163222670555115  0.46764406561851496  1.0000
  Ca  Ca2       1.0  0.18721738457679749  0.9863099455833435  0.2587380111217499  1.0000
  Ca  Ca3       1.0  0.18648093938827515  0.07541047036647797  0.5462298393249512  1.0000
  Ca  Ca4       1.0  0.18574278056621552  0.3011094331741333  0.916437804698944  1.0000
  Ca  Ca5       1.0  0.6879934668540955  0.16853944957256317  0.23004564642906186  1.0000
  Ca  Ca6       1.0  0.18766659498214722  0.40436241030693054  0.6868160963058472  1.0000
  Ca  Ca7       1.0  0.18438152968883514  0.570367693901062  0.5789222717285156  1.0000
  Ca  Ca8       1.0  0.6875287294387817  0.6729341745376587  0.6758686304092407  1.0000
  I   I1        1.0  0.6836742758750916  0.4608023166656494  0.3824557960033416  1.0000
  I   I2        1.0  0.6717426776885986  0.46114209294319153  0.49945986270904535  1.0000
  P   P1        1.0  0.6857108473777771  0.9258549213409424  0.8579723238945006  1.0000
