data_image0
_chemical_formula_structural       Ca4I2PbPt2RbZn
_chemical_formula_sum              "Ca4 I2 Pb1 Pt2 Rb1 Zn1"
_cell_length_a       6.181818723546265
_cell_length_b       5.54723242373623
_cell_length_c       8.65109920501709
_cell_angle_alpha    103.29334778462405
_cell_angle_beta     100.41122014981232
_cell_angle_gamma    114.95102007895825

_space_group_name_H-M_alt    "P 1"
_space_group_IT_number       1

loop_
  _space_group_symop_operation_xyz
  'x, y, z'

loop_
  _atom_site_type_symbol
  _atom_site_label
  _atom_site_symmetry_multiplicity
  _atom_site_fract_x
  _atom_site_fract_y
  _atom_site_fract_z
  _atom_site_occupancy
  Ca  Ca1       1.0  0.3738248944282531  0.3785460889339447  0.22162930667400357  1.0000
  Ca  Ca2       1.0  0.8595519065856932  0.4097253084182739  0.4960460364818573  1.0000
  Ca  Ca3       1.0  0.1372559666633606  0.370191365480423  0.6423666477203369  1.0000
  Ca  Ca4       1.0  0.38905793428421015  0.5650860071182251  0.7411313056945801  1.0000
  I   I1        1.0  0.8799218535423278  0.6571241021156311  0.11569717526435852  1.0000
  I   I2        1.0  0.8786165714263915  0.21543553471565247  0.0170185714960098  1.0000
  Pb  Pb1       1.0  0.6000665426254272  0.4550812244415283  0.5149041414260864  1.0000
  Pt  Pt1       1.0  0.3647818565368652  0.7237426042556763  0.42162561416625977  1.0000
  Pt  Pt2       1.0  0.8873785138130187  0.16502346098423004  0.02739899232983589  1.0000
  Rb  Rb1       1.0  0.4145615696907043  0.8399486541748047  0.5750991702079773  1.0000
  Zn  Zn1       1.0  0.868971824645996  0.5053067803382874  0.9942691326141357  1.0000
