data_image0
_chemical_formula_structural       Ca8IPtTb
_chemical_formula_sum              "Ca8 I1 Pt1 Tb1"
_cell_length_a       6.236516936813002
_cell_length_b       6.638540583438843
_cell_length_c       8.436598777770996
_cell_angle_alpha    77.03846897855757
_cell_angle_beta     79.46112363653415
_cell_angle_gamma    80.93399098514948

_space_group_name_H-M_alt    "P 1"
_space_group_IT_number       1

loop_
  _space_group_symop_operation_xyz
  'x, y, z'

loop_
  _atom_site_type_symbol
  _atom_site_label
  _atom_site_symmetry_multiplicity
  _atom_site_fract_x
  _atom_site_fract_y
  _atom_site_fract_z
  _atom_site_occupancy
  Ca  Ca1       1.0  0.42161667346954346  0.5882207751274109  0.4829936623573303  1.0000
  Ca  Ca2       1.0  0.42305395007133484  0.9419568777084351  0.784367561340332  1.0000
  Ca  Ca3       1.0  0.9237879514694214  0.9642346501350403  0.7138801217079163  1.0000
  Ca  Ca4       1.0  0.9295158982276917  0.5782150626182556  0.5164058804512024  1.0000
  Ca  Ca5       1.0  0.4206162691116333  0.18144698441028595  0.028932254761457443  1.0000
  Ca  Ca6       1.0  0.927666187286377  0.535617470741272  0.547062873840332  1.0000
  Ca  Ca7       1.0  0.9185920357704163  0.9990227222442627  0.8917919993400574  1.0000
  Ca  Ca8       1.0  0.4215995669364929  0.5356647372245789  0.41981709003448486  1.0000
  I   I1        1.0  0.42168763279914856  0.373931348323822  0.4701414108276367  1.0000
  Pt  Pt1       1.0  0.4216997027397156  0.6721681356430054  0.01190812885761261  1.0000
  Tb  Tb1       1.0  0.4277878403663635  0.6366364359855652  0.2785762846469879  1.0000
