data_image0
_chemical_formula_structural       Ca6Pt5
_chemical_formula_sum              "Ca6 Pt5"
_cell_length_a       5.357807105898555
_cell_length_b       5.796106652488045
_cell_length_c       8.40141487121582
_cell_angle_alpha    112.66611263218199
_cell_angle_beta     89.62326781323401
_cell_angle_gamma    94.56705438403519

_space_group_name_H-M_alt    "P 1"
_space_group_IT_number       1

loop_
  _space_group_symop_operation_xyz
  'x, y, z'

loop_
  _atom_site_type_symbol
  _atom_site_label
  _atom_site_symmetry_multiplicity
  _atom_site_fract_x
  _atom_site_fract_y
  _atom_site_fract_z
  _atom_site_occupancy
  Ca  Ca1       1.0  0.8645581603050232  0.5823178291320801  0.709461510181427  1.0000
  Ca  Ca2       1.0  0.8639445304870605  0.573296070098877  0.1676411926746368  1.0000
  Ca  Ca3       1.0  0.825716495513916  0.486566960811615  0.3734796643257141  1.0000
  Ca  Ca4       1.0  0.3613250255584717  0.502914309501648  0.4395028352737427  1.0000
  Ca  Ca5       1.0  0.3641182780265808  0.13555115461349487  0.4233357906341553  1.0000
  Ca  Ca6       1.0  0.3616192638874054  0.4894763231277466  0.7654855251312256  1.0000
  Pt  Pt1       1.0  0.3578200936317444  0.8464979529380798  0.8370258808135986  1.0000
  Pt  Pt2       1.0  0.36440640687942505  0.5239368081092834  0.9936172962188721  1.0000
  Pt  Pt3       1.0  0.8707754611968994  0.7103400230407715  0.05125053972005842  1.0000
  Pt  Pt4       1.0  0.8687229156494141  0.04526117816567421  0.6707314252853394  1.0000
  Pt  Pt5       1.0  0.3688872754573822  0.28269386291503906  0.6650362014770508  1.0000
