data_image0
_chemical_formula_structural       Ca8I2Tb
_chemical_formula_sum              "Ca8 I2 Tb1"
_cell_length_a       7.008998899422544
_cell_length_b       6.933682199088106
_cell_length_c       8.757421493530273
_cell_angle_alpha    110.75765277099651
_cell_angle_beta     94.8396566449675
_cell_angle_gamma    111.29084357772547

_space_group_name_H-M_alt    "P 1"
_space_group_IT_number       1

loop_
  _space_group_symop_operation_xyz
  'x, y, z'

loop_
  _atom_site_type_symbol
  _atom_site_label
  _atom_site_symmetry_multiplicity
  _atom_site_fract_x
  _atom_site_fract_y
  _atom_site_fract_z
  _atom_site_occupancy
  Ca  Ca1       1.0  0.24913734197616574  0.8597028255462646  0.3931107223033905  1.0000
  Ca  Ca2       1.0  0.26373007893562317  0.11980357766151428  0.7055821418762207  1.0000
  Ca  Ca3       1.0  0.2608675956726074  0.4421693980693817  0.9135202765464783  1.0000
  Ca  Ca4       1.0  0.2680043578147888  0.3016431927680969  0.7124889492988586  1.0000
  Ca  Ca5       1.0  0.5257189273834229  0.9757638573646545  0.013914237730205009  1.0000
  Ca  Ca6       1.0  0.7603525519371032  0.9002970457077026  0.9627436399459839  1.0000
  Ca  Ca7       1.0  0.2590862512588501  0.47556164860725403  0.11683793365955351  1.0000
  Ca  Ca8       1.0  0.7821241617202758  0.5817973613739014  0.5901724100112915  1.0000
  I   I1        1.0  0.24964167177677152  0.7362935543060303  0.5395643711090088  1.0000
  I   I2        1.0  0.7640380263328551  0.0640864148736  0.42414599657058716  1.0000
  Tb  Tb1       1.0  0.7774478197097777  0.12850619852542877  0.1211046576499939  1.0000
