data_image0
_chemical_formula_structural       Ca5OPt5
_chemical_formula_sum              "Ca5 O1 Pt5"
_cell_length_a       5.303573846131006
_cell_length_b       4.612315506638578
_cell_length_c       8.057061195373535
_cell_angle_alpha    88.1922999756243
_cell_angle_beta     89.60710738247835
_cell_angle_gamma    52.38098415933595

_space_group_name_H-M_alt    "P 1"
_space_group_IT_number       1

loop_
  _space_group_symop_operation_xyz
  'x, y, z'

loop_
  _atom_site_type_symbol
  _atom_site_label
  _atom_site_symmetry_multiplicity
  _atom_site_fract_x
  _atom_site_fract_y
  _atom_site_fract_z
  _atom_site_occupancy
  Ca  Ca1       1.0  0.8116265535354614  0.6001325845718384  0.5450168251991272  1.0000
  Ca  Ca2       1.0  0.3286234438419342  0.5340149402618408  0.7064144611358643  1.0000
  Ca  Ca3       1.0  0.08280298113822937  0.4475853145122528  0.9905472993850709  1.0000
  Ca  Ca4       1.0  0.13996624946594238  0.4997898042201996  0.350512832403183  1.0000
  Ca  Ca5       1.0  0.823968231678009  0.6960765719413757  0.678191602230072  1.0000
  O   O1        1.0  0.6482505798339844  0.9876154661178589  0.8381981253623962  1.0000
  Pt  Pt1       1.0  0.630191445350647  0.2513188421726227  0.8023565411567688  1.0000
  Pt  Pt2       1.0  0.14583724737167358  0.5546473860740662  0.7754196524620056  1.0000
  Pt  Pt3       1.0  0.6523159146308899  0.337650328874588  0.548740029335022  1.0000
  Pt  Pt4       1.0  0.29437583684921265  0.9476783275604248  0.3399202823638916  1.0000
  Pt  Pt5       1.0  0.40600213408470154  0.8520123958587646  0.9760949611663818  1.0000
