data_image0
_chemical_formula_structural       DyInPPbRuWZn
_chemical_formula_sum              "Dy1 In1 P1 Pb1 Ru1 W1 Zn1"
_cell_length_a       5.209127884307833
_cell_length_b       5.157360562331861
_cell_length_c       6.444790363311768
_cell_angle_alpha    100.02006980358458
_cell_angle_beta     95.6953701556637
_cell_angle_gamma    117.92803437882802

_space_group_name_H-M_alt    "P 1"
_space_group_IT_number       1

loop_
  _space_group_symop_operation_xyz
  'x, y, z'

loop_
  _atom_site_type_symbol
  _atom_site_label
  _atom_site_symmetry_multiplicity
  _atom_site_fract_x
  _atom_site_fract_y
  _atom_site_fract_z
  _atom_site_occupancy
  Dy  Dy1       1.0  0.8919244408607483  0.30372563004493713  0.7349010109901427  1.0000
  In  In1       1.0  0.23705917596817017  0.8822651505470276  0.24193394184112546  1.0000
  P   P1        1.0  0.6908550262451172  0.44627249240875244  0.7231671810150145  1.0000
  Pb  Pb1       1.0  0.7518202662467957  0.3991755545139313  0.8860156536102294  1.0000
  Ru  Ru1       1.0  0.4603978991508484  0.7813306450843811  0.30895137786865234  1.0000
  W   W1        1.0  0.4231831431388855  0.6502329707145691  0.1643347442150116  1.0000
  Zn  Zn1       1.0  0.03417365998029709  0.5049540400505066  0.9943836331367492  1.0000
