data_image0
_chemical_formula_structural       AsPPrRu4
_chemical_formula_sum              "As1 P1 Pr1 Ru4"
_cell_length_a       4.724829319694498
_cell_length_b       4.632956709852194
_cell_length_c       5.240684986114502
_cell_angle_alpha    109.72737986511923
_cell_angle_beta     107.70125091970952
_cell_angle_gamma    96.04730457545521

_space_group_name_H-M_alt    "P 1"
_space_group_IT_number       1

loop_
  _space_group_symop_operation_xyz
  'x, y, z'

loop_
  _atom_site_type_symbol
  _atom_site_label
  _atom_site_symmetry_multiplicity
  _atom_site_fract_x
  _atom_site_fract_y
  _atom_site_fract_z
  _atom_site_occupancy
  As  As1       1.0  0.29141825437545776  0.2845171391963959  0.5512866973876953  1.0000
  P   P1        1.0  0.09191261976957321  0.047276485711336136  0.46726515889167786  1.0000
  Pr  Pr1       1.0  0.5853745341300964  0.9428051114082336  0.15697218477725983  1.0000
  Ru  Ru1       1.0  0.23468202352523804  0.7858819365501404  0.9289514422416687  1.0000
  Ru  Ru2       1.0  0.24405652284622192  0.12255603075027466  0.14079757034778595  1.0000
  Ru  Ru3       1.0  0.7859140634536743  0.7265014052391052  0.6976212859153748  1.0000
  Ru  Ru4       1.0  0.6470984220504761  0.6917330622673035  0.8212186694145203  1.0000
