data_image0
_chemical_formula_structural       GaGeILiPbS2UZn
_chemical_formula_sum              "Ga1 Ge1 I1 Li1 Pb1 S2 U1 Zn1"
_cell_length_a       4.806412771443298
_cell_length_b       6.1469009298695765
_cell_length_c       8.176153182983398
_cell_angle_alpha    115.54086254750464
_cell_angle_beta     90.25669021469054
_cell_angle_gamma    88.58746165324324

_space_group_name_H-M_alt    "P 1"
_space_group_IT_number       1

loop_
  _space_group_symop_operation_xyz
  'x, y, z'

loop_
  _atom_site_type_symbol
  _atom_site_label
  _atom_site_symmetry_multiplicity
  _atom_site_fract_x
  _atom_site_fract_y
  _atom_site_fract_z
  _atom_site_occupancy
  Ga  Ga1       1.0  0.9586035013198854  0.5201314687728882  0.9308828711509705  1.0000
  Ge  Ge1       1.0  0.4520832300186158  0.1250580996274948  0.2202276587486267  1.0000
  I   I1        1.0  0.452369898557663  0.029351845383644104  0.4750818610191345  1.0000
  Li  Li1       1.0  0.7247931957244873  0.9680691957473755  0.45947873592376715  1.0000
  Pb  Pb1       1.0  0.9636037349700929  0.4284462332725525  0.143173947930336  1.0000
  S   S1        1.0  0.723463773727417  0.19989944994449615  0.6674848198890686  1.0000
  S   S2        1.0  0.44362339377403265  0.9405755996704102  0.224272832274437  1.0000
  U   U1        1.0  0.12403972446918489  0.968113362789154  0.007621120195835883  1.0000
  Zn  Zn1       1.0  0.9548494815826417  0.37127307057380676  0.28683391213417053  1.0000
