data_image0
_chemical_formula_structural       CaCoK5SZr
_chemical_formula_sum              "Ca1 Co1 K5 S1 Zr1"
_cell_length_a       7.203416360707212
_cell_length_b       7.157452404296833
_cell_length_c       8.412861824035645
_cell_angle_alpha    101.9591736065598
_cell_angle_beta     92.66994159683564
_cell_angle_gamma    112.77081231711236

_space_group_name_H-M_alt    "P 1"
_space_group_IT_number       1

loop_
  _space_group_symop_operation_xyz
  'x, y, z'

loop_
  _atom_site_type_symbol
  _atom_site_label
  _atom_site_symmetry_multiplicity
  _atom_site_fract_x
  _atom_site_fract_y
  _atom_site_fract_z
  _atom_site_occupancy
  Ca  Ca1       1.0  0.050885699689388275  0.5027234554290771  0.9536750316619873  1.0000
  Co  Co1       1.0  0.5633453726768494  0.44937196373939514  0.3549434542655945  1.0000
  K   K1        1.0  0.5883708000183105  0.6506435871124268  0.3034729063510895  1.0000
  K   K2        1.0  0.052937112748622894  0.44617384672164917  0.4135544598102569  1.0000
  K   K3        1.0  0.06913980841636658  0.3870477080345154  0.45541641116142273  1.0000
  K   K4        1.0  0.06840020418167114  0.7757503390312195  0.16680704057216644  1.0000
  K   K5        1.0  0.5543040037155151  0.0826629251241684  0.995924711227417  1.0000
  S   S1        1.0  0.5867762565612793  0.1469791978597641  0.20595477521419525  1.0000
  Zr  Zr1       1.0  0.573554515838623  0.29319024085998535  0.0123405447229743  1.0000
