data_image0
_chemical_formula_structural       Au3K5S
_chemical_formula_sum              "Au3 K5 S1"
_cell_length_a       6.818064409145228
_cell_length_b       6.2613894647868955
_cell_length_c       7.772220611572266
_cell_angle_alpha    109.12253672458864
_cell_angle_beta     105.1756828498235
_cell_angle_gamma    127.12059912911661

_space_group_name_H-M_alt    "P 1"
_space_group_IT_number       1

loop_
  _space_group_symop_operation_xyz
  'x, y, z'

loop_
  _atom_site_type_symbol
  _atom_site_label
  _atom_site_symmetry_multiplicity
  _atom_site_fract_x
  _atom_site_fract_y
  _atom_site_fract_z
  _atom_site_occupancy
  Au  Au1       1.0  0.35556989908218384  0.1923559010028839  0.057265058159828186  1.0000
  Au  Au2       1.0  0.13459821045398712  0.852059006690979  0.8938972353935242  1.0000
  Au  Au3       1.0  0.1210022047162056  0.19463413953781128  0.41207945346832275  1.0000
  K   K1        1.0  0.06880984455347061  0.45982515811920166  0.41897398233413696  1.0000
  K   K2        1.0  0.6120242476463318  0.8798570036888123  0.6606228947639465  1.0000
  K   K3        1.0  0.8015722036361694  0.5346772074699402  0.18102295696735382  1.0000
  K   K4        1.0  0.7930651903152466  0.8897261023521423  0.11441496759653091  1.0000
  K   K5        1.0  0.8271925449371338  0.6182909607887268  0.6080184578895569  1.0000
  S   S1        1.0  0.17428138852119446  0.28252121806144714  0.42552629113197327  1.0000
