data_image0
_chemical_formula_structural       Ca8I2Si
_chemical_formula_sum              "Ca8 I2 Si1"
_cell_length_a       5.765046222064533
_cell_length_b       5.581356645185664
_cell_length_c       8.675538063049316
_cell_angle_alpha    107.51042797616029
_cell_angle_beta     90.33219985779704
_cell_angle_gamma    90.52345196087819

_space_group_name_H-M_alt    "P 1"
_space_group_IT_number       1

loop_
  _space_group_symop_operation_xyz
  'x, y, z'

loop_
  _atom_site_type_symbol
  _atom_site_label
  _atom_site_symmetry_multiplicity
  _atom_site_fract_x
  _atom_site_fract_y
  _atom_site_fract_z
  _atom_site_occupancy
  Ca  Ca1       1.0  0.0018110546516254544  0.2724807560443878  0.3566190004348755  1.0000
  Ca  Ca2       1.0  0.9925512671470642  0.5781211256980896  0.3667261600494385  1.0000
  Ca  Ca3       1.0  0.9939336776733398  0.10094479471445084  0.29362261295318604  1.0000
  Ca  Ca4       1.0  0.9976816177368164  0.2649160623550415  0.04518311470746993  1.0000
  Ca  Ca5       1.0  0.5008307099342346  0.34034237265586853  0.4539909362792969  1.0000
  Ca  Ca6       1.0  0.9965629577636719  0.8433228135108948  0.9408313035964966  1.0000
  Ca  Ca7       1.0  0.4946325421333313  0.5540303587913513  0.3979206383228302  1.0000
  Ca  Ca8       1.0  0.4989815950393677  0.5924462676048279  0.1829913705587387  1.0000
  I   I1        1.0  0.9999263882637024  0.44064855575561523  0.278759628534317  1.0000
  I   I2        1.0  0.4912409484386444  0.3834769129753113  0.5494189858436584  1.0000
  Si  Si1       1.0  0.47045889496803284  0.215826615691185  0.5428483486175537  1.0000
