data_image0
_chemical_formula_structural       Ca8I2Si
_chemical_formula_sum              "Ca8 I2 Si1"
_cell_length_a       7.040259982007393
_cell_length_b       6.719898236611118
_cell_length_c       9.7160005569458
_cell_angle_alpha    89.68193259695248
_cell_angle_beta     90.0926460976987
_cell_angle_gamma    111.46393023579787

_space_group_name_H-M_alt    "P 1"
_space_group_IT_number       1

loop_
  _space_group_symop_operation_xyz
  'x, y, z'

loop_
  _atom_site_type_symbol
  _atom_site_label
  _atom_site_symmetry_multiplicity
  _atom_site_fract_x
  _atom_site_fract_y
  _atom_site_fract_z
  _atom_site_occupancy
  Ca  Ca1       1.0  0.582695484161377  0.6969807147979736  0.936235249042511  1.0000
  Ca  Ca2       1.0  0.08425481617450714  0.1917531490325928  0.4623810052871704  1.0000
  Ca  Ca3       1.0  0.5804305076599121  0.09611985087394716  0.48324400186538696  1.0000
  Ca  Ca4       1.0  0.08419402688741691  0.9891732335090638  0.3432295024394989  1.0000
  Ca  Ca5       1.0  0.5813750624656677  0.6565386652946472  0.7056229710578918  1.0000
  Ca  Ca6       1.0  0.08121784776449203  0.7275693416595459  0.22932787239551544  1.0000
  Ca  Ca7       1.0  0.5839047431945801  0.9609305262565614  0.3547333776950837  1.0000
  Ca  Ca8       1.0  0.5815852284431458  0.44961893558502203  0.3185788691043854  1.0000
  I   I1        1.0  0.08362030982971191  0.7172448635101318  0.031933557242155075  1.0000
  I   I2        1.0  0.5788370966911316  0.581666111946106  0.7626747488975525  1.0000
  Si  Si1       1.0  0.08048072457313538  0.6629855632781982  0.49796655774116516  1.0000
