data_image0
_chemical_formula_structural       Ca10I
_chemical_formula_sum              "Ca10 I1"
_cell_length_a       5.508193256054152
_cell_length_b       7.449535480507574
_cell_length_c       9.979808807373047
_cell_angle_alpha    120.64444422647426
_cell_angle_beta     89.57990047700142
_cell_angle_gamma    99.39672162887821

_space_group_name_H-M_alt    "P 1"
_space_group_IT_number       1

loop_
  _space_group_symop_operation_xyz
  'x, y, z'

loop_
  _atom_site_type_symbol
  _atom_site_label
  _atom_site_symmetry_multiplicity
  _atom_site_fract_x
  _atom_site_fract_y
  _atom_site_fract_z
  _atom_site_occupancy
  Ca  Ca1       1.0  0.6034260392189026  0.2346723675727844  0.38662734627723694  1.0000
  Ca  Ca2       1.0  0.10847339779138565  0.07086165249347687  0.4173111319541931  1.0000
  Ca  Ca3       1.0  0.5951634645462036  0.8981111049652098  0.5671880841255188  1.0000
  Ca  Ca4       1.0  0.11118141561746595  0.4772608876228332  0.5704846382141113  1.0000
  Ca  Ca5       1.0  0.6092882752418518  0.8414378166198729  0.8780601620674133  1.0000
  Ca  Ca6       1.0  0.589877724647522  0.417923092842102  0.09369008988142014  1.0000
  Ca  Ca7       1.0  0.10900215804576871  0.753076672554016  0.29945945739746094  1.0000
  Ca  Ca8       1.0  0.10626387596130368  0.7937054038047789  0.42749661207199097  1.0000
  Ca  Ca9       1.0  0.6101357936859131  0.9891444444656371  0.4154370129108429  1.0000
  Ca  Ca10      1.0  0.09998346120119092  0.7866846919059752  0.9754957556724548  1.0000
  I   I1        1.0  0.5991594791412354  0.04336349293589591  0.9826302528381348  1.0000
