data_image0
_chemical_formula_structural       Ca10Si
_chemical_formula_sum              "Ca10 Si1"
_cell_length_a       7.58750762365618
_cell_length_b       7.620368216379313
_cell_length_c       7.975627899169922
_cell_angle_alpha    111.8658088656467
_cell_angle_beta     111.3298851724433
_cell_angle_gamma    116.25285586376111

_space_group_name_H-M_alt    "P 1"
_space_group_IT_number       1

loop_
  _space_group_symop_operation_xyz
  'x, y, z'

loop_
  _atom_site_type_symbol
  _atom_site_label
  _atom_site_symmetry_multiplicity
  _atom_site_fract_x
  _atom_site_fract_y
  _atom_site_fract_z
  _atom_site_occupancy
  Ca  Ca1       1.0  0.12945576012134552  0.44917091727256775  0.7921273112297059  1.0000
  Ca  Ca2       1.0  0.6433502435684204  0.11610526591539383  0.44366410374641424  1.0000
  Ca  Ca3       1.0  0.130024254322052  0.6571210622787476  0.43787825107574463  1.0000
  Ca  Ca4       1.0  0.4104863703250885  0.7444060444831848  0.02765946835279465  1.0000
  Ca  Ca5       1.0  0.6432849764823914  0.38671255111694336  0.34496006369590765  1.0000
  Ca  Ca6       1.0  0.15253353118896484  0.4497719407081604  0.5923559069633484  1.0000
  Ca  Ca7       1.0  0.647346019744873  0.15475009381771088  0.8742603659629823  1.0000
  Ca  Ca8       1.0  0.6553792953491211  0.025172032415866852  0.6106607317924501  1.0000
  Ca  Ca9       1.0  0.6269814968109131  0.026311634108424187  0.8318597078323365  1.0000
  Ca  Ca10      1.0  0.1399208903312683  0.23258128762245178  0.7445017695426942  1.0000
  Si  Si1       1.0  0.12464605271816252  0.9220137596130371  0.9079747200012208  1.0000
