data_image0
_chemical_formula_structural       Ca8ISi2
_chemical_formula_sum              "Ca8 I1 Si2"
_cell_length_a       6.988761745207061
_cell_length_b       7.2244804606715105
_cell_length_c       10.02742862701416
_cell_angle_alpha    110.26812184693102
_cell_angle_beta     99.48534283881042
_cell_angle_gamma    111.23519745725808

_space_group_name_H-M_alt    "P 1"
_space_group_IT_number       1

loop_
  _space_group_symop_operation_xyz
  'x, y, z'

loop_
  _atom_site_type_symbol
  _atom_site_label
  _atom_site_symmetry_multiplicity
  _atom_site_fract_x
  _atom_site_fract_y
  _atom_site_fract_z
  _atom_site_occupancy
  Ca  Ca1       1.0  0.853013813495636  0.6196178197860718  0.6295660138130188  1.0000
  Ca  Ca2       1.0  0.3555286228656769  0.30495208501815796  0.01026991382241249  1.0000
  Ca  Ca3       1.0  0.3033013939857483  0.5921272039413452  0.4091031849384308  1.0000
  Ca  Ca4       1.0  0.855629026889801  0.3482864201068878  0.9511990547180176  1.0000
  Ca  Ca5       1.0  0.8554341197013855  0.3544147312641144  0.42566096782684326  1.0000
  Ca  Ca6       1.0  0.8553492426872253  0.4094065725803375  0.8958331942558289  1.0000
  Ca  Ca7       1.0  0.8527965545654297  0.5539513826370239  0.21573090553283691  1.0000
  Ca  Ca8       1.0  0.3566831946372986  0.3347112238407135  0.13738752901554108  1.0000
  I   I1        1.0  0.8569678068161011  0.853786826133728  0.45037204027175903  1.0000
  Si  Si1       1.0  0.3498761057853699  0.11611008644104004  0.9201431274414062  1.0000
  Si  Si2       1.0  0.3498442471027374  0.19078882038593292  0.7915789484977722  1.0000
