data_image0
_chemical_formula_structural       Ca11
_chemical_formula_sum              "Ca11"
_cell_length_a       6.624094178567436
_cell_length_b       7.007953476718756
_cell_length_c       9.263103485107422
_cell_angle_alpha    113.38038147973788
_cell_angle_beta     90.95937200080031
_cell_angle_gamma    116.49341328790085

_space_group_name_H-M_alt    "P 1"
_space_group_IT_number       1

loop_
  _space_group_symop_operation_xyz
  'x, y, z'

loop_
  _atom_site_type_symbol
  _atom_site_label
  _atom_site_symmetry_multiplicity
  _atom_site_fract_x
  _atom_site_fract_y
  _atom_site_fract_z
  _atom_site_occupancy
  Ca  Ca1       1.0  0.6978912353515626  0.8577356338500977  0.039093267172575  1.0000
  Ca  Ca2       1.0  0.20424276590347293  0.8285782337188721  0.3287407159805298  1.0000
  Ca  Ca3       1.0  0.2349248379468918  0.5148395895957947  0.2613040804862976  1.0000
  Ca  Ca4       1.0  0.6923887133598329  0.9928882122039795  0.6493661999702454  1.0000
  Ca  Ca5       1.0  0.9365950822830201  0.8953745365142822  0.6580278873443604  1.0000
  Ca  Ca6       1.0  0.37732827663421636  0.2412957400083542  0.4655319154262543  1.0000
  Ca  Ca7       1.0  0.20757292211055758  0.7900080680847168  0.5555093884468079  1.0000
  Ca  Ca8       1.0  0.6961714029312135  0.0006621230859309435  0.2634042203426361  1.0000
  Ca  Ca9       1.0  0.6991780996322633  0.6519997119903564  0.5195958018302917  1.0000
  Ca  Ca10      1.0  0.6953858733177186  0.08274344354867935  0.3893880248069763  1.0000
  Ca  Ca11      1.0  0.7102628946304322  0.8268532156944275  0.960277795791626  1.0000
