data_image0
_chemical_formula_structural       Cl7Cs4
_chemical_formula_sum              "Cl7 Cs4"
_cell_length_a       6.814622113642466
_cell_length_b       8.160122325936483
_cell_length_c       8.703412055969238
_cell_angle_alpha    75.86073363559653
_cell_angle_beta     67.91508203308257
_cell_angle_gamma    66.52722052634498

_space_group_name_H-M_alt    "P 1"
_space_group_IT_number       1

loop_
  _space_group_symop_operation_xyz
  'x, y, z'

loop_
  _atom_site_type_symbol
  _atom_site_label
  _atom_site_symmetry_multiplicity
  _atom_site_fract_x
  _atom_site_fract_y
  _atom_site_fract_z
  _atom_site_occupancy
  Cl  Cl1       1.0  0.18549165129661566  0.8493930101394652  0.952824592590332  1.0000
  Cl  Cl2       1.0  0.18939368426799774  0.010677601210772991  0.6537586450576782  1.0000
  Cl  Cl3       1.0  0.5856004953384399  0.613287091255188  0.1823217272758484  1.0000
  Cl  Cl4       1.0  0.9796934127807616  0.11020702868700026  0.6757482290267944  1.0000
  Cl  Cl5       1.0  0.525965690612793  0.018210675567388535  0.829310655593872  1.0000
  Cl  Cl6       1.0  0.18288663029670718  0.4489064216613769  0.9481905102729797  1.0000
  Cl  Cl7       1.0  0.8991816639900206  0.520569920539856  0.1460134536027909  1.0000
  Cs  Cs1       1.0  0.11128636449575424  0.5913071632385254  0.6779465079307556  1.0000
  Cs  Cs2       1.0  0.37831479310989385  0.9428827166557311  0.16436113417148596  1.0000
  Cs  Cs3       1.0  0.6975482702255249  0.32939884066581726  0.9331409931182861  1.0000
  Cs  Cs4       1.0  0.9249135255813598  0.9951054453849791  0.3288465738296509  1.0000
