data_image0
_chemical_formula_structural       Cl7Cs4
_chemical_formula_sum              "Cl7 Cs4"
_cell_length_a       5.6876589886240865
_cell_length_b       7.8182937058856945
_cell_length_c       12.00361442565918
_cell_angle_alpha    104.49731848059768
_cell_angle_beta     102.46488405072489
_cell_angle_gamma    89.53169873750535

_space_group_name_H-M_alt    "P 1"
_space_group_IT_number       1

loop_
  _space_group_symop_operation_xyz
  'x, y, z'

loop_
  _atom_site_type_symbol
  _atom_site_label
  _atom_site_symmetry_multiplicity
  _atom_site_fract_x
  _atom_site_fract_y
  _atom_site_fract_z
  _atom_site_occupancy
  Cl  Cl1       1.0  0.45168519020080566  0.5387762188911438  0.005642245057970285  1.0000
  Cl  Cl2       1.0  0.6563378572463989  0.8068892955780029  0.05140476673841476  1.0000
  Cl  Cl3       1.0  0.4565628170967102  0.7899283170700073  0.784238576889038  1.0000
  Cl  Cl4       1.0  0.8695492148399353  0.7626492977142334  0.39237371087074274  1.0000
  Cl  Cl5       1.0  0.4825156033039093  0.07461773604154587  0.26012417674064636  1.0000
  Cl  Cl6       1.0  0.07540978491306305  0.3655460774898529  0.5198990702629089  1.0000
  Cl  Cl7       1.0  0.9431794285774231  0.2991445064544678  0.15331795811653137  1.0000
  Cs  Cs1       1.0  0.13878025114536285  0.7772562503814697  0.6977084875106812  1.0000
  Cs  Cs2       1.0  0.6842994093894958  0.2802707552909851  0.7883549332618712  1.0000
  Cs  Cs3       1.0  0.41269227862358093  0.2766123116016388  0.23040102422237393  1.0000
  Cs  Cs4       1.0  0.09301915764808655  0.28233498334884644  0.5593472719192505  1.0000
