data_image0
_chemical_formula_structural       Ag7Cl3Sc
_chemical_formula_sum              "Ag7 Cl3 Sc1"
_cell_length_a       6.01137898038419
_cell_length_b       9.25195688057099
_cell_length_c       9.660896301269531
_cell_angle_alpha    121.89214246585088
_cell_angle_beta     89.34234952989725
_cell_angle_gamma    87.54729002150977

_space_group_name_H-M_alt    "P 1"
_space_group_IT_number       1

loop_
  _space_group_symop_operation_xyz
  'x, y, z'

loop_
  _atom_site_type_symbol
  _atom_site_label
  _atom_site_symmetry_multiplicity
  _atom_site_fract_x
  _atom_site_fract_y
  _atom_site_fract_z
  _atom_site_occupancy
  Ag  Ag1       1.0  0.7897982001304626  0.75787353515625  0.2939791083335877  1.0000
  Ag  Ag2       1.0  0.5533118844032288  0.20830106735229492  0.5394668579101562  1.0000
  Ag  Ag3       1.0  0.2894077003002167  0.8061831593513489  0.035279955714941025  1.0000
  Ag  Ag4       1.0  0.036413665860891335  0.9658702015876771  0.7070013880729675  1.0000
  Ag  Ag5       1.0  0.5443899631500244  0.7660433650016785  0.08498049527406697  1.0000
  Ag  Ag6       1.0  0.03618375211954117  0.17202821373939514  0.2998989820480347  1.0000
  Ag  Ag7       1.0  0.5640107989311218  0.7279555201530457  0.8760561347007751  1.0000
  Cl  Cl1       1.0  0.5582135915756226  0.49357968568801885  0.8130074143409729  1.0000
  Cl  Cl2       1.0  0.057332541793584824  0.487916648387909  0.12014500051736836  1.0000
  Cl  Cl3       1.0  0.06975195556879044  0.9986464381217958  0.7936906814575196  1.0000
  Sc  Sc1       1.0  0.0516003742814064  0.48210099339485174  0.9801996946334839  1.0000
