data_image0
_chemical_formula_structural       Cl9Cs2
_chemical_formula_sum              "Cl9 Cs2"
_cell_length_a       6.161987109931518
_cell_length_b       9.624432935315522
_cell_length_c       10.84335994720459
_cell_angle_alpha    111.1704637008913
_cell_angle_beta     94.62630947032675
_cell_angle_gamma    89.83364287889485

_space_group_name_H-M_alt    "P 1"
_space_group_IT_number       1

loop_
  _space_group_symop_operation_xyz
  'x, y, z'

loop_
  _atom_site_type_symbol
  _atom_site_label
  _atom_site_symmetry_multiplicity
  _atom_site_fract_x
  _atom_site_fract_y
  _atom_site_fract_z
  _atom_site_occupancy
  Cl  Cl1       1.0  0.6970316171646118  0.8370156288146973  0.9230315685272218  1.0000
  Cl  Cl2       1.0  0.4499189853668213  0.756865918636322  0.6409611701965332  1.0000
  Cl  Cl3       1.0  0.4853399395942688  0.38006624579429626  0.11608723551034926  1.0000
  Cl  Cl4       1.0  0.6932666897773743  0.477510005235672  0.29739120602607727  1.0000
  Cl  Cl5       1.0  0.5347984433174133  0.8673367500305176  0.6846995949745178  1.0000
  Cl  Cl6       1.0  0.49039366841316223  0.26032984256744385  0.5289115309715271  1.0000
  Cl  Cl7       1.0  0.697623074054718  0.14486068487167358  0.30351752042770386  1.0000
  Cl  Cl8       1.0  0.5416638851165771  0.09802792221307755  0.663993775844574  1.0000
  Cl  Cl9       1.0  0.026348523795604706  0.48814865946769714  0.5561574101448059  1.0000
  Cs  Cs1       1.0  0.03882281109690666  0.3121635317802429  0.7044209837913513  1.0000
  Cs  Cs2       1.0  0.1915835738182068  0.17599807679653168  0.09603755921125412  1.0000
