data_image0
_chemical_formula_structural       Ag5Cl4CoSc
_chemical_formula_sum              "Ag5 Cl4 Co1 Sc1"
_cell_length_a       5.6661627502138225
_cell_length_b       6.366530257137971
_cell_length_c       9.261353492736816
_cell_angle_alpha    108.54028751724171
_cell_angle_beta     104.28024156030027
_cell_angle_gamma    89.7890650496729

_space_group_name_H-M_alt    "P 1"
_space_group_IT_number       1

loop_
  _space_group_symop_operation_xyz
  'x, y, z'

loop_
  _atom_site_type_symbol
  _atom_site_label
  _atom_site_symmetry_multiplicity
  _atom_site_fract_x
  _atom_site_fract_y
  _atom_site_fract_z
  _atom_site_occupancy
  Ag  Ag1       1.0  0.20699243247509003  0.07460847496986389  0.4133322536945343  1.0000
  Ag  Ag2       1.0  0.9063736796379089  0.42398613691329956  0.03182845935225487  1.0000
  Ag  Ag3       1.0  0.9507776498794556  0.8382498621940613  0.19292400777339935  1.0000
  Ag  Ag4       1.0  0.21516837179660797  0.5761544108390808  0.015653958544135094  1.0000
  Ag  Ag5       1.0  0.35461631417274475  0.7147171497344971  0.715457022190094  1.0000
  Cl  Cl1       1.0  0.5299267172813416  0.6196202635765076  0.20292451977729797  1.0000
  Cl  Cl2       1.0  0.16323807835578918  0.8180052638053894  0.18899476528167727  1.0000
  Cl  Cl3       1.0  0.4947810173034668  0.12661731243133545  0.7667456865310669  1.0000
  Cl  Cl4       1.0  0.7988907098770142  0.09302587062120438  0.19976387917995453  1.0000
  Co  Co1       1.0  0.40923359990119934  0.2859695255756378  0.03759355470538139  1.0000
  Sc  Sc1       1.0  0.28356418013572693  0.0992879718542099  0.6942818760871887  1.0000
