data_image0
_chemical_formula_structural       Cl10Cs
_chemical_formula_sum              "Cl10 Cs1"
_cell_length_a       5.429280848086819
_cell_length_b       9.11612228776981
_cell_length_c       10.40203857421875
_cell_angle_alpha    108.94246638058836
_cell_angle_beta     98.19241375748565
_cell_angle_gamma    88.80031141813762

_space_group_name_H-M_alt    "P 1"
_space_group_IT_number       1

loop_
  _space_group_symop_operation_xyz
  'x, y, z'

loop_
  _atom_site_type_symbol
  _atom_site_label
  _atom_site_symmetry_multiplicity
  _atom_site_fract_x
  _atom_site_fract_y
  _atom_site_fract_z
  _atom_site_occupancy
  Cl  Cl1       1.0  0.2627103328704834  0.4067063629627228  0.258070707321167  1.0000
  Cl  Cl2       1.0  0.2870866060256958  0.7517427802085876  0.40961354970932007  1.0000
  Cl  Cl3       1.0  0.8031502366065979  0.7367440462112427  0.4110347032546997  1.0000
  Cl  Cl4       1.0  0.2934443950653076  0.6774541735649109  0.026523372158408207  1.0000
  Cl  Cl5       1.0  0.7641368508338928  0.5797110199928284  0.290076345205307  1.0000
  Cl  Cl6       1.0  0.8689579367637634  0.18945570290088654  0.9986423254013062  1.0000
  Cl  Cl7       1.0  0.7474349141120911  0.12244544178247452  0.26580914855003357  1.0000
  Cl  Cl8       1.0  0.7113488912582397  0.5740009546279907  0.15606160461902618  1.0000
  Cl  Cl9       1.0  0.7635964155197144  0.15490934252738953  0.2800283133983612  1.0000
  Cl  Cl10      1.0  0.7754011154174805  0.437345415353775  0.40591734647750854  1.0000
  Cs  Cs1       1.0  0.2362547218799591  0.2789938449859619  0.35079243779182434  1.0000
