data_image0
_chemical_formula_structural       Pr6Tl
_chemical_formula_sum              "Pr6 Tl1"
_cell_length_a       4.534515391015648
_cell_length_b       6.581493772336399
_cell_length_c       7.790805339813232
_cell_angle_alpha    89.45002381799854
_cell_angle_beta     89.95432757004782
_cell_angle_gamma    89.79617520680326

_space_group_name_H-M_alt    "P 1"
_space_group_IT_number       1

loop_
  _space_group_symop_operation_xyz
  'x, y, z'

loop_
  _atom_site_type_symbol
  _atom_site_label
  _atom_site_symmetry_multiplicity
  _atom_site_fract_x
  _atom_site_fract_y
  _atom_site_fract_z
  _atom_site_occupancy
  Pr  Pr1       1.0  0.3294098973274231  0.4623890221118927  0.4437087774276733  1.0000
  Pr  Pr2       1.0  0.2883508503437042  0.7043465375900269  0.9685754776000975  1.0000
  Pr  Pr3       1.0  0.8129936456680298  0.9533892273902893  0.8965786695480346  1.0000
  Pr  Pr4       1.0  0.2900536358356476  0.18213187158107758  0.24357394874095914  1.0000
  Pr  Pr5       1.0  0.8254278302192688  0.47468802332878113  0.35376429557800293  1.0000
  Pr  Pr6       1.0  0.8140186071395874  0.034825440496206284  0.6695110201835632  1.0000
  Tl  Tl1       1.0  0.7942883968353271  0.11249814927577972  0.8545770049095153  1.0000
