data_image0
_chemical_formula_structural       Eu4S2
_chemical_formula_sum              "Eu4 S2"
_cell_length_a       5.54515358307836
_cell_length_b       5.610568783174026
_cell_length_c       6.433269023895264
_cell_angle_alpha    110.52262252052913
_cell_angle_beta     92.67036868371947
_cell_angle_gamma    109.79772592574976

_space_group_name_H-M_alt    "P 1"
_space_group_IT_number       1

loop_
  _space_group_symop_operation_xyz
  'x, y, z'

loop_
  _atom_site_type_symbol
  _atom_site_label
  _atom_site_symmetry_multiplicity
  _atom_site_fract_x
  _atom_site_fract_y
  _atom_site_fract_z
  _atom_site_occupancy
  Eu  Eu1       1.0  0.7240890264511108  0.4309517741203308  0.7831088304519653  1.0000
  Eu  Eu2       1.0  0.7149074673652649  0.4093944728374481  0.7937865257263184  1.0000
  Eu  Eu3       1.0  0.18945398926734924  0.12959294021129608  0.22493165731430054  1.0000
  Eu  Eu4       1.0  0.6575008630752563  0.4292576014995575  0.4610860347747803  1.0000
  S   S1        1.0  0.20459446310997007  0.9122955203056335  0.4623527228832245  1.0000
  S   S2        1.0  0.21567334234714505  0.809421956539154  0.7387125492095947  1.0000
