data_image0
_chemical_formula_structural       AgIn4O5
_chemical_formula_sum              "Ag1 In4 O5"
_cell_length_a       4.761563781796943
_cell_length_b       5.471486959615364
_cell_length_c       9.538583755493164
_cell_angle_alpha    108.45555050060511
_cell_angle_beta     90.0023110361344
_cell_angle_gamma    89.93394065125659

_space_group_name_H-M_alt    "P 1"
_space_group_IT_number       1

loop_
  _space_group_symop_operation_xyz
  'x, y, z'

loop_
  _atom_site_type_symbol
  _atom_site_label
  _atom_site_symmetry_multiplicity
  _atom_site_fract_x
  _atom_site_fract_y
  _atom_site_fract_z
  _atom_site_occupancy
  Ag  Ag1       1.0  0.32403919100761414  0.8823673725128174  0.8109925389289856  1.0000
  In  In1       1.0  0.3591561019420624  0.38169699907302856  0.6607581377029419  1.0000
  In  In2       1.0  0.41063305735588074  0.12560580670833588  0.1525624692440033  1.0000
  In  In3       1.0  0.35672831535339355  0.8857557773590088  0.6313987374305725  1.0000
  In  In4       1.0  0.8566322922706604  0.38149648904800415  0.38605594635009766  1.0000
  O   O1        1.0  0.5715253353118896  0.37632519006729126  0.8981232643127441  1.0000
  O   O2        1.0  0.06483867019414902  0.6235541105270386  0.863152027130127  1.0000
  O   O3        1.0  0.5333097577095032  0.3908080756664276  0.3840111494064331  1.0000
  O   O4        1.0  0.14816078543663025  0.062130168080329895  0.07488346099853516  1.0000
  O   O5        1.0  0.8486255407333374  0.877094030380249  0.1357713341712952  1.0000
