data_image0
_chemical_formula_structural       FIn5O4
_chemical_formula_sum              "F1 In5 O4"
_cell_length_a       4.309630481216637
_cell_length_b       4.576283754179426
_cell_length_c       9.98492431640625
_cell_angle_alpha    94.32715510675654
_cell_angle_beta     90.67499769529478
_cell_angle_gamma    96.7899965851664

_space_group_name_H-M_alt    "P 1"
_space_group_IT_number       1

loop_
  _space_group_symop_operation_xyz
  'x, y, z'

loop_
  _atom_site_type_symbol
  _atom_site_label
  _atom_site_symmetry_multiplicity
  _atom_site_fract_x
  _atom_site_fract_y
  _atom_site_fract_z
  _atom_site_occupancy
  F   F1        1.0  0.5495348572731018  0.8117908239364624  0.43082016706466675  1.0000
  In  In1       1.0  0.030438637360930443  0.3378223478794098  0.6605939269065857  1.0000
  In  In2       1.0  0.011642633005976677  0.3459814488887787  0.46547895669937134  1.0000
  In  In3       1.0  0.5340700149536133  0.8153983950614929  0.12778252363204956  1.0000
  In  In4       1.0  0.511174201965332  0.6307340860366821  0.9345114827156067  1.0000
  In  In5       1.0  0.5254517793655396  0.09668746590614319  0.7331711053848267  1.0000
  O   O1        1.0  0.018313681706786156  0.11790627241134644  0.7146880626678467  1.0000
  O   O2        1.0  0.511301577091217  0.10035308450460434  0.42950713634490967  1.0000
  O   O3        1.0  0.5938905477523804  0.4057062566280365  0.19736509025096893  1.0000
  O   O4        1.0  0.8731622099876404  0.7883828282356262  0.42654791474342346  1.0000
