data_image0
_chemical_formula_structural       O4Rh6
_chemical_formula_sum              "O4 Rh6"
_cell_length_a       4.3005480407067695
_cell_length_b       4.7500409851808465
_cell_length_c       7.692295551300049
_cell_angle_alpha    90.80248556660197
_cell_angle_beta     89.96256840999214
_cell_angle_gamma    90.21049272318207

_space_group_name_H-M_alt    "P 1"
_space_group_IT_number       1

loop_
  _space_group_symop_operation_xyz
  'x, y, z'

loop_
  _atom_site_type_symbol
  _atom_site_label
  _atom_site_symmetry_multiplicity
  _atom_site_fract_x
  _atom_site_fract_y
  _atom_site_fract_z
  _atom_site_occupancy
  O   O1        1.0  0.6657568216323853  0.5270467400550842  0.7850054502487184  1.0000
  O   O2        1.0  0.16641634702682495  0.5618361830711365  0.37076872587203985  1.0000
  O   O3        1.0  0.16829848289489746  0.07242180407047272  0.6792268157005311  1.0000
  O   O4        1.0  0.1850138008594513  0.03393832594156265  0.725555181503296  1.0000
  Rh  Rh1       1.0  0.6798309683799744  0.5386412739753723  0.031228411942720417  1.0000
  Rh  Rh2       1.0  0.18173624575138092  0.7825837135314941  0.6825614571571351  1.0000
  Rh  Rh3       1.0  0.6857796311378479  0.06842805445194244  0.993663787841797  1.0000
  Rh  Rh4       1.0  0.6954348683357239  0.36078134179115295  0.5022385120391846  1.0000
  Rh  Rh5       1.0  0.18306003510951996  0.7973529100418091  0.7365807294845582  1.0000
  Rh  Rh6       1.0  0.6926809549331665  0.8634721636772156  0.5101615786552429  1.0000
