data_image0
_chemical_formula_structural       In3O3Rh4
_chemical_formula_sum              "In3 O3 Rh4"
_cell_length_a       4.453120204240947
_cell_length_b       5.438819280887808
_cell_length_c       9.090496063232422
_cell_angle_alpha    89.17367929943153
_cell_angle_beta     88.61383059016458
_cell_angle_gamma    116.57584528628934

_space_group_name_H-M_alt    "P 1"
_space_group_IT_number       1

loop_
  _space_group_symop_operation_xyz
  'x, y, z'

loop_
  _atom_site_type_symbol
  _atom_site_label
  _atom_site_symmetry_multiplicity
  _atom_site_fract_x
  _atom_site_fract_y
  _atom_site_fract_z
  _atom_site_occupancy
  In  In1       1.0  0.974945068359375  0.9811151623725892  0.8686131238937378  1.0000
  In  In2       1.0  0.2588940262794496  0.9700419306755067  0.2823508083820343  1.0000
  In  In3       1.0  0.3044910132884979  0.3022167384624481  0.7006176710128784  1.0000
  O   O1        1.0  0.11149108409881592  0.6098861694335938  0.33125248551368713  1.0000
  O   O2        1.0  0.36756131052970886  0.3196314871311188  0.4588043987751007  1.0000
  O   O3        1.0  0.027429141104221344  0.14369995892047882  0.16235344111919403  1.0000
  Rh  Rh1       1.0  0.5677805542945862  0.21725302934646606  0.341317743062973  1.0000
  Rh  Rh2       1.0  0.2796775698661804  0.6337981820106506  0.740778923034668  1.0000
  Rh  Rh3       1.0  0.5974540710449219  0.6561780571937561  0.2766696512699127  1.0000
  Rh  Rh4       1.0  0.7436324357986451  0.9648883342742921  0.4625919759273529  1.0000
