data_image0
_chemical_formula_structural       O3Rh7
_chemical_formula_sum              "O3 Rh7"
_cell_length_a       4.5834967252330765
_cell_length_b       4.671350870955019
_cell_length_c       6.300625324249268
_cell_angle_alpha    92.75561454358785
_cell_angle_beta     92.72035657338971
_cell_angle_gamma    93.70148790651551

_space_group_name_H-M_alt    "P 1"
_space_group_IT_number       1

loop_
  _space_group_symop_operation_xyz
  'x, y, z'

loop_
  _atom_site_type_symbol
  _atom_site_label
  _atom_site_symmetry_multiplicity
  _atom_site_fract_x
  _atom_site_fract_y
  _atom_site_fract_z
  _atom_site_occupancy
  O   O1        1.0  0.26983878016471863  0.01682361587882042  0.313971608877182  1.0000
  O   O2        1.0  0.6000560522079468  0.5186946392059326  0.9812736511230468  1.0000
  O   O3        1.0  0.9902082085609436  0.2589648962020874  0.002183127915486702  1.0000
  Rh  Rh1       1.0  0.7393574118614197  0.5527505278587341  0.595452606678009  1.0000
  Rh  Rh2       1.0  0.7616950273513794  0.5088616609573364  0.9956097602844237  1.0000
  Rh  Rh3       1.0  0.2484094798564911  0.24465800821781158  0.6902244687080383  1.0000
  Rh  Rh4       1.0  0.24733775854110718  0.7745489478111267  0.8315196633338928  1.0000
  Rh  Rh5       1.0  0.7687183022499084  0.7210593819618225  0.3341526687145233  1.0000
  Rh  Rh6       1.0  0.2572496831417084  0.7690990567207336  0.22795180976390836  1.0000
  Rh  Rh7       1.0  0.2695256769657135  0.7718059420585632  0.8439131379127502  1.0000
