data_image0
_chemical_formula_structural       FIn3OPtRh4
_chemical_formula_sum              "F1 In3 O1 Pt1 Rh4"
_cell_length_a       4.039590710551644
_cell_length_b       5.212352025917445
_cell_length_c       9.55262565612793
_cell_angle_alpha    94.63462092891358
_cell_angle_beta     89.14024923877044
_cell_angle_gamma    88.41313884407535

_space_group_name_H-M_alt    "P 1"
_space_group_IT_number       1

loop_
  _space_group_symop_operation_xyz
  'x, y, z'

loop_
  _atom_site_type_symbol
  _atom_site_label
  _atom_site_symmetry_multiplicity
  _atom_site_fract_x
  _atom_site_fract_y
  _atom_site_fract_z
  _atom_site_occupancy
  F   F1        1.0  0.9112690091133118  0.22941114008426666  0.6265436410903931  1.0000
  In  In1       1.0  0.5165584683418274  0.5884296894073486  0.3759269118309021  1.0000
  In  In2       1.0  0.39828822016716003  0.07465124130249023  0.5359452366828918  1.0000
  In  In3       1.0  0.9276671409606934  0.29025280475616455  0.513738751411438  1.0000
  O   O1        1.0  0.91485995054245  0.7587534785270691  0.6968158483505249  1.0000
  Pt  Pt1       1.0  0.9187735915184021  0.7303933501243591  0.9245009422302246  1.0000
  Rh  Rh1       1.0  0.40911367535591125  0.17785419523715973  0.8898915648460388  1.0000
  Rh  Rh2       1.0  0.39104336500167847  0.26027950644493103  0.4944468140602112  1.0000
  Rh  Rh3       1.0  0.4155397415161133  0.7811147570610046  0.48980340361595154  1.0000
  Rh  Rh4       1.0  0.9120759963989258  0.2890273630619049  0.20135465264320374  1.0000
