data_image0
_chemical_formula_structural       Co2NiSi4Y3
_chemical_formula_sum              "Co2 Ni1 Si4 Y3"
_cell_length_a       6.166350338001775
_cell_length_b       6.636393427075821
_cell_length_c       6.551753997802734
_cell_angle_alpha    107.87100958136935
_cell_angle_beta     107.14035438931946
_cell_angle_gamma    113.52961926552857

_space_group_name_H-M_alt    "P 1"
_space_group_IT_number       1

loop_
  _space_group_symop_operation_xyz
  'x, y, z'

loop_
  _atom_site_type_symbol
  _atom_site_label
  _atom_site_symmetry_multiplicity
  _atom_site_fract_x
  _atom_site_fract_y
  _atom_site_fract_z
  _atom_site_occupancy
  Co  Co1       1.0  0.2655636966228485  0.1514861285686493  0.722856640815735  1.0000
  Co  Co2       1.0  0.5082184076309204  0.6402549743652344  0.23755875229835519  1.0000
  Ni  Ni1       1.0  0.7603574395179749  0.8657500743865967  0.7236430048942567  1.0000
  Si  Si1       1.0  0.6392029523849487  0.98875892162323  0.21616244316101083  1.0000
  Si  Si2       1.0  0.2895009219646454  0.3149283528327942  0.7196907997131349  1.0000
  Si  Si3       1.0  0.997123658657074  0.9821377396583557  0.21444563567638406  1.0000
  Si  Si4       1.0  0.9615917801856995  0.47307512164115906  0.395362138748169  1.0000
  Y   Y1        1.0  0.9920167326927185  0.35760289430618286  0.6670202016830444  1.0000
  Y   Y2        1.0  0.6355409026145935  0.7801539301872253  0.8962596058845521  1.0000
  Y   Y3        1.0  0.6405964493751526  0.23197799921035767  0.20972217619419103  1.0000
