data_image0
_chemical_formula_structural       Co2Si4Y3Zr
_chemical_formula_sum              "Co2 Si4 Y3 Zr1"
_cell_length_a       4.907365006413037
_cell_length_b       6.881671215370322
_cell_length_c       7.077719688415527
_cell_angle_alpha    119.09595986543323
_cell_angle_beta     90.47411034611727
_cell_angle_gamma    91.28245975099348

_space_group_name_H-M_alt    "P 1"
_space_group_IT_number       1

loop_
  _space_group_symop_operation_xyz
  'x, y, z'

loop_
  _atom_site_type_symbol
  _atom_site_label
  _atom_site_symmetry_multiplicity
  _atom_site_fract_x
  _atom_site_fract_y
  _atom_site_fract_z
  _atom_site_occupancy
  Co  Co1       1.0  0.9204186797142029  0.49782383441925054  0.8244220018386841  1.0000
  Co  Co2       1.0  0.4232729971408844  0.4940862953662873  0.8260113596916199  1.0000
  Si  Si1       1.0  0.6308364868164062  0.8009583353996277  0.058796752244234085  1.0000
  Si  Si2       1.0  0.14004585146903992  0.7955601811408997  0.3206194043159485  1.0000
  Si  Si3       1.0  0.922949492931366  0.7104432582855225  0.5712948441505432  1.0000
  Si  Si4       1.0  0.5212230086326599  0.12044396996498109  0.3259856402873993  1.0000
  Y   Y1        1.0  0.6255064606666565  0.7976059317588806  0.20110028982162476  1.0000
  Y   Y2        1.0  0.4171244204044342  0.47851198911666876  0.641091525554657  1.0000
  Y   Y3        1.0  0.9259862303733826  0.14732658863067627  0.3228488266468048  1.0000
  Zr  Zr1       1.0  0.9244583249092102  0.1808534562587738  0.5967112183570862  1.0000
