data_image0
_chemical_formula_structural       Si7Y3
_chemical_formula_sum              "Si7 Y3"
_cell_length_a       5.096542854956067
_cell_length_b       5.594633106428968
_cell_length_c       6.288013458251953
_cell_angle_alpha    113.23636693239193
_cell_angle_beta     101.20613786556234
_cell_angle_gamma    95.72756899813568

_space_group_name_H-M_alt    "P 1"
_space_group_IT_number       1

loop_
  _space_group_symop_operation_xyz
  'x, y, z'

loop_
  _atom_site_type_symbol
  _atom_site_label
  _atom_site_symmetry_multiplicity
  _atom_site_fract_x
  _atom_site_fract_y
  _atom_site_fract_z
  _atom_site_occupancy
  Si  Si1       1.0  0.8454423546791077  0.37902921438217163  0.5255918502807617  1.0000
  Si  Si2       1.0  0.21002434194087982  0.2959396541118622  0.9802922010421753  1.0000
  Si  Si3       1.0  0.21973952651023865  0.6886979937553406  0.14737021923065186  1.0000
  Si  Si4       1.0  0.19408018887043  0.2838927209377289  0.4154090881347656  1.0000
  Si  Si5       1.0  0.4695229232311249  0.5702154636383057  0.6578958630561829  1.0000
  Si  Si6       1.0  0.44777610898017883  0.8989385962486267  0.8660256862640381  1.0000
  Si  Si7       1.0  0.9769855737686157  0.06862618774175644  0.7862488031387329  1.0000
  Y   Y1        1.0  0.47533246874809265  0.2162160873413086  0.4008650481700897  1.0000
  Y   Y2        1.0  0.7064458727836609  0.02079440839588642  0.11896961182355881  1.0000
  Y   Y3        1.0  0.19798141717910767  0.6652276515960693  0.12809614837169647  1.0000
