data_image0
_chemical_formula_structural       CoSi5Y4
_chemical_formula_sum              "Co1 Si5 Y4"
_cell_length_a       4.799227303673374
_cell_length_b       6.705880799555669
_cell_length_c       7.258297443389893
_cell_angle_alpha    118.1301797158564
_cell_angle_beta     94.7429083680861
_cell_angle_gamma    89.15238154542584

_space_group_name_H-M_alt    "P 1"
_space_group_IT_number       1

loop_
  _space_group_symop_operation_xyz
  'x, y, z'

loop_
  _atom_site_type_symbol
  _atom_site_label
  _atom_site_symmetry_multiplicity
  _atom_site_fract_x
  _atom_site_fract_y
  _atom_site_fract_z
  _atom_site_occupancy
  Co  Co1       1.0  0.3496924340724945  0.26616543531417847  0.07801062613725662  1.0000
  Si  Si1       1.0  0.6225479245185852  0.5933970808982849  0.7369162440299988  1.0000
  Si  Si2       1.0  0.35772305727005005  0.06048719957470894  0.41875946521759033  1.0000
  Si  Si3       1.0  0.28561025857925415  0.9843404293060303  0.5946841835975647  1.0000
  Si  Si4       1.0  0.9948570132255554  0.5867372155189514  0.6982090473175049  1.0000
  Si  Si5       1.0  0.8209688067436218  0.33479273319244385  0.1758582592010498  1.0000
  Y   Y1        1.0  0.7950384616851807  0.8820938467979431  0.9797291159629823  1.0000
  Y   Y2        1.0  0.8533912897109985  0.30511394143104553  0.05869297683238984  1.0000
  Y   Y3        1.0  0.18307769298553467  0.5536192059516907  0.9679285883903505  1.0000
  Y   Y4        1.0  0.47283339500427246  0.5562325716018677  0.5299670696258545  1.0000
