data_image0
_chemical_formula_structural       CoSi4Y5
_chemical_formula_sum              "Co1 Si4 Y5"
_cell_length_a       5.718353554443248
_cell_length_b       6.106237745540276
_cell_length_c       6.187030792236328
_cell_angle_alpha    110.94996656374707
_cell_angle_beta     106.47170331276385
_cell_angle_gamma    105.92191991096918

_space_group_name_H-M_alt    "P 1"
_space_group_IT_number       1

loop_
  _space_group_symop_operation_xyz
  'x, y, z'

loop_
  _atom_site_type_symbol
  _atom_site_label
  _atom_site_symmetry_multiplicity
  _atom_site_fract_x
  _atom_site_fract_y
  _atom_site_fract_z
  _atom_site_occupancy
  Co  Co1       1.0  0.9039430618286133  0.7229853868484497  0.09013076126575462  1.0000
  Si  Si1       1.0  0.621614933013916  0.8101171255111694  0.22755673527717582  1.0000
  Si  Si2       1.0  0.9306442737579346  0.021319417282938957  0.5885763168334961  1.0000
  Si  Si3       1.0  0.22892779111862183  0.4358072280883789  0.5945477485656738  1.0000
  Si  Si4       1.0  0.6317098140716553  0.307728111743927  0.9837108254432677  1.0000
  Y   Y1        1.0  0.32569342851638794  0.09717873483896255  0.7579065561294555  1.0000
  Y   Y2        1.0  0.23295219242572784  0.8227710127830505  0.9977786540985106  1.0000
  Y   Y3        1.0  0.6428508758544922  0.325630247592926  0.7163702845573424  1.0000
  Y   Y4        1.0  0.624098539352417  0.7958442568778992  0.7674922943115233  1.0000
  Y   Y5        1.0  0.6049374938011169  0.08686840534210205  0.4362075328826904  1.0000
