data_image0
_chemical_formula_structural       CoSi4VY4
_chemical_formula_sum              "Co1 Si4 V1 Y4"
_cell_length_a       4.523452687801378
_cell_length_b       6.369619505806414
_cell_length_c       6.724754333496094
_cell_angle_alpha    117.46328306931983
_cell_angle_beta     90.75877607417837
_cell_angle_gamma    88.39664054269142

_space_group_name_H-M_alt    "P 1"
_space_group_IT_number       1

loop_
  _space_group_symop_operation_xyz
  'x, y, z'

loop_
  _atom_site_type_symbol
  _atom_site_label
  _atom_site_symmetry_multiplicity
  _atom_site_fract_x
  _atom_site_fract_y
  _atom_site_fract_z
  _atom_site_occupancy
  Co  Co1       1.0  0.016733258962631226  0.462662935256958  0.6204789280891418  1.0000
  Si  Si1       1.0  0.2806727886199951  0.0023485117126256227  0.3828290104866028  1.0000
  Si  Si2       1.0  0.01759348437190056  0.9671620726585388  0.49456617236137385  1.0000
  Si  Si3       1.0  0.49081647396087646  0.9093517065048218  0.11528474837541573  1.0000
  Si  Si4       1.0  0.5176529884338379  0.4492287039756775  0.5597604513168335  1.0000
  V   V1        1.0  0.021848494186997414  0.2752322256565094  0.05781484022736548  1.0000
  Y   Y1        1.0  0.01068449392914772  0.5904079079627991  0.4310219883918762  1.0000
  Y   Y2        1.0  0.5126937627792358  0.6051482558250427  0.568026602268219  1.0000
  Y   Y3        1.0  0.008770983666181564  0.6202747821807861  0.7800025343894958  1.0000
  Y   Y4        1.0  0.5181317925453186  0.23651371896266937  0.3064296245574951  1.0000
