data_image0
_chemical_formula_structural       BrGeO3TeU
_chemical_formula_sum              "Br1 Ge1 O3 Te1 U1"
_cell_length_a       5.387248125052764
_cell_length_b       5.355145249210808
_cell_length_c       5.3461527824401855
_cell_angle_alpha    90.02711414949981
_cell_angle_beta     90.01022623814565
_cell_angle_gamma    89.8390423579618

_space_group_name_H-M_alt    "P 1"
_space_group_IT_number       1

loop_
  _space_group_symop_operation_xyz
  'x, y, z'

loop_
  _atom_site_type_symbol
  _atom_site_label
  _atom_site_symmetry_multiplicity
  _atom_site_fract_x
  _atom_site_fract_y
  _atom_site_fract_z
  _atom_site_occupancy
  Br  Br1       1.0  0.4301631450653076  0.9069199562072754  0.07729406654834746  1.0000
  Ge  Ge1       1.0  0.7150121331214905  0.42611855268478394  0.3549781441688538  1.0000
  O   O1        1.0  0.4395958483219147  0.4039430022239685  0.5282816886901855  1.0000
  O   O2        1.0  0.9285833835601807  0.4030183255672455  0.5858944058418274  1.0000
  O   O3        1.0  0.9250778555870056  0.4034242630004883  0.09053673595190048  1.0000
  Te  Te1       1.0  0.9247942566871643  0.9074125289916992  0.5826067924499512  1.0000
  U   U1        1.0  0.21797846257686615  0.4188913106918335  0.8281213045120239  1.0000
