data_image0
_chemical_formula_structural       Br2O3U2
_chemical_formula_sum              "Br2 O3 U2"
_cell_length_a       3.927164125139537
_cell_length_b       4.008783365531285
_cell_length_c       9.87116813659668
_cell_angle_alpha    100.59711798322273
_cell_angle_beta     89.99109981445814
_cell_angle_gamma    90.03914742058865

_space_group_name_H-M_alt    "P 1"
_space_group_IT_number       1

loop_
  _space_group_symop_operation_xyz
  'x, y, z'

loop_
  _atom_site_type_symbol
  _atom_site_label
  _atom_site_symmetry_multiplicity
  _atom_site_fract_x
  _atom_site_fract_y
  _atom_site_fract_z
  _atom_site_occupancy
  Br  Br1       1.0  0.9621710777282715  0.8913484215736389  0.39433521032333374  1.0000
  Br  Br2       1.0  0.4675831198692322  0.6690747141838074  0.9896472692489624  1.0000
  O   O1        1.0  0.4640294313430786  0.015820100903511047  0.6769439578056335  1.0000
  O   O2        1.0  0.4611341059207916  0.30536922812461853  0.2498790025711059  1.0000
  O   O3        1.0  0.9596499800682068  0.5157497525215149  0.6771156191825867  1.0000
  U   U1        1.0  0.9627259969711304  0.2775428593158722  0.14674994349479675  1.0000
  U   U2        1.0  0.461973637342453  0.47435230016708374  0.5833520889282227  1.0000
