data_image0
_chemical_formula_structural       F4GaH2KMn2O3PVZn
_chemical_formula_sum              "F4 Ga1 H2 K1 Mn2 O3 P1 V1 Zn1"
_cell_length_a       5.421961639651141
_cell_length_b       6.63647835983015
_cell_length_c       7.8279314041137695
_cell_angle_alpha    113.094623547585
_cell_angle_beta     89.03500311232285
_cell_angle_gamma    90.20481335969737

_space_group_name_H-M_alt    "P 1"
_space_group_IT_number       1

loop_
  _space_group_symop_operation_xyz
  'x, y, z'

loop_
  _atom_site_type_symbol
  _atom_site_label
  _atom_site_symmetry_multiplicity
  _atom_site_fract_x
  _atom_site_fract_y
  _atom_site_fract_z
  _atom_site_occupancy
  F   F1        1.0  0.7075536251068115  0.6810435056686401  0.7550452947616577  1.0000
  F   F2        1.0  0.4855053126811981  0.2599441409111023  0.536342978477478  1.0000
  F   F3        1.0  0.6896714568138123  0.39066776633262634  0.0772852748632431  1.0000
  F   F4        1.0  0.9898473620414734  0.2339116632938385  0.3428957164287567  1.0000
  Ga  Ga1       1.0  0.2121838927268982  0.9183422923088074  0.803969144821167  1.0000
  H   H1        1.0  0.21482057869434357  0.08411567658185959  0.47383278608322144  1.0000
  H   H2        1.0  0.9596081972122192  0.0003649519057944417  0.15613411366939545  1.0000
  K   K1        1.0  0.2110443264245987  0.3347797393798828  0.44822758436203003  1.0000
  Mn  Mn1       1.0  0.2127356231212616  0.86082524061203  0.9727996587753296  1.0000
  Mn  Mn2       1.0  0.20917777717113495  0.9313887357711792  0.11020466685295105  1.0000
  O   O1        1.0  0.7021234631538391  0.6782065629959106  0.3304760158061981  1.0000
  O   O2        1.0  0.7126538157463074  0.4835231602191925  0.7833077907562256  1.0000
  O   O3        1.0  0.22038419544696808  0.7999716997146606  0.4097784161567688  1.0000
  P   P1        1.0  0.7043928503990173  0.42844346165657043  0.9101334810256958  1.0000
  V   V1        1.0  0.7015985250473022  0.6764842867851257  0.5467550158500671  1.0000
  Zn  Zn1       1.0  0.46843090653419495  0.07465358078479767  0.36127910017967224  1.0000
