data_image0
_chemical_formula_structural       F4H2MgMn3O4PZn
_chemical_formula_sum              "F4 H2 Mg1 Mn3 O4 P1 Zn1"
_cell_length_a       6.467302160093178
_cell_length_b       6.201568102465268
_cell_length_c       7.181943893432617
_cell_angle_alpha    72.53584949969625
_cell_angle_beta     76.32542684142537
_cell_angle_gamma    84.37584347156312

_space_group_name_H-M_alt    "P 1"
_space_group_IT_number       1

loop_
  _space_group_symop_operation_xyz
  'x, y, z'

loop_
  _atom_site_type_symbol
  _atom_site_label
  _atom_site_symmetry_multiplicity
  _atom_site_fract_x
  _atom_site_fract_y
  _atom_site_fract_z
  _atom_site_occupancy
  F   F1        1.0  0.7737754583358765  0.5257812142372131  0.3141045570373535  1.0000
  F   F2        1.0  0.2704324424266815  0.535632312297821  0.5826481580734253  1.0000
  F   F3        1.0  0.9432374238967894  0.7150055766105652  0.35131993889808655  1.0000
  F   F4        1.0  0.3163147270679474  0.7154911160469055  0.6338211297988892  1.0000
  H   H1        1.0  0.3077276647090912  0.031862787902355194  0.3538241982460022  1.0000
  H   H2        1.0  0.9691949486732482  0.5597845911979675  0.8237403631210327  1.0000
  Mg  Mg1       1.0  0.47927439212799067  0.2754374146461487  0.5113374590873718  1.0000
  Mn  Mn1       1.0  0.7474101781845093  0.5845852494239807  0.23893362283706665  1.0000
  Mn  Mn2       1.0  0.8244314193725586  0.678087055683136  0.7082182765007019  1.0000
  Mn  Mn3       1.0  0.740136981010437  0.45715066790580744  0.2535117566585541  1.0000
  O   O1        1.0  0.012108184397220615  0.8953748941421508  0.5769965052604675  1.0000
  O   O2        1.0  0.18737715482711792  0.9299058318138121  0.5478187799453735  1.0000
  O   O3        1.0  0.18905918300151825  0.3484061062335968  0.5661768317222595  1.0000
  O   O4        1.0  0.5707461833953857  0.5807898044586182  0.18544124066829681  1.0000
  P   P1        1.0  0.06661728769540787  0.6948983073234558  0.8859080672264099  1.0000
  Zn  Zn1       1.0  0.4983581602573394  0.37922152876853943  0.5549532175064087  1.0000
