data_image0
_chemical_formula_structural       Ag2F4H2Mn3O5
_chemical_formula_sum              "Ag2 F4 H2 Mn3 O5"
_cell_length_a       6.196146932715991
_cell_length_b       5.716364216673685
_cell_length_c       6.51814079284668
_cell_angle_alpha    59.24848341052607
_cell_angle_beta     58.30972323773146
_cell_angle_gamma    55.81918325670921

_space_group_name_H-M_alt    "P 1"
_space_group_IT_number       1

loop_
  _space_group_symop_operation_xyz
  'x, y, z'

loop_
  _atom_site_type_symbol
  _atom_site_label
  _atom_site_symmetry_multiplicity
  _atom_site_fract_x
  _atom_site_fract_y
  _atom_site_fract_z
  _atom_site_occupancy
  Ag  Ag1       1.0  0.017286762595176697  0.46210652589797974  0.3811303675174713  1.0000
  Ag  Ag2       1.0  0.6521748900413513  0.49158719182014465  0.6426088213920593  1.0000
  F   F1        1.0  0.5789532661437988  0.28354066610336304  0.1379779875278473  1.0000
  F   F2        1.0  0.37095966935157776  0.606338620185852  0.03492595627903938  1.0000
  F   F3        1.0  0.04179053753614426  0.13330020010471344  0.7164746522903442  1.0000
  F   F4        1.0  0.12219536304473877  0.16062933206558228  0.8016844391822815  1.0000
  H   H1        1.0  0.2784108817577362  0.7977982759475708  0.3656909167766571  1.0000
  H   H2        1.0  0.07808823138475418  0.14803066849708557  0.11005100607872009  1.0000
  Mn  Mn1       1.0  0.5181912183761597  0.09615658968687057  0.0032520252279937267  1.0000
  Mn  Mn2       1.0  0.6984197497367859  0.6012592315673828  0.44779640436172485  1.0000
  Mn  Mn3       1.0  0.8151355385780334  0.7613518238067627  0.12012051790952682  1.0000
  O   O1        1.0  0.6659820079803467  0.8914084434509277  0.4828595221042633  1.0000
  O   O2        1.0  0.05143653601408005  0.1316835731267929  0.5901994705200195  1.0000
  O   O3        1.0  0.536599338054657  0.8731552958488464  0.9323552846908569  1.0000
  O   O4        1.0  0.984447717666626  0.8850117325782776  0.48206230998039246  1.0000
  O   O5        1.0  0.5625055432319641  0.28915664553642273  0.9078929424285889  1.0000
