data_image0
_chemical_formula_structural       F4H3IKO6Tb
_chemical_formula_sum              "F4 H3 I1 K1 O6 Tb1"
_cell_length_a       5.104959804827655
_cell_length_b       5.280226060455041
_cell_length_c       6.633550643920898
_cell_angle_alpha    107.11297162095316
_cell_angle_beta     104.68656508098849
_cell_angle_gamma    118.41531893528493

_space_group_name_H-M_alt    "P 1"
_space_group_IT_number       1

loop_
  _space_group_symop_operation_xyz
  'x, y, z'

loop_
  _atom_site_type_symbol
  _atom_site_label
  _atom_site_symmetry_multiplicity
  _atom_site_fract_x
  _atom_site_fract_y
  _atom_site_fract_z
  _atom_site_occupancy
  F   F1        1.0  0.43872368335723877  0.9929438829421997  0.7121726870536804  1.0000
  F   F2        1.0  0.32650554180145264  0.49458497762680054  0.6981164813041687  1.0000
  F   F3        1.0  0.5126646161079407  0.348621129989624  0.12991464138031006  1.0000
  F   F4        1.0  0.42579758167266846  0.788565993309021  0.9851983189582825  1.0000
  H   H1        1.0  0.05671779811382294  0.7074143886566162  0.25326380133628845  1.0000
  H   H2        1.0  0.6292245388031006  0.015710126608610153  0.12888674437999728  1.0000
  H   H3        1.0  0.03897393122315407  0.9411826133728027  0.8612096309661865  1.0000
  I   I1        1.0  0.42534372210502625  0.6464605331420898  0.8647900223731995  1.0000
  K   K1        1.0  0.833391010761261  0.7780186533927917  0.7924163341522217  1.0000
  O   O1        1.0  0.04477028548717499  0.017309095710515976  0.7680726647377014  1.0000
  O   O2        1.0  0.8174333572387695  0.7681834697723389  0.681312620639801  1.0000
  O   O3        1.0  0.35946905612945557  0.38515451550483704  0.8752586245536804  1.0000
  O   O4        1.0  0.3206203579902649  0.08844657242298126  0.5139310359954834  1.0000
  O   O5        1.0  0.6225234866142273  0.12421881407499313  0.40110933780670166  1.0000
  O   O6        1.0  0.8652846813201904  0.12730398774147034  0.2709993422031403  1.0000
  Tb  Tb1       1.0  0.5340027213096619  0.8985148072242737  0.935075044631958  1.0000
