data_image0
_chemical_formula_structural       F5H4O7
_chemical_formula_sum              "F5 H4 O7"
_cell_length_a       5.797942690547976
_cell_length_b       6.023079486165328
_cell_length_c       6.863003730773926
_cell_angle_alpha    58.90130978098516
_cell_angle_beta     66.64836299249883
_cell_angle_gamma    59.892631851958384

_space_group_name_H-M_alt    "P 1"
_space_group_IT_number       1

loop_
  _space_group_symop_operation_xyz
  'x, y, z'

loop_
  _atom_site_type_symbol
  _atom_site_label
  _atom_site_symmetry_multiplicity
  _atom_site_fract_x
  _atom_site_fract_y
  _atom_site_fract_z
  _atom_site_occupancy
  F   F1        1.0  0.9026814103126526  0.603052020072937  0.9803371429443359  1.0000
  F   F2        1.0  0.1704527884721756  0.891597330570221  0.8433040380477905  1.0000
  F   F3        1.0  0.297453373670578  0.33800172805786133  0.7037990093231201  1.0000
  F   F4        1.0  0.6767007112503052  0.9336861968040466  0.9344858527183533  1.0000
  F   F5        1.0  0.3019609749317169  0.09983827918767929  0.4928966164588928  1.0000
  H   H1        1.0  0.44117191433906555  0.3898860216140747  0.29689955711364746  1.0000
  H   H2        1.0  0.838000476360321  0.43760544061660767  0.46990570425987244  1.0000
  H   H3        1.0  0.00042674236465245485  0.13495561480522156  0.8065540194511414  1.0000
  H   H4        1.0  0.9997337460517882  0.1434144824743271  0.5053808689117433  1.0000
  O   O1        1.0  0.4647079706192016  0.22106647491455078  0.42406797409057617  1.0000
  O   O2        1.0  0.5627007484436035  0.22886380553245544  0.7677010297775269  1.0000
  O   O3        1.0  0.908699631690979  0.048840440809726715  0.36648595333099365  1.0000
  O   O4        1.0  0.5796423554420471  0.926379382610321  0.8880780935287476  1.0000
  O   O5        1.0  0.1756191849708557  0.7735176086425781  0.49449652433395386  1.0000
  O   O6        1.0  0.7381832599639893  0.9491198062896729  0.5514678955078125  1.0000
  O   O7        1.0  0.7137328386306763  0.7173980474472046  0.6697760820388794  1.0000
