data_image0
_chemical_formula_structural       AgAsBrF3HMn3O6
_chemical_formula_sum              "Ag1 As1 Br1 F3 H1 Mn3 O6"
_cell_length_a       6.113047281185298
_cell_length_b       6.05269224253395
_cell_length_c       6.735055446624756
_cell_angle_alpha    68.34880481625127
_cell_angle_beta     67.18669715111675
_cell_angle_gamma    63.2943735560173

_space_group_name_H-M_alt    "P 1"
_space_group_IT_number       1

loop_
  _space_group_symop_operation_xyz
  'x, y, z'

loop_
  _atom_site_type_symbol
  _atom_site_label
  _atom_site_symmetry_multiplicity
  _atom_site_fract_x
  _atom_site_fract_y
  _atom_site_fract_z
  _atom_site_occupancy
  Ag  Ag1       1.0  0.05508612096309661  0.4231255352497101  0.4438003897666931  1.0000
  As  As1       1.0  0.7084890604019165  0.6678600311279297  0.3850003778934479  1.0000
  Br  Br1       1.0  0.056518308818340295  0.3296716511249542  0.43497949838638306  1.0000
  F   F1        1.0  0.21404409408569333  0.6398046016693115  0.18425095081329346  1.0000
  F   F2        1.0  0.6060273051261902  0.640460729598999  0.6587066650390625  1.0000
  F   F3        1.0  0.5712108612060547  0.39740511775016785  0.06994564086198807  1.0000
  H   H1        1.0  0.22290183603763578  0.5263590812683105  0.30126917362213135  1.0000
  Mn  Mn1       1.0  0.6275131106376648  0.9312201738357544  0.8349343538284302  1.0000
  Mn  Mn2       1.0  0.7023934721946716  0.8532712459564209  0.9225307703018188  1.0000
  Mn  Mn3       1.0  0.05157762765884399  0.5033900737762451  0.3948379456996918  1.0000
  O   O1        1.0  0.27780693769454956  0.07792964577674866  0.8277661800384521  1.0000
  O   O2        1.0  0.05563331395387649  0.06481961905956268  0.35122445225715637  1.0000
  O   O3        1.0  0.11800797283649443  0.6739341020584106  0.1026692986488342  1.0000
  O   O4        1.0  0.5999903678894043  0.834732174873352  0.21045397222042084  1.0000
  O   O5        1.0  0.7298870086669921  0.3569175601005554  0.29443061351776123  1.0000
  O   O6        1.0  0.5752249360084534  0.18928401172161102  0.9713253974914551  1.0000
