data_image0
_chemical_formula_structural       FeLuZn6
_chemical_formula_sum              "Fe1 Lu1 Zn6"
_cell_length_a       5.558470444458514
_cell_length_b       6.133165057420373
_cell_length_c       6.30446720123291
_cell_angle_alpha    108.41838137298478
_cell_angle_beta     106.59580904706297
_cell_angle_gamma    112.43533637417222

_space_group_name_H-M_alt    "P 1"
_space_group_IT_number       1

loop_
  _space_group_symop_operation_xyz
  'x, y, z'

loop_
  _atom_site_type_symbol
  _atom_site_label
  _atom_site_symmetry_multiplicity
  _atom_site_fract_x
  _atom_site_fract_y
  _atom_site_fract_z
  _atom_site_occupancy
  Fe  Fe1       1.0  0.5331577658653259  0.3908969461917877  0.1358312517404556  1.0000
  Lu  Lu1       1.0  0.1294618844985962  0.5673810839653015  0.7926921248435974  1.0000
  Zn  Zn1       1.0  0.19398415088653564  0.14712946116924286  0.5817310214042664  1.0000
  Zn  Zn2       1.0  0.5866098403930664  0.628797173500061  0.5270277857780457  1.0000
  Zn  Zn3       1.0  0.20253711938858032  0.7006361484527588  0.60417640209198  1.0000
  Zn  Zn4       1.0  0.6002746820449829  0.5470431447029114  0.9033677577972412  1.0000
  Zn  Zn5       1.0  0.8459407091140747  0.10174872726202011  0.2864049971103668  1.0000
  Zn  Zn6       1.0  0.844049870967865  0.10067068785429001  0.017587464302778244  1.0000
