data_image0
_chemical_formula_structural       Lu2Zn6
_chemical_formula_sum              "Lu2 Zn6"
_cell_length_a       4.86946342274715
_cell_length_b       6.751092152944548
_cell_length_c       6.321342945098877
_cell_angle_alpha    117.73384414828075
_cell_angle_beta     88.07435654156782
_cell_angle_gamma    88.88443596037261

_space_group_name_H-M_alt    "P 1"
_space_group_IT_number       1

loop_
  _space_group_symop_operation_xyz
  'x, y, z'

loop_
  _atom_site_type_symbol
  _atom_site_label
  _atom_site_symmetry_multiplicity
  _atom_site_fract_x
  _atom_site_fract_y
  _atom_site_fract_z
  _atom_site_occupancy
  Lu  Lu1       1.0  0.6574661731719971  0.2818409204483032  0.7402730584144592  1.0000
  Lu  Lu2       1.0  0.9159438610076904  0.8156905174255371  0.3849020600318909  1.0000
  Zn  Zn1       1.0  0.41307854652404785  0.7051757574081421  0.4715552628040314  1.0000
  Zn  Zn2       1.0  0.6563255190849304  0.8755356669425964  0.8648867607116699  1.0000
  Zn  Zn3       1.0  0.1532188504934311  0.8806413412094116  0.055987223982811044  1.0000
  Zn  Zn4       1.0  0.4020981788635254  0.5286872386932373  0.9591906666755676  1.0000
  Zn  Zn5       1.0  0.9116235971450806  0.33120331168174744  0.831777811050415  1.0000
  Zn  Zn6       1.0  0.15030843019485474  0.9630795121192933  0.34050524234771734  1.0000
