data_image0
_chemical_formula_structural       PrZn7
_chemical_formula_sum              "Pr1 Zn7"
_cell_length_a       5.612145866127868
_cell_length_b       6.187228038399301
_cell_length_c       6.39964485168457
_cell_angle_alpha    113.00459184505502
_cell_angle_beta     101.23971071658963
_cell_angle_gamma    107.77122627432068

_space_group_name_H-M_alt    "P 1"
_space_group_IT_number       1

loop_
  _space_group_symop_operation_xyz
  'x, y, z'

loop_
  _atom_site_type_symbol
  _atom_site_label
  _atom_site_symmetry_multiplicity
  _atom_site_fract_x
  _atom_site_fract_y
  _atom_site_fract_z
  _atom_site_occupancy
  Pr  Pr1       1.0  0.5081477761268616  0.7848653197288513  0.7567208409309387  1.0000
  Zn  Zn1       1.0  0.06988237798213959  0.561271071434021  0.8760231733322144  1.0000
  Zn  Zn2       1.0  0.5586186647415161  0.2924083471298218  0.12495678663253784  1.0000
  Zn  Zn3       1.0  0.8059746623039246  0.8384791016578674  0.5831320881843567  1.0000
  Zn  Zn4       1.0  0.01443169452250004  0.20359690487384796  0.37577125430107117  1.0000
  Zn  Zn5       1.0  0.3159030079841614  0.38401907682418823  0.3816435933113098  1.0000
  Zn  Zn6       1.0  0.11372575163841249  0.8603532910346985  0.2510901689529419  1.0000
  Zn  Zn7       1.0  0.4674002826213837  0.26593849062919617  0.869637668132782  1.0000
