data_image0
_chemical_formula_structural       Lu2Zn6
_chemical_formula_sum              "Lu2 Zn6"
_cell_length_a       4.645951282253754
_cell_length_b       5.994243302326929
_cell_length_c       6.192404747009277
_cell_angle_alpha    122.78439114862852
_cell_angle_beta     85.19866366314821
_cell_angle_gamma    91.57099789772568

_space_group_name_H-M_alt    "P 1"
_space_group_IT_number       1

loop_
  _space_group_symop_operation_xyz
  'x, y, z'

loop_
  _atom_site_type_symbol
  _atom_site_label
  _atom_site_symmetry_multiplicity
  _atom_site_fract_x
  _atom_site_fract_y
  _atom_site_fract_z
  _atom_site_occupancy
  Lu  Lu1       1.0  0.5424414277076721  0.5872176289558411  0.6055637001991272  1.0000
  Lu  Lu2       1.0  0.5306437015533447  0.9377526640892028  0.08004984259605401  1.0000
  Zn  Zn1       1.0  0.01968597434461117  0.9467300176620482  0.4431057572364807  1.0000
  Zn  Zn2       1.0  0.5434046387672424  0.10139728337526321  0.4155239462852478  1.0000
  Zn  Zn3       1.0  0.5386022329330444  0.5442389845848083  0.8795617818832397  1.0000
  Zn  Zn4       1.0  0.004549384117126465  0.6052281260490417  0.40925371646881104  1.0000
  Zn  Zn5       1.0  0.0206669382750988  0.3409617245197296  0.10478214174509048  1.0000
  Zn  Zn6       1.0  0.2788205146789551  0.637701690196991  0.13547578454017636  1.0000
