data_image0
_chemical_formula_structural       Dy11HISeZn
_chemical_formula_sum              "Dy11 H1 I1 Se1 Zn1"
_cell_length_a       5.697250653553248
_cell_length_b       7.708373501098878
_cell_length_c       7.896280765533447
_cell_angle_alpha    127.25632210015036
_cell_angle_beta     91.18553476032805
_cell_angle_gamma    86.81573423979746

_space_group_name_H-M_alt    "P 1"
_space_group_IT_number       1

loop_
  _space_group_symop_operation_xyz
  'x, y, z'

loop_
  _atom_site_type_symbol
  _atom_site_label
  _atom_site_symmetry_multiplicity
  _atom_site_fract_x
  _atom_site_fract_y
  _atom_site_fract_z
  _atom_site_occupancy
  Dy  Dy1       1.0  0.9450709819793701  0.902733564376831  0.33422380685806274  1.0000
  Dy  Dy2       1.0  0.45809632539749146  0.6397469639778137  0.8106483817100525  1.0000
  Dy  Dy3       1.0  0.4684208035469055  0.4934844970703125  0.24163056910037992  1.0000
  Dy  Dy4       1.0  0.4565316438674927  0.1710873246192932  0.6434596180915833  1.0000
  Dy  Dy5       1.0  0.9221450686454773  0.8515993356704712  0.7995216250419618  1.0000
  Dy  Dy6       1.0  0.9530546069145203  0.5774455070495605  0.9288215637207031  1.0000
  Dy  Dy7       1.0  0.47371819615364075  0.4201752245426178  0.5244617462158203  1.0000
  Dy  Dy8       1.0  0.5984525680541992  0.7549988031387329  0.7800518274307251  1.0000
  Dy  Dy9       1.0  0.9231627583503723  0.7882459163665771  0.630242645740509  1.0000
  Dy  Dy10      1.0  0.945431113243103  0.6774998307228088  0.4442051947116851  1.0000
  Dy  Dy11      1.0  0.45403704047203064  0.28945592045783997  0.8967134952545165  1.0000
  H   H1        1.0  0.9360260367393494  0.18725000321865082  0.5425044298171997  1.0000
  I   I1        1.0  0.4207591414451599  0.7933708429336548  0.6736310124397278  1.0000
  Se  Se1       1.0  0.9818288087844849  0.044241003692150116  0.6356654763221741  1.0000
  Zn  Zn1       1.0  0.9380270838737488  0.5815064907073975  0.45939293503761286  1.0000
