data_image0
_chemical_formula_structural       Dy12InSbTb
_chemical_formula_sum              "Dy12 In1 Sb1 Tb1"
_cell_length_a       6.4685559737151515
_cell_length_b       8.40689163192772
_cell_length_c       7.884085178375244
_cell_angle_alpha    123.85146067196082
_cell_angle_beta     90.006865516866
_cell_angle_gamma    89.45658481913732

_space_group_name_H-M_alt    "P 1"
_space_group_IT_number       1

loop_
  _space_group_symop_operation_xyz
  'x, y, z'

loop_
  _atom_site_type_symbol
  _atom_site_label
  _atom_site_symmetry_multiplicity
  _atom_site_fract_x
  _atom_site_fract_y
  _atom_site_fract_z
  _atom_site_occupancy
  Dy  Dy1       1.0  0.5080296397209167  0.489501953125  0.6248969435691832  1.0000
  Dy  Dy2       1.0  0.010209489613771439  0.9088510870933533  0.08850687742233287  1.0000
  Dy  Dy3       1.0  0.5092797875404358  0.6302164793014526  0.09048607200384139  1.0000
  Dy  Dy4       1.0  0.006768584251403809  0.8871728181838989  0.5574355125427246  1.0000
  Dy  Dy5       1.0  0.5077570080757141  0.5038886666297913  0.8558681607246398  1.0000
  Dy  Dy6       1.0  0.5103061199188232  0.8128651976585388  0.5572105050086975  1.0000
  Dy  Dy7       1.0  0.5081565380096436  0.9633020758628845  0.8044155240058898  1.0000
  Dy  Dy8       1.0  0.5082100033760071  0.23016045987606049  0.8289287090301513  1.0000
  Dy  Dy9       1.0  0.5087292790412903  0.31979745626449585  0.26439040899276733  1.0000
  Dy  Dy10      1.0  0.006855607032775879  0.621767520904541  0.16363172233104703  1.0000
  Dy  Dy11      1.0  0.01270082127302885  0.2495102733373642  0.03465875238180163  1.0000
  Dy  Dy12      1.0  0.007675257045775652  0.5485675930976868  0.5419162511825562  1.0000
  In  In1       1.0  0.026215646415948868  0.7711238861083984  0.7553427219390868  1.0000
  Sb  Sb1       1.0  0.0084743807092309  0.8684402108192444  0.809321403503418  1.0000
  Tb  Tb1       1.0  0.008480390533804893  0.5031910538673401  0.2572233974933624  1.0000
