data_image0
_chemical_formula_structural       CaCoDy10GeMgSe
_chemical_formula_sum              "Ca1 Co1 Dy10 Ge1 Mg1 Se1"
_cell_length_a       6.271422820451832
_cell_length_b       8.39857546965409
_cell_length_c       8.471538543701172
_cell_angle_alpha    123.89512680999145
_cell_angle_beta     88.18272842476969
_cell_angle_gamma    89.44882334514261

_space_group_name_H-M_alt    "P 1"
_space_group_IT_number       1

loop_
  _space_group_symop_operation_xyz
  'x, y, z'

loop_
  _atom_site_type_symbol
  _atom_site_label
  _atom_site_symmetry_multiplicity
  _atom_site_fract_x
  _atom_site_fract_y
  _atom_site_fract_z
  _atom_site_occupancy
  Ca  Ca1       1.0  0.444657564163208  0.3452794551849365  0.6260126233100891  1.0000
  Co  Co1       1.0  0.4395705759525299  0.6151432394981384  0.7109429836273193  1.0000
  Dy  Dy1       1.0  0.9443074464797974  0.39046111702919006  0.6127286553382874  1.0000
  Dy  Dy2       1.0  0.44271135330200195  0.650591254234314  0.9666920900344849  1.0000
  Dy  Dy3       1.0  0.933910071849823  0.6539987921714783  0.7597100138664246  1.0000
  Dy  Dy4       1.0  0.9432578682899475  0.6006452441215515  0.40452057123184204  1.0000
  Dy  Dy5       1.0  0.4412841200828552  0.923585593700409  0.6424194574356079  1.0000
  Dy  Dy6       1.0  0.9454705119132996  0.3728047013282776  0.1807582974433899  1.0000
  Dy  Dy7       1.0  0.9435028433799744  0.8606437444686891  0.5044313073158264  1.0000
  Dy  Dy8       1.0  0.9490385055541992  0.10828980058431627  0.6397542357444763  1.0000
  Dy  Dy9       1.0  0.939339816570282  0.007239995989948512  0.43481263518333435  1.0000
  Dy  Dy10      1.0  0.4461425542831421  0.4760482609272004  0.26360505819320684  1.0000
  Ge  Ge1       1.0  0.4404197633266449  0.759496808052063  0.9711369872093201  1.0000
  Mg  Mg1       1.0  0.9413203001022339  0.18659161031246185  0.574763834476471  1.0000
  Se  Se1       1.0  0.9410672783851624  0.9416739344596864  0.4011267423629761  1.0000
