data_image0
_chemical_formula_structural       CuDy2Se7SiSn4
_chemical_formula_sum              "Cu1 Dy2 Se7 Si1 Sn4"
_cell_length_a       7.486189467687976
_cell_length_b       8.569666639576836
_cell_length_c       8.823749542236328
_cell_angle_alpha    121.29072057243135
_cell_angle_beta     90.41013051113245
_cell_angle_gamma    94.2827219592177

_space_group_name_H-M_alt    "P 1"
_space_group_IT_number       1

loop_
  _space_group_symop_operation_xyz
  'x, y, z'

loop_
  _atom_site_type_symbol
  _atom_site_label
  _atom_site_symmetry_multiplicity
  _atom_site_fract_x
  _atom_site_fract_y
  _atom_site_fract_z
  _atom_site_occupancy
  Cu  Cu1       1.0  0.007087393663823605  0.2043023705482483  0.29407307505607605  1.0000
  Dy  Dy1       1.0  0.9362756609916687  0.16648665070533752  0.3570183515548706  1.0000
  Dy  Dy2       1.0  0.46291130781173706  0.26747387647628784  0.20613664388656616  1.0000
  Se  Se1       1.0  0.12426032871007918  0.502502977848053  0.6690502166748047  1.0000
  Se  Se2       1.0  0.556205689907074  0.6161722540855408  0.19226551055908203  1.0000
  Se  Se3       1.0  0.9432353377342224  0.6041122078895569  0.9697229266166687  1.0000
  Se  Se4       1.0  0.4419172704219818  0.7147523164749146  0.05845422297716141  1.0000
  Se  Se5       1.0  0.5949087738990784  0.034347258508205414  0.69122713804245  1.0000
  Se  Se6       1.0  0.41541382670402527  0.08755645900964737  0.46243223547935486  1.0000
  Se  Se7       1.0  0.4099661409854889  0.2819540500640869  0.8305257558822632  1.0000
  Si  Si1       1.0  0.8836914300918579  0.9306705594062805  0.06668578833341599  1.0000
  Sn  Sn1       1.0  0.41761186718940735  0.15958236157894135  0.5559653639793396  1.0000
  Sn  Sn2       1.0  0.9404528737068176  0.3253917098045349  0.009159638546407223  1.0000
  Sn  Sn3       1.0  0.16933800280094147  0.06667802482843399  0.6855955719947815  1.0000
  Sn  Sn4       1.0  0.9067118167877197  0.48939740657806396  0.7625249028205872  1.0000
