data_image0
_chemical_formula_structural       Cu3Dy3GeSe7Sn
_chemical_formula_sum              "Cu3 Dy3 Ge1 Se7 Sn1"
_cell_length_a       5.6886265181918665
_cell_length_b       8.102126484058772
_cell_length_c       7.94163703918457
_cell_angle_alpha    124.64149663262499
_cell_angle_beta     90.60381975968016
_cell_angle_gamma    90.82203511766994

_space_group_name_H-M_alt    "P 1"
_space_group_IT_number       1

loop_
  _space_group_symop_operation_xyz
  'x, y, z'

loop_
  _atom_site_type_symbol
  _atom_site_label
  _atom_site_symmetry_multiplicity
  _atom_site_fract_x
  _atom_site_fract_y
  _atom_site_fract_z
  _atom_site_occupancy
  Cu  Cu1       1.0  0.9534258246421814  0.5606997013092041  0.7845175862312317  1.0000
  Cu  Cu2       1.0  0.47118398547172546  0.24152219295501706  0.7452634572982787  1.0000
  Cu  Cu3       1.0  0.48832184076309204  0.7541079521179199  0.07635816186666483  1.0000
  Dy  Dy1       1.0  0.4624543786048889  0.45101878046989435  0.07863646745681763  1.0000
  Dy  Dy2       1.0  0.2194741666316986  0.7012647390365601  0.6904340386390686  1.0000
  Dy  Dy3       1.0  0.9801509380340576  0.3212350606918335  0.017926253378391266  1.0000
  Ge  Ge1       1.0  0.6953732371330261  0.04602867737412453  0.5545785427093506  1.0000
  Se  Se1       1.0  0.20537076890468597  0.32232609391212463  0.5076557397842407  1.0000
  Se  Se2       1.0  0.9444778561592102  0.13049012422561646  0.42454338073730463  1.0000
  Se  Se3       1.0  0.47228115797042847  0.0011112489737570286  0.5545654892921448  1.0000
  Se  Se4       1.0  0.9147674441337585  0.6003485321998596  0.7116425633430481  1.0000
  Se  Se5       1.0  0.4891456663608551  0.12708213925361633  0.6852624416351318  1.0000
  Se  Se6       1.0  0.9575413465499878  0.12802574038505554  0.37723514437675476  1.0000
  Se  Se7       1.0  0.20163074135780334  0.07742889970541  0.049385927617549896  1.0000
  Sn  Sn1       1.0  0.48375633358955383  0.7816472649574279  0.5372443795204163  1.0000
