data_image0
_chemical_formula_structural       Dy11GeSe2Zn
_chemical_formula_sum              "Dy11 Ge1 Se2 Zn1"
_cell_length_a       6.084880580203164
_cell_length_b       7.732733314586646
_cell_length_c       7.778050422668457
_cell_angle_alpha    126.07357268879632
_cell_angle_beta     90.34361200647899
_cell_angle_gamma    89.00293180336138

_space_group_name_H-M_alt    "P 1"
_space_group_IT_number       1

loop_
  _space_group_symop_operation_xyz
  'x, y, z'

loop_
  _atom_site_type_symbol
  _atom_site_label
  _atom_site_symmetry_multiplicity
  _atom_site_fract_x
  _atom_site_fract_y
  _atom_site_fract_z
  _atom_site_occupancy
  Dy  Dy1       1.0  0.35356685519218445  0.26038870215415955  0.9721336364746094  1.0000
  Dy  Dy2       1.0  0.8506365418434143  0.255729615688324  0.27897408604621887  1.0000
  Dy  Dy3       1.0  0.8486427068710327  0.07476170361042023  0.6457031965255737  1.0000
  Dy  Dy4       1.0  0.8416086435317993  0.9922244548797607  0.7202695012092589  1.0000
  Dy  Dy5       1.0  0.0901256576180458  0.03988173231482506  0.8464334607124329  1.0000
  Dy  Dy6       1.0  0.35412532091140747  0.7121698260307312  0.6191217303276062  1.0000
  Dy  Dy7       1.0  0.8562025427818298  0.08016085624694824  0.08531024307012558  1.0000
  Dy  Dy8       1.0  0.5807116627693176  0.7485334873199463  0.2920271754264831  1.0000
  Dy  Dy9       1.0  0.34626349806785583  0.6582144498825073  0.22556635737419123  1.0000
  Dy  Dy10      1.0  0.8396008610725403  0.8477635979652405  0.7925379872322083  1.0000
  Dy  Dy11      1.0  0.35901302099227905  0.670956015586853  0.08254527300596232  1.0000
  Ge  Ge1       1.0  0.46453288197517395  0.561663806438446  0.46202516555786133  1.0000
  Se  Se1       1.0  0.35097602009773254  0.7284003496170044  0.15795758366584778  1.0000
  Se  Se2       1.0  0.7692762613296509  0.3951738178730011  0.8467525243759155  1.0000
  Zn  Zn1       1.0  0.8531016111373901  0.2692548632621765  0.9923578500747681  1.0000
