data_image0
_chemical_formula_structural       CaNd4Pt2
_chemical_formula_sum              "Ca1 Nd4 Pt2"
_cell_length_a       4.76183811367655
_cell_length_b       6.2968106038975415
_cell_length_c       6.2081451416015625
_cell_angle_alpha    119.72432357321422
_cell_angle_beta     89.49082945552742
_cell_angle_gamma    89.33987945775772

_space_group_name_H-M_alt    "P 1"
_space_group_IT_number       1

loop_
  _space_group_symop_operation_xyz
  'x, y, z'

loop_
  _atom_site_type_symbol
  _atom_site_label
  _atom_site_symmetry_multiplicity
  _atom_site_fract_x
  _atom_site_fract_y
  _atom_site_fract_z
  _atom_site_occupancy
  Ca  Ca1       1.0  0.6228702068328857  0.6116357445716858  0.274341344833374  1.0000
  Nd  Nd1       1.0  0.11422006040811539  0.6068518757820129  0.5866725444793701  1.0000
  Nd  Nd2       1.0  0.6172322630882263  0.10221189260482788  0.871922492980957  1.0000
  Nd  Nd3       1.0  0.1209634467959404  0.35564878582954407  0.29336807131767273  1.0000
  Nd  Nd4       1.0  0.6139956116676331  0.8851222395896912  0.06910307705402374  1.0000
  Pt  Pt1       1.0  0.13197970390319824  0.3360367715358734  0.005283060483634472  1.0000
  Pt  Pt2       1.0  0.12056989222764969  0.09158682823181152  0.19079560041427612  1.0000
