data_image0
_chemical_formula_structural       ClNNbNd2PdZn
_chemical_formula_sum              "Cl1 N1 Nb1 Nd2 Pd1 Zn1"
_cell_length_a       5.422646190193917
_cell_length_b       5.5298255906247
_cell_length_c       6.359917640686035
_cell_angle_alpha    107.85878709592713
_cell_angle_beta     103.47076618297824
_cell_angle_gamma    110.35941466134035

_space_group_name_H-M_alt    "P 1"
_space_group_IT_number       1

loop_
  _space_group_symop_operation_xyz
  'x, y, z'

loop_
  _atom_site_type_symbol
  _atom_site_label
  _atom_site_symmetry_multiplicity
  _atom_site_fract_x
  _atom_site_fract_y
  _atom_site_fract_z
  _atom_site_occupancy
  Cl  Cl1       1.0  0.5533208250999451  0.4524126350879669  0.14087922871112823  1.0000
  N   N1        1.0  0.25302666425704956  0.6383400559425354  0.6920406222343445  1.0000
  Nb  Nb1       1.0  0.7518121004104614  0.2092818170785904  0.9025604128837584  1.0000
  Nd  Nd1       1.0  0.14338693022727966  0.6842796802520752  0.13606791198253626  1.0000
  Nd  Nd2       1.0  0.5931057929992676  0.5066711902618408  0.6704124212265015  1.0000
  Pd  Pd1       1.0  0.39743366837501526  0.02326274663209915  0.3330801725387573  1.0000
  Zn  Zn1       1.0  0.844007670879364  0.6019082069396973  0.4962677955627441  1.0000
