data_image0
_chemical_formula_structural       DyGe2IInO2Pb2Se
_chemical_formula_sum              "Dy1 Ge2 I1 In1 O2 Pb2 Se1"
_cell_length_a       6.185411195602609
_cell_length_b       7.7641064868797045
_cell_length_c       8.081426620483398
_cell_angle_alpha    122.31457493175921
_cell_angle_beta     90.9961455862029
_cell_angle_gamma    89.95472330959657

_space_group_name_H-M_alt    "P 1"
_space_group_IT_number       1

loop_
  _space_group_symop_operation_xyz
  'x, y, z'

loop_
  _atom_site_type_symbol
  _atom_site_label
  _atom_site_symmetry_multiplicity
  _atom_site_fract_x
  _atom_site_fract_y
  _atom_site_fract_z
  _atom_site_occupancy
  Dy  Dy1       1.0  0.11698690801858902  0.8768664598464966  0.2819465398788452  1.0000
  Ge  Ge1       1.0  0.6353753805160522  0.6122851967811584  0.2536686360836029  1.0000
  Ge  Ge2       1.0  0.0990254357457161  0.7526713609695435  0.4178165197372436  1.0000
  I   I1        1.0  0.6025127172470093  0.8321681022644043  0.5577471852302551  1.0000
  In  In1       1.0  0.11451952904462814  0.6911768913269043  0.30693036317825323  1.0000
  O   O1        1.0  0.0935729444026947  0.9621948003768921  0.5608463287353516  1.0000
  O   O2        1.0  0.5889943838119507  0.3588924705982208  0.0026984282303601503  1.0000
  Pb  Pb1       1.0  0.6204803586006165  0.1732463389635086  0.9021503329277039  1.0000
  Pb  Pb2       1.0  0.5979776382446289  0.2335626780986786  0.16129551827907562  1.0000
  Se  Se1       1.0  0.15086400508880615  0.27345630526542664  0.908104419708252  1.0000
