data_image0
_chemical_formula_structural       GeI4LiOPSeZn
_chemical_formula_sum              "Ge1 I4 Li1 O1 P1 Se1 Zn1"
_cell_length_a       5.638429825856955
_cell_length_b       7.001387825493055
_cell_length_c       8.699873924255371
_cell_angle_alpha    118.02383934597451
_cell_angle_beta     90.18158767725805
_cell_angle_gamma    89.721294013124

_space_group_name_H-M_alt    "P 1"
_space_group_IT_number       1

loop_
  _space_group_symop_operation_xyz
  'x, y, z'

loop_
  _atom_site_type_symbol
  _atom_site_label
  _atom_site_symmetry_multiplicity
  _atom_site_fract_x
  _atom_site_fract_y
  _atom_site_fract_z
  _atom_site_occupancy
  Ge  Ge1       1.0  0.6654354929924011  0.859226405620575  0.48810550570487976  1.0000
  I   I1        1.0  0.1486024111509323  0.28742459416389465  0.8302258253097534  1.0000
  I   I2        1.0  0.12227832525968552  0.9437351822853088  0.7132971882820129  1.0000
  I   I3        1.0  0.1360648274421692  0.28425532579421997  0.20966610312461853  1.0000
  I   I4        1.0  0.13261491060256958  0.36293652653694153  0.6957281231880188  1.0000
  Li  Li1       1.0  0.6583478450775146  0.04782332479953766  0.4528436064720154  1.0000
  O   O1        1.0  0.4326445460319519  0.06531035155057907  0.5093041658401489  1.0000
  P   P1        1.0  0.6808013319969177  0.69455486536026  0.2238418608903885  1.0000
  Se  Se1       1.0  0.17148146033287048  0.23276475071907043  0.6089506149291992  1.0000
  Zn  Zn1       1.0  0.6390539407730103  0.47971436381340027  0.39903557300567627  1.0000
