data_image0
_chemical_formula_structural       O2Se6Th2
_chemical_formula_sum              "O2 Se6 Th2"
_cell_length_a       5.890914690921382
_cell_length_b       6.386833675078979
_cell_length_c       6.629690170288086
_cell_angle_alpha    116.21370503874286
_cell_angle_beta     114.56564532978817
_cell_angle_gamma    95.69365046554842

_space_group_name_H-M_alt    "P 1"
_space_group_IT_number       1

loop_
  _space_group_symop_operation_xyz
  'x, y, z'

loop_
  _atom_site_type_symbol
  _atom_site_label
  _atom_site_symmetry_multiplicity
  _atom_site_fract_x
  _atom_site_fract_y
  _atom_site_fract_z
  _atom_site_occupancy
  O   O1        1.0  0.5341174602508545  0.9830645322799683  0.20572257041931155  1.0000
  O   O2        1.0  0.5389319062232971  0.0191135723143816  0.19878184795379641  1.0000
  Se  Se1       1.0  0.5393832921981812  0.2368071973323822  0.5724743604660034  1.0000
  Se  Se2       1.0  0.5261391401290894  0.5226181149482727  0.3762851655483246  1.0000
  Se  Se3       1.0  0.031916286796331406  0.9177276492118835  0.14930883049964905  1.0000
  Se  Se4       1.0  0.042726196348667145  0.4976044297218323  0.44248023629188543  1.0000
  Se  Se5       1.0  0.029910638928413388  0.673166036605835  0.9681173563003541  1.0000
  Se  Se6       1.0  0.02088354527950287  0.20055776834487915  0.906622886657715  1.0000
  Th  Th1       1.0  0.5374770760536194  0.23280273377895355  0.678589403629303  1.0000
  Th  Th2       1.0  0.03133886680006981  0.7785602807998657  0.0918920561671257  1.0000
