data_image0
_chemical_formula_structural       AgGe3I3IrOSe
_chemical_formula_sum              "Ag1 Ge3 I3 Ir1 O1 Se1"
_cell_length_a       5.495962427066529
_cell_length_b       6.392170383289233
_cell_length_c       6.892045974731445
_cell_angle_alpha    123.5050920001695
_cell_angle_beta     92.08813030399496
_cell_angle_gamma    88.54173439376602

_space_group_name_H-M_alt    "P 1"
_space_group_IT_number       1

loop_
  _space_group_symop_operation_xyz
  'x, y, z'

loop_
  _atom_site_type_symbol
  _atom_site_label
  _atom_site_symmetry_multiplicity
  _atom_site_fract_x
  _atom_site_fract_y
  _atom_site_fract_z
  _atom_site_occupancy
  Ag  Ag1       1.0  0.6241609454154968  0.269235223531723  0.24266602098941806  1.0000
  Ge  Ge1       1.0  0.3745500445365906  0.3599688708782196  0.25509923696517944  1.0000
  Ge  Ge2       1.0  0.12223518639802933  0.4762534201145172  0.029523046687245372  1.0000
  Ge  Ge3       1.0  0.12178226560354233  0.45542851090431213  0.6876542568206788  1.0000
  I   I1        1.0  0.10024131089448929  0.6889020800590515  0.5632902383804321  1.0000
  I   I2        1.0  0.6182321310043335  0.8201589584350586  0.4299294948577881  1.0000
  I   I3        1.0  0.12413284182548523  0.9280019998550415  0.6153632998466493  1.0000
  Ir  Ir1       1.0  0.12072139233350754  0.8775116205215454  0.9942914843559266  1.0000
  O   O1        1.0  0.613789975643158  0.2170984297990799  0.4838264882564545  1.0000
  Se  Se1       1.0  0.6281694769859314  0.5323564410209656  0.13597232103347778  1.0000
