data_image0
_chemical_formula_structural       CaGeI4O2Se2
_chemical_formula_sum              "Ca1 Ge1 I4 O2 Se2"
_cell_length_a       5.724990813178265
_cell_length_b       6.029969514593551
_cell_length_c       7.65945291519165
_cell_angle_alpha    115.29190116523861
_cell_angle_beta     98.25042113862409
_cell_angle_gamma    109.70438475747441

_space_group_name_H-M_alt    "P 1"
_space_group_IT_number       1

loop_
  _space_group_symop_operation_xyz
  'x, y, z'

loop_
  _atom_site_type_symbol
  _atom_site_label
  _atom_site_symmetry_multiplicity
  _atom_site_fract_x
  _atom_site_fract_y
  _atom_site_fract_z
  _atom_site_occupancy
  Ca  Ca1       1.0  0.2365803122520447  0.4041644334793091  0.795495331287384  1.0000
  Ge  Ge1       1.0  0.7374553680419922  0.8637146353721619  0.5287458300590515  1.0000
  I   I1        1.0  0.7447317242622375  0.5631330609321594  0.6220130920410156  1.0000
  I   I2        1.0  0.7372296452522278  0.8583109974861145  0.16842757165431976  1.0000
  I   I3        1.0  0.7553450465202332  0.17859862744808197  0.22043120861053467  1.0000
  I   I4        1.0  0.27272525429725647  0.9350369572639465  0.1416677087545395  1.0000
  O   O1        1.0  0.7787313461303711  0.8495684862136841  0.7003517746925354  1.0000
  O   O2        1.0  0.23762847483158114  0.8785277605056763  0.4317728579044342  1.0000
  Se  Se1       1.0  0.24392180144786837  0.12557761371135712  0.30723336338996887  1.0000
  Se  Se2       1.0  0.26362377405166626  0.5562771558761597  0.2075914889574051  1.0000
