data_image0
_chemical_formula_structural       O2Se5Th3
_chemical_formula_sum              "O2 Se5 Th3"
_cell_length_a       5.59988493886754
_cell_length_b       6.365944471137983
_cell_length_c       6.520997524261475
_cell_angle_alpha    119.48650263535156
_cell_angle_beta     92.24861365340355
_cell_angle_gamma    101.86541663409723

_space_group_name_H-M_alt    "P 1"
_space_group_IT_number       1

loop_
  _space_group_symop_operation_xyz
  'x, y, z'

loop_
  _atom_site_type_symbol
  _atom_site_label
  _atom_site_symmetry_multiplicity
  _atom_site_fract_x
  _atom_site_fract_y
  _atom_site_fract_z
  _atom_site_occupancy
  O   O1        1.0  0.16782304644584656  0.16756413877010345  0.6838640570640564  1.0000
  O   O2        1.0  0.3128655254840851  0.47570914030075073  0.549631655216217  1.0000
  Se  Se1       1.0  0.6568343043327332  0.44357043504714966  0.8086678981781006  1.0000
  Se  Se2       1.0  0.6706619262695312  0.06665393710136414  0.20543158054351807  1.0000
  Se  Se3       1.0  0.8229509592056274  0.2605641484260559  0.8374255895614624  1.0000
  Se  Se4       1.0  0.16832442581653595  0.07023048400878906  0.23152136802673343  1.0000
  Se  Se5       1.0  0.9293547868728638  0.08152297139167786  0.6296996474266052  1.0000
  Th  Th1       1.0  0.16144944727420807  0.39319509267807007  0.07135395705699918  1.0000
  Th  Th2       1.0  0.6660762429237366  0.11207035183906555  0.3665502071380615  1.0000
  Th  Th3       1.0  0.4206636846065521  0.5448179841041565  0.08217637240886685  1.0000
