data_image0
_chemical_formula_structural       BiCd2Ge2Hf3Sb
_chemical_formula_sum              "Bi1 Cd2 Ge2 Hf3 Sb1"
_cell_length_a       6.061904695172138
_cell_length_b       6.029858252254816
_cell_length_c       6.0288872718811035
_cell_angle_alpha    99.67633907285149
_cell_angle_beta     99.23346520312936
_cell_angle_gamma    97.98124261227564

_space_group_name_H-M_alt    "P 1"
_space_group_IT_number       1

loop_
  _space_group_symop_operation_xyz
  'x, y, z'

loop_
  _atom_site_type_symbol
  _atom_site_label
  _atom_site_symmetry_multiplicity
  _atom_site_fract_x
  _atom_site_fract_y
  _atom_site_fract_z
  _atom_site_occupancy
  Bi  Bi1       1.0  0.5389270186424255  0.9177621603012085  0.5755605697631836  1.0000
  Cd  Cd1       1.0  0.4139709174633026  0.36745819449424744  0.7023636102676392  1.0000
  Cd  Cd2       1.0  0.2817946672439575  0.5178812146186829  0.24022291600704193  1.0000
  Ge  Ge1       1.0  0.11365514248609543  0.1427849382162094  0.9298684000968933  1.0000
  Ge  Ge2       1.0  0.8670549392700195  0.39295944571495056  0.44313675165176386  1.0000
  Hf  Hf1       1.0  0.043433912098407745  0.006587781012058258  0.4076266288757324  1.0000
  Hf  Hf2       1.0  0.5333089828491211  0.10799039155244827  0.12445870786905289  1.0000
  Hf  Hf3       1.0  0.13400384783744812  0.7178616523742676  0.824343204498291  1.0000
  Sb  Sb1       1.0  0.725494384765625  0.710017204284668  0.04710608720779419  1.0000
