data_image0
_chemical_formula_structural       Cd3Hf4Mn2
_chemical_formula_sum              "Cd3 Hf4 Mn2"
_cell_length_a       3.324774163009587
_cell_length_b       7.754019794251142
_cell_length_c       7.738652229309082
_cell_angle_alpha    119.72089885775898
_cell_angle_beta     90.17163795826978
_cell_angle_gamma    90.06047123579721

_space_group_name_H-M_alt    "P 1"
_space_group_IT_number       1

loop_
  _space_group_symop_operation_xyz
  'x, y, z'

loop_
  _atom_site_type_symbol
  _atom_site_label
  _atom_site_symmetry_multiplicity
  _atom_site_fract_x
  _atom_site_fract_y
  _atom_site_fract_z
  _atom_site_occupancy
  Cd  Cd1       1.0  0.5254629254341125  0.6116334795951843  0.11705978959798816  1.0000
  Cd  Cd2       1.0  0.5244255661964417  0.003197643905878067  0.13290724158287048  1.0000
  Cd  Cd3       1.0  0.5261584520339966  0.1766028255224228  0.8171504735946655  1.0000
  Hf  Hf1       1.0  0.025539152324199677  0.9067175388336182  0.43524885177612305  1.0000
  Hf  Hf2       1.0  0.02568461000919342  0.4622470438480377  0.726936399936676  1.0000
  Hf  Hf3       1.0  0.023519571870565414  0.3516468405723572  0.2326575517654419  1.0000
  Hf  Hf4       1.0  0.02358757145702839  0.8755143284797668  0.8181993365287781  1.0000
  Mn  Mn1       1.0  0.5257899761199951  0.23438748717308044  0.4847289025783538  1.0000
  Mn  Mn2       1.0  0.5266262292861938  0.6268592476844788  0.506279706954956  1.0000
