data_image0
_chemical_formula_structural       CdClCuHf3OSbTe
_chemical_formula_sum              "Cd1 Cl1 Cu1 Hf3 O1 Sb1 Te1"
_cell_length_a       5.9550479172523385
_cell_length_b       5.960574502764833
_cell_length_c       5.96524715423584
_cell_angle_alpha    98.45786155736907
_cell_angle_beta     97.99574829528572
_cell_angle_gamma    97.57087984345733

_space_group_name_H-M_alt    "P 1"
_space_group_IT_number       1

loop_
  _space_group_symop_operation_xyz
  'x, y, z'

loop_
  _atom_site_type_symbol
  _atom_site_label
  _atom_site_symmetry_multiplicity
  _atom_site_fract_x
  _atom_site_fract_y
  _atom_site_fract_z
  _atom_site_occupancy
  Cd  Cd1       1.0  0.37630361318588257  0.5737342834472656  0.6437520384788513  1.0000
  Cl  Cl1       1.0  0.45273351669311523  0.861680805683136  0.2966836392879486  1.0000
  Cu  Cu1       1.0  0.14921478927135468  0.5120822787284851  0.01332077756524086  1.0000
  Hf  Hf1       1.0  0.7362102270126343  0.1761007308959961  0.6955430507659912  1.0000
  Hf  Hf2       1.0  0.6933034658432007  0.531577467918396  0.14716985821723938  1.0000
  Hf  Hf3       1.0  0.2672673761844635  0.04830607771873474  0.9221993684768677  1.0000
  O   O1        1.0  0.47574013471603394  0.32393646240234375  0.8869036436080933  1.0000
  Sb  Sb1       1.0  0.88579261302948  0.7289049625396729  0.7667509317398071  1.0000
  Te  Te1       1.0  0.007671654224395752  0.242918461561203  0.2912856638431549  1.0000
