data_image0
_chemical_formula_structural       PPr6Ru3Zn
_chemical_formula_sum              "P1 Pr6 Ru3 Zn1"
_cell_length_a       5.6914222736569835
_cell_length_b       6.34921543852353
_cell_length_c       7.358887672424316
_cell_angle_alpha    74.65064906559641
_cell_angle_beta     70.0267242750464
_cell_angle_gamma    74.2760978657068

_space_group_name_H-M_alt    "P 1"
_space_group_IT_number       1

loop_
  _space_group_symop_operation_xyz
  'x, y, z'

loop_
  _atom_site_type_symbol
  _atom_site_label
  _atom_site_symmetry_multiplicity
  _atom_site_fract_x
  _atom_site_fract_y
  _atom_site_fract_z
  _atom_site_occupancy
  P   P1        1.0  0.30680125951766973  0.9576832056045531  0.7561765909194946  1.0000
  Pr  Pr1       1.0  0.7055932879447937  0.5028732419013977  0.31643301248550415  1.0000
  Pr  Pr2       1.0  0.9528064131736755  0.7942587733268737  0.12345674633979799  1.0000
  Pr  Pr3       1.0  0.45155513286590576  0.08993009477853774  0.46916905045509344  1.0000
  Pr  Pr4       1.0  0.9753156900405884  0.10726024955511092  0.04857565090060234  1.0000
  Pr  Pr5       1.0  0.952985405921936  0.8546116352081298  0.12050996720790864  1.0000
  Pr  Pr6       1.0  0.4528259038925171  0.410871535539627  0.9697188735008241  1.0000
  Ru  Ru1       1.0  0.9544318914413452  0.2160048335790634  0.9421919584274293  1.0000
  Ru  Ru2       1.0  0.3949149549007416  0.5562655925750732  0.8005672097206116  1.0000
  Ru  Ru3       1.0  0.9571115970611572  0.5687905550003052  0.45725113153457647  1.0000
  Zn  Zn1       1.0  0.7365262508392334  0.997523009777069  0.3033751845359802  1.0000
