data_image0
_chemical_formula_structural       AsFInP2Pr2Ru3Zn
_chemical_formula_sum              "As1 F1 In1 P2 Pr2 Ru3 Zn1"
_cell_length_a       5.365346246443076
_cell_length_b       6.296262978068196
_cell_length_c       7.210177898406982
_cell_angle_alpha    90.16116198720903
_cell_angle_beta     89.75770315285293
_cell_angle_gamma    110.344112121923

_space_group_name_H-M_alt    "P 1"
_space_group_IT_number       1

loop_
  _space_group_symop_operation_xyz
  'x, y, z'

loop_
  _atom_site_type_symbol
  _atom_site_label
  _atom_site_symmetry_multiplicity
  _atom_site_fract_x
  _atom_site_fract_y
  _atom_site_fract_z
  _atom_site_occupancy
  As  As1       1.0  0.7546572089195251  0.6971243619918823  0.6461271047592163  1.0000
  F   F1        1.0  0.792295515537262  0.896146833896637  0.2651884853839874  1.0000
  In  In1       1.0  0.6944563388824463  0.48293930292129517  0.42885035276412964  1.0000
  P   P1        1.0  0.7596826553344727  0.39378032088279724  0.13667775690555573  1.0000
  P   P2        1.0  0.7782607078552246  0.6666464805603027  0.10914809256792068  1.0000
  Pr  Pr1       1.0  0.8324316740036011  0.5788209438323975  0.9886930584907532  1.0000
  Pr  Pr2       1.0  0.7465123534202576  0.8660024404525757  0.6292568445205688  1.0000
  Ru  Ru1       1.0  0.3442293703556061  0.7782690525054932  0.8670501708984375  1.0000
  Ru  Ru2       1.0  0.7569661140441895  0.3721635341644287  0.8137064576148988  1.0000
  Ru  Ru3       1.0  0.20221982896327972  0.24696320295333862  0.44705694913864136  1.0000
  Zn  Zn1       1.0  0.2518433630466461  0.5265257954597473  0.08268868178129196  1.0000
