data_image0
_chemical_formula_structural       AsFGaPr4Ru3Zn
_chemical_formula_sum              "As1 F1 Ga1 Pr4 Ru3 Zn1"
_cell_length_a       4.082487503577624
_cell_length_b       3.3315760389253835
_cell_length_c       6.265132427215576
_cell_angle_alpha    102.71671289779731
_cell_angle_beta     103.19337659259561
_cell_angle_gamma    137.05837716114488

_space_group_name_H-M_alt    "P 1"
_space_group_IT_number       1

loop_
  _space_group_symop_operation_xyz
  'x, y, z'

loop_
  _atom_site_type_symbol
  _atom_site_label
  _atom_site_symmetry_multiplicity
  _atom_site_fract_x
  _atom_site_fract_y
  _atom_site_fract_z
  _atom_site_occupancy
  As  As1       1.0  0.1331384927034378  0.3902222812175751  0.11993178725242615  1.0000
  F   F1        1.0  0.39342653751373285  0.7739980816841125  0.6560928225517273  1.0000
  Ga  Ga1       1.0  0.506622314453125  0.8435975909233093  0.4352896213531494  1.0000
  Pr  Pr1       1.0  0.26571208238601685  0.9311320781707764  0.46659165620803833  1.0000
  Pr  Pr2       1.0  0.5199308395385742  0.12555810809135437  0.9713390469551086  1.0000
  Pr  Pr3       1.0  0.044789746403694146  0.7627913951873779  0.7380314469337463  1.0000
  Pr  Pr4       1.0  0.9239995479583739  0.007256586104631424  0.018137048929929733  1.0000
  Ru  Ru1       1.0  0.02178547158837318  0.7606198191642761  0.19112944602966309  1.0000
  Ru  Ru2       1.0  0.6399502754211425  0.4893035292625427  0.5562059879302979  1.0000
  Ru  Ru3       1.0  0.9866080880165099  0.24851152300834653  0.5241177082061768  1.0000
  Zn  Zn1       1.0  0.03654927760362625  0.3761174976825714  0.46294546127319336  1.0000
