data_image0
_chemical_formula_structural       Pr4Ru6S
_chemical_formula_sum              "Pr4 Ru6 S1"
_cell_length_a       4.867293552601664
_cell_length_b       4.356392784103248
_cell_length_c       4.440077304840088
_cell_angle_alpha    93.05428267107386
_cell_angle_beta     87.75446077444738
_cell_angle_gamma    91.00628783550725

_space_group_name_H-M_alt    "P 1"
_space_group_IT_number       1

loop_
  _space_group_symop_operation_xyz
  'x, y, z'

loop_
  _atom_site_type_symbol
  _atom_site_label
  _atom_site_symmetry_multiplicity
  _atom_site_fract_x
  _atom_site_fract_y
  _atom_site_fract_z
  _atom_site_occupancy
  Pr  Pr1       1.0  0.6474343538284302  0.42270803451538086  0.8252217173576355  1.0000
  Pr  Pr2       1.0  0.16176241636276245  0.5016712546348572  0.10450968891382217  1.0000
  Pr  Pr3       1.0  0.44071853160858154  0.5063930749893188  0.7547558546066284  1.0000
  Pr  Pr4       1.0  0.1477213054895401  0.39227095246315  0.3604535162448883  1.0000
  Ru  Ru1       1.0  0.4142594039440155  0.2511044442653656  0.0346674844622612  1.0000
  Ru  Ru2       1.0  0.41120898723602295  0.774581789970398  0.775111734867096  1.0000
  Ru  Ru3       1.0  0.940445065498352  0.23960906267166138  0.783909261226654  1.0000
  Ru  Ru4       1.0  0.4771024286746979  0.08602091670036316  0.3281431496143341  1.0000
  Ru  Ru5       1.0  0.16502797603607178  0.8878726363182068  0.5451269745826721  1.0000
  Ru  Ru6       1.0  0.16395758092403412  0.9509866833686829  0.3623485863208771  1.0000
  S   S1        1.0  0.9033074378967285  0.9977855086326599  0.9612690806388854  1.0000
