data_image0
_chemical_formula_structural       FLuPPr6RuTi
_chemical_formula_sum              "F1 Lu1 P1 Pr6 Ru1 Ti1"
_cell_length_a       4.774440728805865
_cell_length_b       1.7766150744426845
_cell_length_c       6.072591781616211
_cell_angle_alpha    83.12129761939929
_cell_angle_beta     63.798730739996955
_cell_angle_gamma    59.469594535785724

_space_group_name_H-M_alt    "P 1"
_space_group_IT_number       1

loop_
  _space_group_symop_operation_xyz
  'x, y, z'

loop_
  _atom_site_type_symbol
  _atom_site_label
  _atom_site_symmetry_multiplicity
  _atom_site_fract_x
  _atom_site_fract_y
  _atom_site_fract_z
  _atom_site_occupancy
  F   F1        1.0  0.24678850173950195  0.6772996783256531  0.8832003474235535  1.0000
  Lu  Lu1       1.0  0.6342278718948364  0.6525911092758179  0.05603265017271042  1.0000
  P   P1        1.0  0.6798368692398071  0.7987511157989502  0.29582884907722473  1.0000
  Pr  Pr1       1.0  0.1474364548921585  0.5345350503921509  0.10233481973409653  1.0000
  Pr  Pr2       1.0  0.1569724678993225  0.26346686482429504  0.7272540926933289  1.0000
  Pr  Pr3       1.0  0.6549495458602905  0.36454543471336365  0.2296161949634552  1.0000
  Pr  Pr4       1.0  0.15379177033901215  0.40849214792251587  0.558465301990509  1.0000
  Pr  Pr5       1.0  0.7024808526039124  0.19229656457901  0.18119393289089206  1.0000
  Pr  Pr6       1.0  0.15046526491641998  0.8780576586723328  0.6474918127059937  1.0000
  Ru  Ru1       1.0  0.17341342568397522  0.5109079480171204  0.09344223141670227  1.0000
  Ti  Ti1       1.0  0.6328017711639404  0.44410809874534607  0.3409966826438904  1.0000
