data_image0
_chemical_formula_structural       FPr3Ru6U
_chemical_formula_sum              "F1 Pr3 Ru6 U1"
_cell_length_a       4.320780961085122
_cell_length_b       3.460897981850877
_cell_length_c       3.8931124210357666
_cell_angle_alpha    92.52537117041231
_cell_angle_beta     90.66560844131439
_cell_angle_gamma    90.64161631773536

_space_group_name_H-M_alt    "P 1"
_space_group_IT_number       1

loop_
  _space_group_symop_operation_xyz
  'x, y, z'

loop_
  _atom_site_type_symbol
  _atom_site_label
  _atom_site_symmetry_multiplicity
  _atom_site_fract_x
  _atom_site_fract_y
  _atom_site_fract_z
  _atom_site_occupancy
  F   F1        1.0  0.934246838092804  0.9311469197273254  0.23668818175792694  1.0000
  Pr  Pr1       1.0  0.4425165057182312  0.18991118669509888  0.1314936727285385  1.0000
  Pr  Pr2       1.0  0.9515596628189087  0.43730634450912476  0.8580811023712158  1.0000
  Pr  Pr3       1.0  0.44763705134391785  0.8247215747833252  0.27895352244377136  1.0000
  Ru  Ru1       1.0  0.9293675422668457  0.921990692615509  0.7322321534156799  1.0000
  Ru  Ru2       1.0  0.45047953724861145  0.8431843519210815  0.7515307068824768  1.0000
  Ru  Ru3       1.0  0.8005293011665344  0.20451387763023376  0.6937761902809143  1.0000
  Ru  Ru4       1.0  0.9517112374305725  0.24574214220046997  0.7184612154960632  1.0000
  Ru  Ru5       1.0  0.4578729271888733  0.8448664546012878  0.5500655174255371  1.0000
  Ru  Ru6       1.0  0.7222051620483398  0.3355100452899933  0.24730128049850464  1.0000
  U   U1        1.0  0.9427490234375  0.010429277084767818  0.031164316460490227  1.0000
