data_image0
_chemical_formula_structural       As8Zn
_chemical_formula_sum              "As8 Zn1"
_cell_length_a       4.897485886193768
_cell_length_b       6.041221365409355
_cell_length_c       6.090282440185547
_cell_angle_alpha    120.8238763038774
_cell_angle_beta     91.0136617991658
_cell_angle_gamma    90.80958175296588

_space_group_name_H-M_alt    "P 1"
_space_group_IT_number       1

loop_
  _space_group_symop_operation_xyz
  'x, y, z'

loop_
  _atom_site_type_symbol
  _atom_site_label
  _atom_site_symmetry_multiplicity
  _atom_site_fract_x
  _atom_site_fract_y
  _atom_site_fract_z
  _atom_site_occupancy
  As  As1       1.0  0.6645273566246033  0.47651207447052  0.37420347332954407  1.0000
  As  As2       1.0  0.6611796617507935  0.06038619205355644  0.8260775208473206  1.0000
  As  As3       1.0  0.16318175196647644  0.38867291808128357  0.5780050754547119  1.0000
  As  As4       1.0  0.1553804576396942  0.3037576377391815  0.4675527513027191  1.0000
  As  As5       1.0  0.16671434044837952  0.8563118577003479  0.01466018334031105  1.0000
  As  As6       1.0  0.6609848737716675  0.8571879267692566  0.5043399930000305  1.0000
  As  As7       1.0  0.664851725101471  0.7798072695732117  0.4497850239276886  1.0000
  As  As8       1.0  0.664242684841156  0.8011627197265625  0.2876415252685547  1.0000
  Zn  Zn1       1.0  0.1587958186864853  0.2876485288143158  0.08725789934396744  1.0000
