data_image0
_chemical_formula_structural       As7CuZn
_chemical_formula_sum              "As7 Cu1 Zn1"
_cell_length_a       4.941420375129079
_cell_length_b       5.128113177154532
_cell_length_c       6.907801628112793
_cell_angle_alpha    97.88158372366941
_cell_angle_beta     87.70107320805695
_cell_angle_gamma    86.96867920817019

_space_group_name_H-M_alt    "P 1"
_space_group_IT_number       1

loop_
  _space_group_symop_operation_xyz
  'x, y, z'

loop_
  _atom_site_type_symbol
  _atom_site_label
  _atom_site_symmetry_multiplicity
  _atom_site_fract_x
  _atom_site_fract_y
  _atom_site_fract_z
  _atom_site_occupancy
  As  As1       1.0  0.3583987057209015  0.6773859858512878  0.33463153243064875  1.0000
  As  As2       1.0  0.3572593033313751  0.451192170381546  0.24203930795192716  1.0000
  As  As3       1.0  0.8650789260864258  0.1701621115207672  0.11095662415027617  1.0000
  As  As4       1.0  0.8670791983604431  0.5533369183540344  0.026940204203128815  1.0000
  As  As5       1.0  0.3645836114883423  0.023341499269008636  0.6058141589164733  1.0000
  As  As6       1.0  0.3588145077228546  0.6667468547821045  0.11441335827112196  1.0000
  As  As7       1.0  0.8537937998771667  0.38215336203575134  0.9366468787193297  1.0000
  Cu  Cu1       1.0  0.864234983921051  0.18408291041851044  0.7009460330009459  1.0000
  Zn  Zn1       1.0  0.3600604236125946  0.6627635359764099  0.8388051986694335  1.0000
