data_image0
_chemical_formula_structural       As9
_chemical_formula_sum              "As9"
_cell_length_a       3.7565413043400935
_cell_length_b       3.6911829793096045
_cell_length_c       10.250085830688477
_cell_angle_alpha    99.59534370714803
_cell_angle_beta     92.31517703554769
_cell_angle_gamma    101.600919855119

_space_group_name_H-M_alt    "P 1"
_space_group_IT_number       1

loop_
  _space_group_symop_operation_xyz
  'x, y, z'

loop_
  _atom_site_type_symbol
  _atom_site_label
  _atom_site_symmetry_multiplicity
  _atom_site_fract_x
  _atom_site_fract_y
  _atom_site_fract_z
  _atom_site_occupancy
  As  As1       1.0  0.7631615400314331  0.6233521699905396  0.9381407499313354  1.0000
  As  As2       1.0  0.27585384249687195  0.746546506881714  0.5310772061347961  1.0000
  As  As3       1.0  0.7768545150756836  0.8264107704162599  0.7041195034980774  1.0000
  As  As4       1.0  0.804610013961792  0.8279089331626893  0.6226645708084106  1.0000
  As  As5       1.0  0.24342581629753113  0.22805370390415194  0.5720617771148682  1.0000
  As  As6       1.0  0.7520328760147095  0.30049464106559753  0.002387965563684702  1.0000
  As  As7       1.0  0.31542494893074036  0.5158730149269104  0.1237151101231575  1.0000
  As  As8       1.0  0.7317497134208679  0.15975171327590942  0.16281479597091675  1.0000
  As  As9       1.0  0.26244741678237915  0.5220746994018555  0.3603765368461609  1.0000
