data_image0
_chemical_formula_structural       As9
_chemical_formula_sum              "As9"
_cell_length_a       3.5019180851866505
_cell_length_b       1.884614667380683
_cell_length_c       14.01474380493164
_cell_angle_alpha    116.24628123646292
_cell_angle_beta     107.06434409801786
_cell_angle_gamma    94.86592453590144

_space_group_name_H-M_alt    "P 1"
_space_group_IT_number       1

loop_
  _space_group_symop_operation_xyz
  'x, y, z'

loop_
  _atom_site_type_symbol
  _atom_site_label
  _atom_site_symmetry_multiplicity
  _atom_site_fract_x
  _atom_site_fract_y
  _atom_site_fract_z
  _atom_site_occupancy
  As  As1       1.0  0.9999076128005981  0.6351293921470642  0.4443596005439758  1.0000
  As  As2       1.0  0.08773182332515717  0.9903273582458496  0.7550817131996154  1.0000
  As  As3       1.0  0.006450130604207516  0.19379517436027527  0.6459258794784545  1.0000
  As  As4       1.0  0.0023980613332241774  0.46686851978302  0.8177749514579772  1.0000
  As  As5       1.0  0.9962347149848938  0.12180349230766296  0.42242383956909174  1.0000
  As  As6       1.0  0.08986777067184448  0.45424479246139526  0.6196851730346679  1.0000
  As  As7       1.0  0.9967132210731506  0.7479875087738037  0.8325287103652953  1.0000
  As  As8       1.0  0.49947983026504517  0.18548956513404846  0.37302869558334345  1.0000
  As  As9       1.0  0.4830724000930786  0.4068933129310608  0.1685194671154022  1.0000
