data_image0
_chemical_formula_structural       B2Ba3O8
_chemical_formula_sum              "B2 Ba3 O8"
_cell_length_a       6.054704205214642
_cell_length_b       6.053424042300093
_cell_length_c       5.984644412994385
_cell_angle_alpha    64.12295157190358
_cell_angle_beta     59.29883047448037
_cell_angle_gamma    59.30397413591022

_space_group_name_H-M_alt    "P 1"
_space_group_IT_number       1

loop_
  _space_group_symop_operation_xyz
  'x, y, z'

loop_
  _atom_site_type_symbol
  _atom_site_label
  _atom_site_symmetry_multiplicity
  _atom_site_fract_x
  _atom_site_fract_y
  _atom_site_fract_z
  _atom_site_occupancy
  B   B1        1.0  0.9402152895927429  0.021888501942157745  0.9789263010025024  1.0000
  B   B2        1.0  0.16616937518119812  0.03390976041555405  0.25700899958610535  1.0000
  Ba  Ba1       1.0  0.45209750533103943  0.6654319763183594  0.0019265441223978996  1.0000
  Ba  Ba2       1.0  0.4804312586784363  0.5219749808311462  0.07937946915626526  1.0000
  Ba  Ba3       1.0  0.9732435941696167  0.80890953540802  0.592792809009552  1.0000
  O   O1        1.0  0.16194505989551544  0.11133648455142975  0.25039324164390564  1.0000
  O   O2        1.0  0.8797600865364075  0.4159851670265198  0.6455195546150208  1.0000
  O   O3        1.0  0.16694004833698273  0.6289706826210022  0.24389442801475525  1.0000
  O   O4        1.0  0.7378425598144531  0.1783187985420227  0.4486369490623474  1.0000
  O   O5        1.0  0.5745365023612976  0.913945734500885  0.8333507180213928  1.0000
  O   O6        1.0  0.8892793655395508  0.14339131116867065  0.8882567286491394  1.0000
  O   O7        1.0  0.5569008588790894  0.5429326295852661  0.7488531470298767  1.0000
  O   O8        1.0  0.07699676603078842  0.2545274496078491  0.22657974064350128  1.0000
