data_image0
_chemical_formula_structural       B2Ba3O7Se
_chemical_formula_sum              "B2 Ba3 O7 Se1"
_cell_length_a       5.963083176202724
_cell_length_b       6.2463791340012405
_cell_length_c       6.196095943450928
_cell_angle_alpha    63.26900510135592
_cell_angle_beta     60.230596125296586
_cell_angle_gamma    58.664207935457426

_space_group_name_H-M_alt    "P 1"
_space_group_IT_number       1

loop_
  _space_group_symop_operation_xyz
  'x, y, z'

loop_
  _atom_site_type_symbol
  _atom_site_label
  _atom_site_symmetry_multiplicity
  _atom_site_fract_x
  _atom_site_fract_y
  _atom_site_fract_z
  _atom_site_occupancy
  B   B1        1.0  0.9978872537612916  0.8017416596412659  0.6084058880805969  1.0000
  B   B2        1.0  0.8531990051269531  0.5969277024269104  0.31010711193084717  1.0000
  Ba  Ba1       1.0  0.9159250259399414  0.194797545671463  0.624398946762085  1.0000
  Ba  Ba2       1.0  0.47002089023590093  0.26424193382263184  0.7142055630683899  1.0000
  Ba  Ba3       1.0  0.4807912111282349  0.25823596119880676  0.5713023543357849  1.0000
  O   O1        1.0  0.22836825251579285  0.8171907067298889  0.18450379371643066  1.0000
  O   O2        1.0  0.8757222294807434  0.1443457454442978  0.13313119113445276  1.0000
  O   O3        1.0  0.6745336651802063  0.8748040199279785  0.26266369223594666  1.0000
  O   O4        1.0  0.611402153968811  0.5796464085578918  0.7580515742301941  1.0000
  O   O5        1.0  0.8207667469978333  0.5278730392456055  0.4246123135089875  1.0000
  O   O6        1.0  0.2156524956226349  0.5316939353942871  0.781433641910553  1.0000
  O   O7        1.0  0.17933368682861328  0.7951938509941101  0.19789929687976837  1.0000
  Se  Se1       1.0  0.18943892419338226  0.4342713952064514  0.8391851782798768  1.0000
