data_image0
_chemical_formula_structural       B3Ba2O7Se
_chemical_formula_sum              "B3 Ba2 O7 Se1"
_cell_length_a       5.810887845806283
_cell_length_b       6.134888756530609
_cell_length_c       5.8681206703186035
_cell_angle_alpha    62.8819194775424
_cell_angle_beta     62.11634795874536
_cell_angle_gamma    58.91200937704779

_space_group_name_H-M_alt    "P 1"
_space_group_IT_number       1

loop_
  _space_group_symop_operation_xyz
  'x, y, z'

loop_
  _atom_site_type_symbol
  _atom_site_label
  _atom_site_symmetry_multiplicity
  _atom_site_fract_x
  _atom_site_fract_y
  _atom_site_fract_z
  _atom_site_occupancy
  B   B1        1.0  0.8361302614212036  0.31837525963783264  0.34428608417510986  1.0000
  B   B2        1.0  0.16338500380516052  0.5966802835464478  0.15985529124736786  1.0000
  B   B3        1.0  0.8208211660385132  0.8550189733505249  0.5912862420082092  1.0000
  Ba  Ba1       1.0  0.35244476795196533  0.7868627309799194  0.4423547089099884  1.0000
  Ba  Ba2       1.0  0.8231089115142822  0.11574895679950714  0.4946478605270385  1.0000
  O   O1        1.0  0.3685154318809509  0.26681074500083923  0.17912727594375613  1.0000
  O   O2        1.0  0.12036049365997314  0.7242888808250427  0.7449960112571716  1.0000
  O   O3        1.0  0.3920544385910034  0.7683678269386292  0.9768028259277343  1.0000
  O   O4        1.0  0.7206240892410278  0.9875676035881042  0.9912210106849669  1.0000
  O   O5        1.0  0.004811611957848072  0.9798071384429932  0.22774876654148107  1.0000
  O   O6        1.0  0.7221716642379761  0.4757812023162842  0.07150305062532432  1.0000
  O   O7        1.0  0.4780181050300598  0.034477122128009796  0.7426481246948242  1.0000
  Se  Se1       1.0  0.10942094773054123  0.29500070214271545  0.9068803191184996  1.0000
