data_image0
_chemical_formula_structural       B3Ba5O2Se3
_chemical_formula_sum              "B3 Ba5 O2 Se3"
_cell_length_a       5.769094531746873
_cell_length_b       5.882541111498402
_cell_length_c       5.374079704284668
_cell_angle_alpha    121.85860072684423
_cell_angle_beta     91.57556760182851
_cell_angle_gamma    88.10358493606441

_space_group_name_H-M_alt    "P 1"
_space_group_IT_number       1

loop_
  _space_group_symop_operation_xyz
  'x, y, z'

loop_
  _atom_site_type_symbol
  _atom_site_label
  _atom_site_symmetry_multiplicity
  _atom_site_fract_x
  _atom_site_fract_y
  _atom_site_fract_z
  _atom_site_occupancy
  B   B1        1.0  0.6851047277450562  0.4221094250679016  0.84870445728302  1.0000
  B   B2        1.0  0.1831352263689041  0.051068469882011414  0.14937053620815277  1.0000
  B   B3        1.0  0.39673829078674316  0.12448415905237198  0.4732164740562439  1.0000
  Ba  Ba1       1.0  0.40898701548576355  0.45844170451164246  0.46182605624198914  1.0000
  Ba  Ba2       1.0  0.9230024814605713  0.5578375458717346  0.03822334110736847  1.0000
  Ba  Ba3       1.0  0.41134557127952576  0.5901113152503967  0.5224953293800354  1.0000
  Ba  Ba4       1.0  0.9192301034927368  0.7499248385429382  0.5809058547019958  1.0000
  Ba  Ba5       1.0  0.195147305727005  0.667542576789856  0.05591803416609764  1.0000
  O   O1        1.0  0.6836827397346497  0.0005475091165862978  0.17161191999912262  1.0000
  O   O2        1.0  0.6867766380310059  0.47190555930137634  0.1902732849121094  1.0000
  Se  Se1       1.0  0.12033936381340027  0.35441869497299194  0.07394464313983917  1.0000
  Se  Se2       1.0  0.6947734355926514  0.10933254659175873  0.6729705929756165  1.0000
  Se  Se3       1.0  0.6780471801757811  0.8452001214027405  0.8748002648353577  1.0000
