data_image0
_chemical_formula_structural       B4Ba5O4
_chemical_formula_sum              "B4 Ba5 O4"
_cell_length_a       5.639102607690214
_cell_length_b       6.704443452944193
_cell_length_c       5.949620246887207
_cell_angle_alpha    133.53533253987035
_cell_angle_beta     86.0743363469956
_cell_angle_gamma    89.77038844683076

_space_group_name_H-M_alt    "P 1"
_space_group_IT_number       1

loop_
  _space_group_symop_operation_xyz
  'x, y, z'

loop_
  _atom_site_type_symbol
  _atom_site_label
  _atom_site_symmetry_multiplicity
  _atom_site_fract_x
  _atom_site_fract_y
  _atom_site_fract_z
  _atom_site_occupancy
  B   B1        1.0  0.3054231107234955  0.5932664275169373  0.38783514499664307  1.0000
  B   B2        1.0  0.7997121214866638  0.8947096467018127  0.12522728741168968  1.0000
  B   B3        1.0  0.8094212412834167  0.6048808097839355  0.30335873365402216  1.0000
  B   B4        1.0  0.8114242553710938  0.105523981153965  0.960010826587677  1.0000
  Ba  Ba1       1.0  0.8109182715415955  0.758523166179657  0.42328542470932007  1.0000
  Ba  Ba2       1.0  0.810364842414856  0.4031009078025818  0.19307343661785126  1.0000
  Ba  Ba3       1.0  0.31036293506622314  0.17681002616882324  0.9728453159332275  1.0000
  Ba  Ba4       1.0  0.810139000415802  0.2742275893688202  0.5711027979850769  1.0000
  Ba  Ba5       1.0  0.31295859813690186  0.941460132598877  0.5797736048698425  1.0000
  O   O1        1.0  0.31237244606018066  0.943617045879364  0.8249356746673583  1.0000
  O   O2        1.0  0.3254421055316925  0.3511678874492645  0.15411703288555142  1.0000
  O   O3        1.0  0.801040530204773  0.6395288705825806  0.5964633822441101  1.0000
  O   O4        1.0  0.83049476146698  0.3398878872394562  0.8852453231811523  1.0000
