data_image0
_chemical_formula_structural       B4Ba2O6Se
_chemical_formula_sum              "B4 Ba2 O6 Se1"
_cell_length_a       6.183200574021978
_cell_length_b       6.749143831083193
_cell_length_c       6.165719032287598
_cell_angle_alpha    68.34860651670535
_cell_angle_beta     59.901974557298736
_cell_angle_gamma    61.060984960116805

_space_group_name_H-M_alt    "P 1"
_space_group_IT_number       1

loop_
  _space_group_symop_operation_xyz
  'x, y, z'

loop_
  _atom_site_type_symbol
  _atom_site_label
  _atom_site_symmetry_multiplicity
  _atom_site_fract_x
  _atom_site_fract_y
  _atom_site_fract_z
  _atom_site_occupancy
  B   B1        1.0  0.5940990447998047  0.4171978533267975  0.206335574388504  1.0000
  B   B2        1.0  0.21495327353477478  0.7180320620536804  0.4543915688991546  1.0000
  B   B3        1.0  0.2172725796699524  0.4515041410923004  0.952344000339508  1.0000
  B   B4        1.0  0.5607690811157227  0.0726340189576149  0.5923939347267151  1.0000
  Ba  Ba1       1.0  0.5451638698577881  0.96293044090271  0.3753179311752319  1.0000
  Ba  Ba2       1.0  0.7883760333061218  0.5704817175865173  0.3845935463905334  1.0000
  O   O1        1.0  0.6586633920669556  0.24934588372707367  0.7234808206558226  1.0000
  O   O2        1.0  0.07066844403743744  0.280992716550827  0.3727984726428985  1.0000
  O   O3        1.0  0.031568221747875214  0.4713706076145172  0.2360350042581558  1.0000
  O   O4        1.0  0.7401307821273804  0.7957959771156311  0.7514681220054625  1.0000
  O   O5        1.0  0.7353549003601074  0.7822450399398804  0.8932570815086364  1.0000
  O   O6        1.0  0.08195266127586365  0.8108594417572021  0.5131545662879944  1.0000
  Se  Se1       1.0  0.7654872536659241  0.013315021991729736  0.7649924755096434  1.0000
