data_image0
_chemical_formula_structural       FMnNa3O7
_chemical_formula_sum              "F1 Mn1 Na3 O7"
_cell_length_a       6.067157280024236
_cell_length_b       6.125066974323435
_cell_length_c       6.429108142852783
_cell_angle_alpha    63.13738997114684
_cell_angle_beta     62.3074402468587
_cell_angle_gamma    62.19566395327509

_space_group_name_H-M_alt    "P 1"
_space_group_IT_number       1

loop_
  _space_group_symop_operation_xyz
  'x, y, z'

loop_
  _atom_site_type_symbol
  _atom_site_label
  _atom_site_symmetry_multiplicity
  _atom_site_fract_x
  _atom_site_fract_y
  _atom_site_fract_z
  _atom_site_occupancy
  F   F1        1.0  0.3004586100578308  0.4936845600605011  0.6037737131118774  1.0000
  Mn  Mn1       1.0  0.6930040121078491  0.47922852635383606  0.7155246138572693  1.0000
  Na  Na1       1.0  0.18975359201431274  0.4946122169494629  0.670693576335907  1.0000
  Na  Na2       1.0  0.7012439966201782  0.4968039095401764  0.8302528858184814  1.0000
  Na  Na3       1.0  0.172904834151268  0.9843406081199646  0.7070300579071045  1.0000
  O   O1        1.0  0.7670878767967224  0.3251791000366211  0.5043781995773315  1.0000
  O   O2        1.0  0.40555679798126226  0.007128479890525341  0.1631936281919479  1.0000
  O   O3        1.0  0.9340925216674806  0.6170592308044434  0.902283251285553  1.0000
  O   O4        1.0  0.9323509335517884  0.47248953580856323  0.3690677881240844  1.0000
  O   O5        1.0  0.435047596693039  0.9330775141716003  0.3602530360221863  1.0000
  O   O6        1.0  0.8075746297836305  0.986510694026947  0.11116451770067215  1.0000
  O   O7        1.0  0.41611838340759283  0.5284507870674133  0.35553306341171265  1.0000
