data_image0
_chemical_formula_structural       AlFNa4O5Rh
_chemical_formula_sum              "Al1 F1 Na4 O5 Rh1"
_cell_length_a       6.1879482297475
_cell_length_b       6.380825513161823
_cell_length_c       6.687629222869873
_cell_angle_alpha    68.93364219113776
_cell_angle_beta     63.815845981661724
_cell_angle_gamma    65.73230050290447

_space_group_name_H-M_alt    "P 1"
_space_group_IT_number       1

loop_
  _space_group_symop_operation_xyz
  'x, y, z'

loop_
  _atom_site_type_symbol
  _atom_site_label
  _atom_site_symmetry_multiplicity
  _atom_site_fract_x
  _atom_site_fract_y
  _atom_site_fract_z
  _atom_site_occupancy
  Al  Al1       1.0  0.12919101119041443  0.7120814919471741  0.09906163811683655  1.0000
  F   F1        1.0  0.13117952644824982  0.26747971773147583  0.28020817041397095  1.0000
  Na  Na1       1.0  0.7028798460960388  0.8390292525291443  0.6084431409835815  1.0000
  Na  Na2       1.0  0.6903102993965149  0.007590736728161573  0.5946550369262695  1.0000
  Na  Na3       1.0  0.37410202622413635  0.012147405184805393  0.9002134799957275  1.0000
  Na  Na4       1.0  0.35563603043556213  0.942202091217041  0.7761895060539246  1.0000
  O   O1        1.0  0.8574846982955933  0.6472477316856384  0.938676118850708  1.0000
  O   O2        1.0  0.9794650673866272  0.31900453567504883  0.09490448981523514  1.0000
  O   O3        1.0  0.5750252604484558  0.30272626876831055  0.23098663985729218  1.0000
  O   O4        1.0  0.20660308003425598  0.32507747411727905  0.34410935640335083  1.0000
  O   O5        1.0  0.37713387608528137  0.7383984327316284  0.07552216947078705  1.0000
  Rh  Rh1       1.0  0.3459969758987427  0.28804606199264526  0.9290148019790649  1.0000
