data_image0
_chemical_formula_structural       F2Na4O4Rh2
_chemical_formula_sum              "F2 Na4 O4 Rh2"
_cell_length_a       4.25625977214808
_cell_length_b       6.109420693238944
_cell_length_c       6.289315700531006
_cell_angle_alpha    120.41306737172428
_cell_angle_beta     93.00574532794563
_cell_angle_gamma    87.98670725657242

_space_group_name_H-M_alt    "P 1"
_space_group_IT_number       1

loop_
  _space_group_symop_operation_xyz
  'x, y, z'

loop_
  _atom_site_type_symbol
  _atom_site_label
  _atom_site_symmetry_multiplicity
  _atom_site_fract_x
  _atom_site_fract_y
  _atom_site_fract_z
  _atom_site_occupancy
  F   F1        1.0  0.7229757905006409  0.10146269202232361  0.5612732768058777  1.0000
  F   F2        1.0  0.22556208074092865  0.16973254084587097  0.2907739579677582  1.0000
  Na  Na1       1.0  0.228605255484581  0.33914852142333984  0.604228138923645  1.0000
  Na  Na2       1.0  0.2276342511177063  0.6063242554664612  0.20275448262691498  1.0000
  Na  Na3       1.0  0.7303912043571472  0.6512050628662109  0.9047845602035522  1.0000
  Na  Na4       1.0  0.7245731949806213  0.598304271697998  0.899535059928894  1.0000
  O   O1        1.0  0.23260225355625153  0.28310754895210266  0.3097551465034485  1.0000
  O   O2        1.0  0.25252556800842285  0.5302426218986511  0.49264419078826904  1.0000
  O   O3        1.0  0.724544882774353  0.049847546964883804  0.7813856601715088  1.0000
  O   O4        1.0  0.23365488648414612  0.9256742596626282  0.26157909631729126  1.0000
  Rh  Rh1       1.0  0.7350727915763855  0.3951896131038666  0.044043004512786865  1.0000
  Rh  Rh2       1.0  0.7282569408416748  0.8597420454025269  0.829092800617218  1.0000
