data_image0
_chemical_formula_structural       FMnNa2O8
_chemical_formula_sum              "F1 Mn1 Na2 O8"
_cell_length_a       4.499688746966354
_cell_length_b       6.763187360780567
_cell_length_c       6.5846405029296875
_cell_angle_alpha    120.00397218538481
_cell_angle_beta     92.35681155241646
_cell_angle_gamma    92.69099571763962

_space_group_name_H-M_alt    "P 1"
_space_group_IT_number       1

loop_
  _space_group_symop_operation_xyz
  'x, y, z'

loop_
  _atom_site_type_symbol
  _atom_site_label
  _atom_site_symmetry_multiplicity
  _atom_site_fract_x
  _atom_site_fract_y
  _atom_site_fract_z
  _atom_site_occupancy
  F   F1        1.0  0.15846584737300873  0.73105388879776  0.36242032051086437  1.0000
  Mn  Mn1       1.0  0.6757643222808838  0.8109607696533204  0.2292920202016831  1.0000
  Na  Na1       1.0  0.6851302981376648  0.7135295867919922  0.5745068192481995  1.0000
  Na  Na2       1.0  0.16120991110801697  0.13934366405010223  0.5182225704193115  1.0000
  O   O1        1.0  0.17249217629432678  0.21658995747566226  0.870334267616272  1.0000
  O   O2        1.0  0.1862286627292633  0.4614320099353791  0.1418581306934357  1.0000
  O   O3        1.0  0.6506004333496094  0.3186017572879791  0.4481011629104614  1.0000
  O   O4        1.0  0.6755759119987488  0.20007020235061648  0.649533212184906  1.0000
  O   O5        1.0  0.17928919196128845  0.8228713870048524  0.26812651753425604  1.0000
  O   O6        1.0  0.6672671437263489  0.20348043739795688  0.048153512179851546  1.0000
  O   O7        1.0  0.1784287989139557  0.5998539328575134  0.1395940482616425  1.0000
  O   O8        1.0  0.16887657344341278  0.2220992743968964  0.6459255814552307  1.0000
