data_image0
_chemical_formula_structural       F4NaO5SiZn
_chemical_formula_sum              "F4 Na1 O5 Si1 Zn1"
_cell_length_a       5.502252590889512
_cell_length_b       5.635896929950891
_cell_length_c       5.836691379547119
_cell_angle_alpha    60.81086471968145
_cell_angle_beta     61.67398390077986
_cell_angle_gamma    61.28692053041907

_space_group_name_H-M_alt    "P 1"
_space_group_IT_number       1

loop_
  _space_group_symop_operation_xyz
  'x, y, z'

loop_
  _atom_site_type_symbol
  _atom_site_label
  _atom_site_symmetry_multiplicity
  _atom_site_fract_x
  _atom_site_fract_y
  _atom_site_fract_z
  _atom_site_occupancy
  F   F1        1.0  0.9628686904907227  0.07078145444393158  0.2126772403717041  1.0000
  F   F2        1.0  0.9619796276092529  0.2996656894683838  0.13859841227531433  1.0000
  F   F3        1.0  0.4700292646884918  0.6952611207962036  0.8463619351387024  1.0000
  F   F4        1.0  0.23056501150131226  0.3234740197658539  0.6866430640220642  1.0000
  Na  Na1       1.0  0.072940893471241  0.8191577196121216  0.18624764680862427  1.0000
  O   O1        1.0  0.4326830208301544  0.1578996479511261  0.6628091335296631  1.0000
  O   O2        1.0  0.8990804553031921  0.5482829809188843  0.3402460515499115  1.0000
  O   O3        1.0  0.43257489800453186  0.8875717520713806  0.8236597776412964  1.0000
  O   O4        1.0  0.20861953496932983  0.2520662844181061  0.8647233843803406  1.0000
  O   O5        1.0  0.8975393176078796  0.5484170317649841  0.5517804622650146  1.0000
  Si  Si1       1.0  0.9089162349700928  0.8803938627243042  0.7341274619102478  1.0000
  Zn  Zn1       1.0  0.9543036818504333  0.4170805811882019  0.524358332157135  1.0000
