data_image0
_chemical_formula_structural       AuF2MoNa3O4Rh
_chemical_formula_sum              "Au1 F2 Mo1 Na3 O4 Rh1"
_cell_length_a       4.2496666095592275
_cell_length_b       6.4196252620490135
_cell_length_c       6.153118133544922
_cell_angle_alpha    120.9041841329946
_cell_angle_beta     95.64105751832895
_cell_angle_gamma    89.03882838746733

_space_group_name_H-M_alt    "P 1"
_space_group_IT_number       1

loop_
  _space_group_symop_operation_xyz
  'x, y, z'

loop_
  _atom_site_type_symbol
  _atom_site_label
  _atom_site_symmetry_multiplicity
  _atom_site_fract_x
  _atom_site_fract_y
  _atom_site_fract_z
  _atom_site_occupancy
  Au  Au1       1.0  0.29436323046684265  0.39215990900993347  0.352729856967926  1.0000
  F   F1        1.0  0.5510684251785278  0.8538709878921509  0.24556604027748108  1.0000
  F   F2        1.0  0.27751174569129944  0.7286482453346252  0.6923235058784485  1.0000
  Mo  Mo1       1.0  0.7847039699554443  0.874404788017273  0.24408744275569916  1.0000
  Na  Na1       1.0  0.2793910801410675  0.47200873494148254  0.8987106084823608  1.0000
  Na  Na2       1.0  0.7875820994377136  0.05685800313949585  0.45538777112960815  1.0000
  Na  Na3       1.0  0.283418208360672  0.38608741760253906  0.1850854605436325  1.0000
  O   O1        1.0  0.3022809624671936  0.34736183285713196  0.9805028438568115  1.0000
  O   O2        1.0  0.2883170247077942  0.9477832913398743  0.29920744895935053  1.0000
  O   O3        1.0  0.7602896094322205  0.45905807614326477  0.5228660106658936  1.0000
  O   O4        1.0  0.781391441822052  0.6132102012634277  0.19047759473323822  1.0000
  Rh  Rh1       1.0  0.038030073046684265  0.09019486606121063  0.6218239068984985  1.0000
