data_image0
_chemical_formula_structural       HRu2Si4Y2Zr2
_chemical_formula_sum              "H1 Ru2 Si4 Y2 Zr2"
_cell_length_a       5.628157412464832
_cell_length_b       5.85763090342666
_cell_length_c       5.8310770988464355
_cell_angle_alpha    63.12233456732313
_cell_angle_beta     62.06512713653615
_cell_angle_gamma    61.971575064125894

_space_group_name_H-M_alt    "P 1"
_space_group_IT_number       1

loop_
  _space_group_symop_operation_xyz
  'x, y, z'

loop_
  _atom_site_type_symbol
  _atom_site_label
  _atom_site_symmetry_multiplicity
  _atom_site_fract_x
  _atom_site_fract_y
  _atom_site_fract_z
  _atom_site_occupancy
  H   H1        1.0  0.8711063265800476  0.5035422444343567  0.7666147351264954  1.0000
  Ru  Ru1       1.0  0.6520131826400757  0.13001921772956848  0.5654471516609192  1.0000
  Ru  Ru2       1.0  0.06381642073392868  0.6258687973022461  0.45936885476112366  1.0000
  Si  Si1       1.0  0.4006058871746063  0.01199949998408556  0.7265780568122864  1.0000
  Si  Si2       1.0  0.18821144104003906  0.11237583309412003  0.4461575448513031  1.0000
  Si  Si3       1.0  0.2876371741294861  0.3787982761859894  0.86516934633255  1.0000
  Si  Si4       1.0  0.28597134351730347  0.8729785680770874  0.14368106424808502  1.0000
  Y   Y1        1.0  0.7283408045768738  0.3544009327888489  0.2595866620540619  1.0000
  Y   Y2        1.0  0.21563765406608582  0.35005128383636475  0.22430963814258575  1.0000
  Zr  Zr1       1.0  0.5331254005432129  0.937521755695343  0.8625051379203796  1.0000
  Zr  Zr2       1.0  0.16049613058567047  0.5109503865242004  0.4123417139053345  1.0000
