data_image0
_chemical_formula_structural       ClNiRu3Si5Y
_chemical_formula_sum              "Cl1 Ni1 Ru3 Si5 Y1"
_cell_length_a       4.638358111483152
_cell_length_b       6.367315745325978
_cell_length_c       6.540876388549805
_cell_angle_alpha    70.63613668110175
_cell_angle_beta     68.44175410101047
_cell_angle_gamma    69.26701061013034

_space_group_name_H-M_alt    "P 1"
_space_group_IT_number       1

loop_
  _space_group_symop_operation_xyz
  'x, y, z'

loop_
  _atom_site_type_symbol
  _atom_site_label
  _atom_site_symmetry_multiplicity
  _atom_site_fract_x
  _atom_site_fract_y
  _atom_site_fract_z
  _atom_site_occupancy
  Cl  Cl1       1.0  0.514621376991272  0.3394169509410858  0.16531416773796082  1.0000
  Ni  Ni1       1.0  0.4200668931007385  0.3417424261569977  0.6998092532157898  1.0000
  Ru  Ru1       1.0  0.16863223910331726  0.07620338350534439  0.20241427421569824  1.0000
  Ru  Ru2       1.0  0.6644709706306458  0.5807172656059265  0.7073745727539062  1.0000
  Ru  Ru3       1.0  0.033504389226436615  0.3257075846195221  0.07015413045883179  1.0000
  Si  Si1       1.0  0.7363662719726562  0.9218438267707826  0.8010078072547913  1.0000
  Si  Si2       1.0  0.5324757695198059  0.8458119034767151  0.0523841492831707  1.0000
  Si  Si3       1.0  0.9278898239135742  0.8274886012077332  0.06494821608066559  1.0000
  Si  Si4       1.0  0.4435476064682007  0.8526755571365356  0.6763572096824646  1.0000
  Si  Si5       1.0  0.4350931644439697  0.2657804787158966  0.8712055087089539  1.0000
  Y   Y1        1.0  0.1647035628557205  0.46889847517013555  0.9125609397888184  1.0000
