data_image0
_chemical_formula_structural       NaRu4Si3TlY2
_chemical_formula_sum              "Na1 Ru4 Si3 Tl1 Y2"
_cell_length_a       5.663745128242555
_cell_length_b       6.158779142414065
_cell_length_c       6.159986972808838
_cell_angle_alpha    61.92239844362632
_cell_angle_beta     60.70526188385429
_cell_angle_gamma    61.16886504734251

_space_group_name_H-M_alt    "P 1"
_space_group_IT_number       1

loop_
  _space_group_symop_operation_xyz
  'x, y, z'

loop_
  _atom_site_type_symbol
  _atom_site_label
  _atom_site_symmetry_multiplicity
  _atom_site_fract_x
  _atom_site_fract_y
  _atom_site_fract_z
  _atom_site_occupancy
  Na  Na1       1.0  0.24321934580802917  0.1971418261528015  0.03198782727122307  1.0000
  Ru  Ru1       1.0  0.33489441871643066  0.9673361778259277  0.8887977004051208  1.0000
  Ru  Ru2       1.0  0.36319488286972046  0.7131912112236023  0.880560576915741  1.0000
  Ru  Ru3       1.0  0.733051061630249  0.19256864488124847  0.8871783018112183  1.0000
  Ru  Ru4       1.0  0.7316935658454895  0.2121100127696991  0.3860243260860443  1.0000
  Si  Si1       1.0  0.9435969591140747  0.46597054600715637  0.09900505840778351  1.0000
  Si  Si2       1.0  0.9481639862060547  0.9081124067306519  0.0894673764705658  1.0000
  Si  Si3       1.0  0.7195637822151184  0.7115782499313354  0.3717203140258789  1.0000
  Tl  Tl1       1.0  0.33950433135032654  0.9544933438301086  0.7010043263435364  1.0000
  Y   Y1        1.0  0.24527959525585175  0.440044105052948  0.3743155300617218  1.0000
  Y   Y2        1.0  0.7259897589683533  0.7152233123779297  0.33164575695991516  1.0000
