data_image0
_chemical_formula_structural       Si8Y3
_chemical_formula_sum              "Si8 Y3"
_cell_length_a       5.09036545722147
_cell_length_b       5.319835512632954
_cell_length_c       6.191798686981201
_cell_angle_alpha    120.65077095734402
_cell_angle_beta     101.55143718867112
_cell_angle_gamma    89.91580558303272

_space_group_name_H-M_alt    "P 1"
_space_group_IT_number       1

loop_
  _space_group_symop_operation_xyz
  'x, y, z'

loop_
  _atom_site_type_symbol
  _atom_site_label
  _atom_site_symmetry_multiplicity
  _atom_site_fract_x
  _atom_site_fract_y
  _atom_site_fract_z
  _atom_site_occupancy
  Si  Si1       1.0  0.996606707572937  0.10990249365568161  0.8158139586448669  1.0000
  Si  Si2       1.0  0.9810422658920288  0.8518565893173218  0.4596701562404633  1.0000
  Si  Si3       1.0  0.4929655194282532  0.847975492477417  0.8320550322532654  1.0000
  Si  Si4       1.0  0.9857762455940247  0.7990338802337646  0.19697581231594094  1.0000
  Si  Si5       1.0  0.9902949929237366  0.04816834256052971  0.07070673257112503  1.0000
  Si  Si6       1.0  0.4827170670032501  0.4734840393066407  0.03965261951088909  1.0000
  Si  Si7       1.0  0.5966563820838928  0.6970877051353455  0.4706753790378571  1.0000
  Si  Si8       1.0  0.506607174873352  0.501639723777771  0.24451331794261935  1.0000
  Y   Y1        1.0  0.9418967366218567  0.43463942408561707  0.7541223764419556  1.0000
  Y   Y2        1.0  0.5005940198898315  0.19893001019954681  0.6941192746162415  1.0000
  Y   Y3        1.0  0.22919000685214996  0.5777126550674438  0.2999373376369477  1.0000
