data_image0
_chemical_formula_structural       Si6Y5
_chemical_formula_sum              "Si6 Y5"
_cell_length_a       6.0526948461956165
_cell_length_b       6.776803816370042
_cell_length_c       7.314638137817383
_cell_angle_alpha    115.76966845383083
_cell_angle_beta     109.73635040410116
_cell_angle_gamma    89.96500651777899

_space_group_name_H-M_alt    "P 1"
_space_group_IT_number       1

loop_
  _space_group_symop_operation_xyz
  'x, y, z'

loop_
  _atom_site_type_symbol
  _atom_site_label
  _atom_site_symmetry_multiplicity
  _atom_site_fract_x
  _atom_site_fract_y
  _atom_site_fract_z
  _atom_site_occupancy
  Si  Si1       1.0  0.12870502471923828  0.5068126320838928  0.31886190176010126  1.0000
  Si  Si2       1.0  0.1298370212316513  0.9389651417732239  0.9757203459739684  1.0000
  Si  Si3       1.0  0.03409765660762785  0.9394916296005248  0.24088227748870847  1.0000
  Si  Si4       1.0  0.12275474518537517  0.998369812965393  0.4645158946514129  1.0000
  Si  Si5       1.0  0.1305853128433227  0.9694243073463439  0.23529317975044248  1.0000
  Si  Si6       1.0  0.6296178698539734  0.0172538124024868  0.7768938541412352  1.0000
  Y   Y1        1.0  0.7963520288467407  0.5325886011123657  0.25708237290382385  1.0000
  Y   Y2        1.0  0.5107095241546631  0.26407039165496826  0.03748150169849395  1.0000
  Y   Y3        1.0  0.88002610206604  0.6633026599884033  0.16584636270999906  1.0000
  Y   Y4        1.0  0.5240812301635742  0.4316665828227997  0.23071375489234922  1.0000
  Y   Y5        1.0  0.5157642364501953  0.9236476421356201  0.9341946244239806  1.0000
