data_image0
_chemical_formula_structural       HRu2Si7Y
_chemical_formula_sum              "H1 Ru2 Si7 Y1"
_cell_length_a       5.098858715797765
_cell_length_b       5.387321791216956
_cell_length_c       6.288948059082031
_cell_angle_alpha    118.7194091041563
_cell_angle_beta     111.42079834799313
_cell_angle_gamma    89.84681630096318

_space_group_name_H-M_alt    "P 1"
_space_group_IT_number       1

loop_
  _space_group_symop_operation_xyz
  'x, y, z'

loop_
  _atom_site_type_symbol
  _atom_site_label
  _atom_site_symmetry_multiplicity
  _atom_site_fract_x
  _atom_site_fract_y
  _atom_site_fract_z
  _atom_site_occupancy
  H   H1        1.0  0.37396860122680664  0.5602220892906189  0.8645195364952087  1.0000
  Ru  Ru1       1.0  0.08035900443792343  0.7482967972755432  0.8640797138214111  1.0000
  Ru  Ru2       1.0  0.9266643524169922  0.17652420699596405  0.05248795822262764  1.0000
  Si  Si1       1.0  0.39170414209365845  0.16632616519927979  0.3667309880256653  1.0000
  Si  Si2       1.0  0.901152491569519  0.6404761075973511  0.9420345425605774  1.0000
  Si  Si3       1.0  0.22579529881477356  0.5010280609130859  0.3282783329486847  1.0000
  Si  Si4       1.0  0.3409895896911621  0.9936835169792175  0.8682428002357483  1.0000
  Si  Si5       1.0  0.5667332410812378  0.8974818587303162  0.3323841392993927  1.0000
  Si  Si6       1.0  0.9902104139328003  0.6829195618629456  0.5154109597206116  1.0000
  Si  Si7       1.0  0.7511277198791504  0.9709081053733826  0.3651335537433624  1.0000
  Y   Y1        1.0  0.6723118424415588  0.36401110887527466  0.1786481887102127  1.0000
