data_image0
_chemical_formula_structural       AlIIrNiP2Sc5
_chemical_formula_sum              "Al1 I1 Ir1 Ni1 P2 Sc5"
_cell_length_a       5.376791901163044
_cell_length_b       6.317194656061967
_cell_length_c       7.059082508087158
_cell_angle_alpha    117.95203614999122
_cell_angle_beta     101.51395492149634
_cell_angle_gamma    93.34140604070666

_space_group_name_H-M_alt    "P 1"
_space_group_IT_number       1

loop_
  _space_group_symop_operation_xyz
  'x, y, z'

loop_
  _atom_site_type_symbol
  _atom_site_label
  _atom_site_symmetry_multiplicity
  _atom_site_fract_x
  _atom_site_fract_y
  _atom_site_fract_z
  _atom_site_occupancy
  Al  Al1       1.0  0.7648141384124756  0.5408422350883484  0.3029363453388214  1.0000
  I   I1        1.0  0.2655102610588074  0.24414035677909848  0.8827623128890992  1.0000
  Ir  Ir1       1.0  0.26829758286476135  0.8419944047927856  0.4763274788856507  1.0000
  Ni  Ni1       1.0  0.7682554721832275  0.3962768018245697  0.20256209373474118  1.0000
  P   P1        1.0  0.2655898630619049  0.1614670753479004  0.876195251941681  1.0000
  P   P2        1.0  0.2703430652618408  0.41951557993888855  0.14192788302898407  1.0000
  Sc  Sc1       1.0  0.2670867443084717  0.29762357473373413  0.4160399436950684  1.0000
  Sc  Sc2       1.0  0.27583491802215576  0.7167763710021973  0.7809061408042909  1.0000
  Sc  Sc3       1.0  0.7710044980049133  0.13793058693408966  0.5876067876815796  1.0000
  Sc  Sc4       1.0  0.7687448263168335  0.5113245844841003  0.6787233948707581  1.0000
  Sc  Sc5       1.0  0.7702715396881104  0.39848780632019043  0.009069705381989479  1.0000
