data_image0
_chemical_formula_structural       GaLiNiPSc6Zn
_chemical_formula_sum              "Ga1 Li1 Ni1 P1 Sc6 Zn1"
_cell_length_a       5.0678956096543955
_cell_length_b       5.112135496310034
_cell_length_c       5.6798200607299805
_cell_angle_alpha    91.56105757923662
_cell_angle_beta     90.61407726222963
_cell_angle_gamma    90.54649454615176

_space_group_name_H-M_alt    "P 1"
_space_group_IT_number       1

loop_
  _space_group_symop_operation_xyz
  'x, y, z'

loop_
  _atom_site_type_symbol
  _atom_site_label
  _atom_site_symmetry_multiplicity
  _atom_site_fract_x
  _atom_site_fract_y
  _atom_site_fract_z
  _atom_site_occupancy
  Ga  Ga1       1.0  0.36969831585884094  0.7656008005142212  0.9663890600204468  1.0000
  Li  Li1       1.0  0.868482232093811  0.6166305541992188  0.4595707952976227  1.0000
  Ni  Ni1       1.0  0.3747984766960144  0.5755694508552551  0.09651550650596619  1.0000
  P   P1        1.0  0.8597244620323181  0.9095315933227539  0.21335631608963013  1.0000
  Sc  Sc1       1.0  0.3693601191043854  0.1136350929737091  0.08464670181274414  1.0000
  Sc  Sc2       1.0  0.8723860383033752  0.018184451386332512  0.6105864644050598  1.0000
  Sc  Sc3       1.0  0.9334580302238464  0.37350714206695557  0.9210123419761658  1.0000
  Sc  Sc4       1.0  0.6355394721031189  0.220847949385643  0.8302226066589355  1.0000
  Sc  Sc5       1.0  0.12173010408878326  0.9924564957618713  0.831622302532196  1.0000
  Sc  Sc6       1.0  0.6287281513214111  0.08273832499980927  0.8486886620521545  1.0000
  Zn  Zn1       1.0  0.36514076590538025  0.6329587697982788  0.7150242328643799  1.0000
