data_image0
_chemical_formula_structural       AlNi2PSc6Zn
_chemical_formula_sum              "Al1 Ni2 P1 Sc6 Zn1"
_cell_length_a       5.096151012691824
_cell_length_b       6.042801310231565
_cell_length_c       7.53573751449585
_cell_angle_alpha    115.38569090359299
_cell_angle_beta     91.10299229269661
_cell_angle_gamma    97.1835409751772

_space_group_name_H-M_alt    "P 1"
_space_group_IT_number       1

loop_
  _space_group_symop_operation_xyz
  'x, y, z'

loop_
  _atom_site_type_symbol
  _atom_site_label
  _atom_site_symmetry_multiplicity
  _atom_site_fract_x
  _atom_site_fract_y
  _atom_site_fract_z
  _atom_site_occupancy
  Al  Al1       1.0  0.8470950722694397  0.1689300239086151  0.6498392820358276  1.0000
  Ni  Ni1       1.0  0.35552525520324707  0.9525314569473268  0.8164035081863403  1.0000
  Ni  Ni2       1.0  0.35844171047210693  0.9348379969596864  0.2178780436515809  1.0000
  P   P1        1.0  0.8586971759796143  0.4206357300281525  0.5253035426139832  1.0000
  Sc  Sc1       1.0  0.8488103747367859  0.8549244403839112  0.6149516701698303  1.0000
  Sc  Sc2       1.0  0.3598175346851349  0.2806776463985443  0.30562782287597656  1.0000
  Sc  Sc3       1.0  0.8531436324119568  0.6375778317451477  0.5290902256965637  1.0000
  Sc  Sc4       1.0  0.3486825227737427  0.6929594874382019  0.8231486082077026  1.0000
  Sc  Sc5       1.0  0.34297195076942444  0.06656751036643982  0.6320652365684509  1.0000
  Sc  Sc6       1.0  0.35743799805641174  0.2240511775016785  0.4660208523273468  1.0000
  Zn  Zn1       1.0  0.8560370802879333  0.7400276064872742  0.5118396878242493  1.0000
