data_image0
_chemical_formula_structural       Al6Ni2Sc3
_chemical_formula_sum              "Al6 Ni2 Sc3"
_cell_length_a       5.586911031543582
_cell_length_b       6.503239545920403
_cell_length_c       6.123532295227051
_cell_angle_alpha    69.67934535248345
_cell_angle_beta     64.25083891179654
_cell_angle_gamma    63.844377672505935

_space_group_name_H-M_alt    "P 1"
_space_group_IT_number       1

loop_
  _space_group_symop_operation_xyz
  'x, y, z'

loop_
  _atom_site_type_symbol
  _atom_site_label
  _atom_site_symmetry_multiplicity
  _atom_site_fract_x
  _atom_site_fract_y
  _atom_site_fract_z
  _atom_site_occupancy
  Al  Al1       1.0  0.06334017962217331  0.8480446934700012  0.3369959890842438  1.0000
  Al  Al2       1.0  0.6074207425117493  0.19392240047454834  0.1578099876642227  1.0000
  Al  Al3       1.0  0.0693780779838562  0.3826574683189392  0.0059935562312603  1.0000
  Al  Al4       1.0  0.9619540572166443  0.8421440720558167  0.0958271399140358  1.0000
  Al  Al5       1.0  0.07984716445207596  0.6002193093299866  0.4307941496372223  1.0000
  Al  Al6       1.0  0.5818831920623779  0.586794912815094  0.44178184866905207  1.0000
  Ni  Ni1       1.0  0.5497297048568726  0.06237388402223587  0.13368766009807587  1.0000
  Ni  Ni2       1.0  0.5913329720497131  0.9529246687889099  0.4640323519706726  1.0000
  Sc  Sc1       1.0  0.29852306842803955  0.6274376511573792  0.3881738483905792  1.0000
  Sc  Sc2       1.0  0.5324051380157471  0.710631787776947  0.8257984519004822  1.0000
  Sc  Sc3       1.0  0.589867115020752  0.34028488397598267  0.6906707286834717  1.0000
