data_image0
_chemical_formula_structural       Al2LiNi3PbSc3Zr
_chemical_formula_sum              "Al2 Li1 Ni3 Pb1 Sc3 Zr1"
_cell_length_a       5.179348958115822
_cell_length_b       5.934334883325586
_cell_length_c       6.37865686416626
_cell_angle_alpha    115.93992580915013
_cell_angle_beta     92.13655088783496
_cell_angle_gamma    92.19345942770282

_space_group_name_H-M_alt    "P 1"
_space_group_IT_number       1

loop_
  _space_group_symop_operation_xyz
  'x, y, z'

loop_
  _atom_site_type_symbol
  _atom_site_label
  _atom_site_symmetry_multiplicity
  _atom_site_fract_x
  _atom_site_fract_y
  _atom_site_fract_z
  _atom_site_occupancy
  Al  Al1       1.0  0.8167842626571655  0.7825432419776917  0.669011652469635  1.0000
  Al  Al2       1.0  0.2956821620464325  0.5951037406921387  0.803537607192993  1.0000
  Li  Li1       1.0  0.7977724671363831  0.8194907307624817  0.9718057513236998  1.0000
  Ni  Ni1       1.0  0.5660924911499023  0.2884138822555542  0.009161247871816158  1.0000
  Ni  Ni2       1.0  0.8096616864204407  0.7867510318756104  0.8200827836990355  1.0000
  Ni  Ni3       1.0  0.5625770092010498  0.9192942976951599  0.6572109460830688  1.0000
  Pb  Pb1       1.0  0.2997606694698334  0.07197394222021103  0.8463460206985473  1.0000
  Sc  Sc1       1.0  0.31804344058036804  0.22046811878681183  0.5096700191497803  1.0000
  Sc  Sc2       1.0  0.8127984404563904  0.5550844669342041  0.6419370770454407  1.0000
  Sc  Sc3       1.0  0.8100682497024536  0.07426892966032028  0.8146038055419921  1.0000
  Zr  Zr1       1.0  0.3064200282096863  0.3674246668815613  0.9607020616531371  1.0000
