data_image0
_chemical_formula_structural       Al5Ni3Sc3
_chemical_formula_sum              "Al5 Ni3 Sc3"
_cell_length_a       4.782933767203087
_cell_length_b       5.327861973281706
_cell_length_c       4.945783615112305
_cell_angle_alpha    73.78526379314802
_cell_angle_beta     68.07471675270868
_cell_angle_gamma    65.0110976490823

_space_group_name_H-M_alt    "P 1"
_space_group_IT_number       1

loop_
  _space_group_symop_operation_xyz
  'x, y, z'

loop_
  _atom_site_type_symbol
  _atom_site_label
  _atom_site_symmetry_multiplicity
  _atom_site_fract_x
  _atom_site_fract_y
  _atom_site_fract_z
  _atom_site_occupancy
  Al  Al1       1.0  0.6351212859153748  0.27235734462738037  0.9633347988128662  1.0000
  Al  Al2       1.0  0.6391957998275757  0.23642441630363467  0.7818060517311096  1.0000
  Al  Al3       1.0  0.09176319092512131  0.6987442374229431  0.1824001520872116  1.0000
  Al  Al4       1.0  0.6199495196342468  0.04821056127548218  0.702487587928772  1.0000
  Al  Al5       1.0  0.12136548012495038  0.4986580312252045  0.13038159906864166  1.0000
  Ni  Ni1       1.0  0.4478180706501007  0.28624454140663147  0.5988242030143738  1.0000
  Ni  Ni2       1.0  0.6250400543212891  0.5498863458633423  0.7997385859489441  1.0000
  Ni  Ni3       1.0  0.12125875055789948  0.3602512776851654  0.7973343729972839  1.0000
  Sc  Sc1       1.0  0.4226769208908081  0.3793032467365265  0.5835551619529724  1.0000
  Sc  Sc2       1.0  0.11977110058069229  0.7425180077552795  0.4813139736652374  1.0000
  Sc  Sc3       1.0  0.1216360479593277  0.2826141119003296  0.35481053590774536  1.0000
