data_image0
_chemical_formula_structural       Lu11Si
_chemical_formula_sum              "Lu11 Si1"
_cell_length_a       3.971899836177385
_cell_length_b       4.629858349571674
_cell_length_c       6.502893447875977
_cell_angle_alpha    91.32882970652402
_cell_angle_beta     98.19688802376761
_cell_angle_gamma    88.66291767229569

_space_group_name_H-M_alt    "P 1"
_space_group_IT_number       1

loop_
  _space_group_symop_operation_xyz
  'x, y, z'

loop_
  _atom_site_type_symbol
  _atom_site_label
  _atom_site_symmetry_multiplicity
  _atom_site_fract_x
  _atom_site_fract_y
  _atom_site_fract_z
  _atom_site_occupancy
  Lu  Lu1       1.0  0.9851174354553223  0.07059526443481445  0.8793869614601135  1.0000
  Lu  Lu2       1.0  0.8239943385124207  0.3210389316082001  0.2220057100057602  1.0000
  Lu  Lu3       1.0  0.255528062582016  0.3986535370349884  0.2418380081653595  1.0000
  Lu  Lu4       1.0  0.310222327709198  0.007284783758223057  0.16490979492664337  1.0000
  Lu  Lu5       1.0  0.7354170083999634  0.7856589555740356  0.4124792218208313  1.0000
  Lu  Lu6       1.0  0.9654525518417358  0.9668056964874268  0.021268794313073158  1.0000
  Lu  Lu7       1.0  0.2358470857143402  0.43981653451919556  0.9500964283943176  1.0000
  Lu  Lu8       1.0  0.5169543027877808  0.6922795176506042  0.8532975912094116  1.0000
  Lu  Lu9       1.0  0.29725998640060425  0.47721078991889954  0.6805446147918701  1.0000
  Lu  Lu10      1.0  0.7553896307945251  0.9596000909805298  0.5423327088356018  1.0000
  Lu  Lu11      1.0  0.8010863065719604  0.44655224680900574  0.7686176300048828  1.0000
  Si  Si1       1.0  0.793446958065033  0.9076311588287354  0.70457923412323  1.0000
