data_image0
_chemical_formula_structural       DyLu9SiZn
_chemical_formula_sum              "Dy1 Lu9 Si1 Zn1"
_cell_length_a       5.511714643510622
_cell_length_b       5.917067004808732
_cell_length_c       6.94559907913208
_cell_angle_alpha    117.0711489882737
_cell_angle_beta     100.4455819729722
_cell_angle_gamma    98.27184566692384

_space_group_name_H-M_alt    "P 1"
_space_group_IT_number       1

loop_
  _space_group_symop_operation_xyz
  'x, y, z'

loop_
  _atom_site_type_symbol
  _atom_site_label
  _atom_site_symmetry_multiplicity
  _atom_site_fract_x
  _atom_site_fract_y
  _atom_site_fract_z
  _atom_site_occupancy
  Dy  Dy1       1.0  0.27225807309150696  0.7489470839500427  0.7853353023529053  1.0000
  Lu  Lu1       1.0  0.7874206304550171  0.16616807878017426  0.9823746681213379  1.0000
  Lu  Lu2       1.0  0.2761767506599426  0.41384172439575195  0.48916566371917725  1.0000
  Lu  Lu3       1.0  0.772712230682373  0.17749805748462677  0.06148005276918411  1.0000
  Lu  Lu4       1.0  0.7752697467803955  0.4774185121059418  0.5100185871124268  1.0000
  Lu  Lu5       1.0  0.7751677632331848  0.33070316910743713  0.5646322965621948  1.0000
  Lu  Lu6       1.0  0.7803840041160583  0.1992948204278946  0.4150495231151581  1.0000
  Lu  Lu7       1.0  0.26579615473747253  0.9580155611038208  0.5434534549713135  1.0000
  Lu  Lu8       1.0  0.277683287858963  0.23149575293064117  0.7768129706382751  1.0000
  Lu  Lu9       1.0  0.2734118700027466  0.227494478225708  0.5375561118125916  1.0000
  Si  Si1       1.0  0.777177631855011  0.11178955435752869  0.2771909534931183  1.0000
  Zn  Zn1       1.0  0.7752923965454102  0.5610323548316956  0.6350042819976807  1.0000
