data_image0
_chemical_formula_structural       IrLu4Si7
_chemical_formula_sum              "Ir1 Lu4 Si7"
_cell_length_a       6.234306429885652
_cell_length_b       6.586000181550911
_cell_length_c       7.7054853439331055
_cell_angle_alpha    100.45499630773968
_cell_angle_beta     100.11751028002924
_cell_angle_gamma    111.68025217676102

_space_group_name_H-M_alt    "P 1"
_space_group_IT_number       1

loop_
  _space_group_symop_operation_xyz
  'x, y, z'

loop_
  _atom_site_type_symbol
  _atom_site_label
  _atom_site_symmetry_multiplicity
  _atom_site_fract_x
  _atom_site_fract_y
  _atom_site_fract_z
  _atom_site_occupancy
  Ir  Ir1       1.0  0.6333900094032288  0.08991333097219467  0.8084693551063539  1.0000
  Lu  Lu1       1.0  0.4966745078563691  0.8067071437835693  0.9222289919853212  1.0000
  Lu  Lu2       1.0  0.5523687601089478  0.8725470900535583  0.3951273858547211  1.0000
  Lu  Lu3       1.0  0.12496967613697053  0.05126058682799339  0.5296620726585388  1.0000
  Lu  Lu4       1.0  0.08084988594055176  0.43897750973701477  0.6408872604370117  1.0000
  Si  Si1       1.0  0.011104613542556763  0.2747558057308197  0.1811144053936005  1.0000
  Si  Si2       1.0  0.1795930117368698  0.9531012177467346  0.05013765022158626  1.0000
  Si  Si3       1.0  0.4667676985263825  0.2085370272397995  0.9434385299682618  1.0000
  Si  Si4       1.0  0.8370241522789003  0.027461407706141472  0.3431751132011414  1.0000
  Si  Si5       1.0  0.10613442212343217  0.8239465951919556  0.5335379242897034  1.0000
  Si  Si6       1.0  0.42437231540679937  0.7187315225601196  0.39752003550529486  1.0000
  Si  Si7       1.0  0.05134817212820054  0.4140656590461731  0.16406343877315524  1.0000
