data_image0
_chemical_formula_structural       Ir2Lu2Si8
_chemical_formula_sum              "Ir2 Lu2 Si8"
_cell_length_a       5.614734815290512
_cell_length_b       6.150520347096204
_cell_length_c       6.661407470703125
_cell_angle_alpha    101.60360911241202
_cell_angle_beta     106.0017945875687
_cell_angle_gamma    106.30199672936116

_space_group_name_H-M_alt    "P 1"
_space_group_IT_number       1

loop_
  _space_group_symop_operation_xyz
  'x, y, z'

loop_
  _atom_site_type_symbol
  _atom_site_label
  _atom_site_symmetry_multiplicity
  _atom_site_fract_x
  _atom_site_fract_y
  _atom_site_fract_z
  _atom_site_occupancy
  Ir  Ir1       1.0  0.5626506209373474  0.21249394118785858  0.040311310440301895  1.0000
  Ir  Ir2       1.0  0.5615007877349854  0.006442591082304716  0.12063641101121901  1.0000
  Lu  Lu1       1.0  0.022088563069701195  0.08384381234645844  0.22562190890312192  1.0000
  Lu  Lu2       1.0  0.06504882872104645  0.5582510828971863  0.8883070349693297  1.0000
  Si  Si1       1.0  0.7303645610809326  0.3889591097831726  0.7973662018775939  1.0000
  Si  Si2       1.0  0.56052565574646  0.6631882190704346  0.44044107198715204  1.0000
  Si  Si3       1.0  0.05381923913955688  0.45415055751800537  0.3033873736858368  1.0000
  Si  Si4       1.0  0.5765156745910645  0.909244179725647  0.41699028015136713  1.0000
  Si  Si5       1.0  0.5970839262008667  0.4739331007003784  0.7238723039627074  1.0000
  Si  Si6       1.0  0.5691516399383545  0.557932436466217  0.13190309703350067  1.0000
  Si  Si7       1.0  0.5562677383422852  0.4862027168273926  0.6230422258377075  1.0000
  Si  Si8       1.0  0.07135728001594543  0.4912562966346741  0.18270948529243466  1.0000
