data_image0
_chemical_formula_structural       IrLu10Zn
_chemical_formula_sum              "Ir1 Lu10 Zn1"
_cell_length_a       5.24381145804603
_cell_length_b       6.422783422529593
_cell_length_c       7.833641052246094
_cell_angle_alpha    90.30135280678243
_cell_angle_beta     90.9003335168345
_cell_angle_gamma    102.73994352852573

_space_group_name_H-M_alt    "P 1"
_space_group_IT_number       1

loop_
  _space_group_symop_operation_xyz
  'x, y, z'

loop_
  _atom_site_type_symbol
  _atom_site_label
  _atom_site_symmetry_multiplicity
  _atom_site_fract_x
  _atom_site_fract_y
  _atom_site_fract_z
  _atom_site_occupancy
  Ir  Ir1       1.0  0.7016685009002686  0.6932843923568726  0.451043963432312  1.0000
  Lu  Lu1       1.0  0.9303724765777588  0.6422444581985474  0.8631587028503418  1.0000
  Lu  Lu2       1.0  0.21966591477394104  0.35223835706710815  0.2771628797054291  1.0000
  Lu  Lu3       1.0  0.6937410235404968  0.5313569903373718  0.28403356671333313  1.0000
  Lu  Lu4       1.0  0.6898735761642456  0.8345788717269897  0.9242759943008423  1.0000
  Lu  Lu5       1.0  0.19337980449199677  0.6706106662750244  0.3310088515281678  1.0000
  Lu  Lu6       1.0  0.19865819811820984  0.20047196745872498  0.5457902550697327  1.0000
  Lu  Lu7       1.0  0.22025300562381744  0.4369054138660431  0.6416954398155212  1.0000
  Lu  Lu8       1.0  0.1959250569343567  0.5161668658256531  0.18940499424934387  1.0000
  Lu  Lu9       1.0  0.22004203498363495  0.3338806927204132  0.22210678458213806  1.0000
  Lu  Lu10      1.0  0.7031015753746033  0.4013029634952545  0.483146071434021  1.0000
  Zn  Zn1       1.0  0.21025454998016357  0.2536105811595917  0.9262540340423584  1.0000
