data_image0
_chemical_formula_structural       AlLu11
_chemical_formula_sum              "Al1 Lu11"
_cell_length_a       4.708036009793638
_cell_length_b       6.734804791629645
_cell_length_c       8.042381286621094
_cell_angle_alpha    89.8276267025312
_cell_angle_beta     91.45218420933833
_cell_angle_gamma    98.2139553438166

_space_group_name_H-M_alt    "P 1"
_space_group_IT_number       1

loop_
  _space_group_symop_operation_xyz
  'x, y, z'

loop_
  _atom_site_type_symbol
  _atom_site_label
  _atom_site_symmetry_multiplicity
  _atom_site_fract_x
  _atom_site_fract_y
  _atom_site_fract_z
  _atom_site_occupancy
  Al  Al1       1.0  0.6694360375404358  0.27638208866119385  0.5984611511230469  1.0000
  Lu  Lu1       1.0  0.0784374549984932  0.5939354300498962  0.20599204301834106  1.0000
  Lu  Lu2       1.0  0.5868037939071655  0.7028462290763855  0.32339903712272644  1.0000
  Lu  Lu3       1.0  0.5772205591201782  0.5685506463050842  0.41511332988739014  1.0000
  Lu  Lu4       1.0  0.07303489744663239  0.14361213147640228  0.6866579651832581  1.0000
  Lu  Lu5       1.0  0.10999087244272232  0.9266558885574341  0.5150840878486633  1.0000
  Lu  Lu6       1.0  0.5753525495529175  0.22802607715129852  0.852881669998169  1.0000
  Lu  Lu7       1.0  0.07741539925336838  0.565287709236145  0.33200252056121826  1.0000
  Lu  Lu8       1.0  0.0972660481929779  0.795854389667511  0.25952163338661194  1.0000
  Lu  Lu9       1.0  0.08630122244358063  0.01900969259440899  0.7099888324737549  1.0000
  Lu  Lu10      1.0  0.5824759006500244  0.4752362072467804  0.9306040406227112  1.0000
  Lu  Lu11      1.0  0.8985428214073181  0.3770133852958679  0.9328036904335022  1.0000
