data_image0
_chemical_formula_structural       CoDyGaHPPbPd2ScZr
_chemical_formula_sum              "Co1 Dy1 Ga1 H1 P1 Pb1 Pd2 Sc1 Zr1"
_cell_length_a       6.050591236426754
_cell_length_b       6.040856850181231
_cell_length_c       6.540993690490723
_cell_angle_alpha    70.87782213589229
_cell_angle_beta     63.636663344842106
_cell_angle_gamma    59.508448378788984

_space_group_name_H-M_alt    "P 1"
_space_group_IT_number       1

loop_
  _space_group_symop_operation_xyz
  'x, y, z'

loop_
  _atom_site_type_symbol
  _atom_site_label
  _atom_site_symmetry_multiplicity
  _atom_site_fract_x
  _atom_site_fract_y
  _atom_site_fract_z
  _atom_site_occupancy
  Co  Co1       1.0  0.28252777457237244  0.6964109539985657  0.3799796998500824  1.0000
  Dy  Dy1       1.0  0.3842545449733734  0.7409937381744385  0.5680822134017944  1.0000
  Ga  Ga1       1.0  0.881645917892456  0.7435185313224792  0.23177729547023773  1.0000
  H   H1        1.0  0.776147186756134  0.05424082651734353  0.6356264352798462  1.0000
  P   P1        1.0  0.33948779106140137  0.5623931288719177  0.07642452418804169  1.0000
  Pb  Pb1       1.0  0.38665473461151123  0.7996810674667358  0.02363121509552002  1.0000
  Pd  Pd1       1.0  0.8752443194389343  0.6963340044021606  0.5422937870025635  1.0000
  Pd  Pd2       1.0  0.7795564532279968  0.15887336432933807  0.7463019490242004  1.0000
  Sc  Sc1       1.0  0.2816492021083832  0.601260244846344  0.7208611369132996  1.0000
  Zr  Zr1       1.0  0.24807202816009521  0.7980246543884277  0.22464509308338165  1.0000
