data_image0
_chemical_formula_structural       HInPPb2PdScSrZnZr
_chemical_formula_sum              "H1 In1 P1 Pb2 Pd1 Sc1 Sr1 Zn1 Zr1"
_cell_length_a       5.589087880493463
_cell_length_b       5.465902014406984
_cell_length_c       6.654538154602051
_cell_angle_alpha    72.50897184275233
_cell_angle_beta     76.25266464931929
_cell_angle_gamma    87.21490379523323

_space_group_name_H-M_alt    "P 1"
_space_group_IT_number       1

loop_
  _space_group_symop_operation_xyz
  'x, y, z'

loop_
  _atom_site_type_symbol
  _atom_site_label
  _atom_site_symmetry_multiplicity
  _atom_site_fract_x
  _atom_site_fract_y
  _atom_site_fract_z
  _atom_site_occupancy
  H   H1        1.0  0.01821186952292919  0.6753115057945251  0.2525700628757477  1.0000
  In  In1       1.0  0.33947551250457764  0.48119801282882685  0.884407877922058  1.0000
  P   P1        1.0  0.4106815755367279  0.846383810043335  0.07353082299232483  1.0000
  Pb  Pb1       1.0  0.35559070110321045  0.6720426678657532  0.7073957324028015  1.0000
  Pb  Pb2       1.0  0.01815290004014969  0.5245200991630554  0.4797143340110778  1.0000
  Pd  Pd1       1.0  0.8456783294677734  0.14269694685935974  0.47317546606063837  1.0000
  Sc  Sc1       1.0  0.35266849398612976  0.9981605410575866  0.3187238872051239  1.0000
  Sr  Sr1       1.0  0.569298267364502  0.08006953448057175  0.7931902408599852  1.0000
  Zn  Zn1       1.0  0.8373488187789917  0.5921717882156372  0.867354929447174  1.0000
  Zr  Zr1       1.0  0.34917575120925903  0.6058927178382874  0.31575876474380493  1.0000
