data_image0
_chemical_formula_structural       Ca4Pd3W3
_chemical_formula_sum              "Ca4 Pd3 W3"
_cell_length_a       4.598413235040295
_cell_length_b       6.027690800016019
_cell_length_c       6.3938798904418945
_cell_angle_alpha    122.87146671849345
_cell_angle_beta     87.59270960215241
_cell_angle_gamma    90.32186842453805

_space_group_name_H-M_alt    "P 1"
_space_group_IT_number       1

loop_
  _space_group_symop_operation_xyz
  'x, y, z'

loop_
  _atom_site_type_symbol
  _atom_site_label
  _atom_site_symmetry_multiplicity
  _atom_site_fract_x
  _atom_site_fract_y
  _atom_site_fract_z
  _atom_site_occupancy
  Ca  Ca1       1.0  0.23511435091495514  0.959419846534729  0.21936985850334173  1.0000
  Ca  Ca2       1.0  0.23504862189292908  0.10399947315454483  0.12259327620267868  1.0000
  Ca  Ca3       1.0  0.7343693971633911  0.8813118934631348  0.18050721287727348  1.0000
  Ca  Ca4       1.0  0.7345589399337769  0.7885487675666809  0.008379347622394562  1.0000
  Pd  Pd1       1.0  0.7362796664237976  0.4550913870334625  0.23958261311054224  1.0000
  Pd  Pd2       1.0  0.7380358576774597  0.8770908117294312  0.6566032767295837  1.0000
  Pd  Pd3       1.0  0.23487459123134613  0.642408013343811  0.1400166451930999  1.0000
  W   W1        1.0  0.23598845303058624  0.6173495650291443  0.7793859839439392  1.0000
  W   W2        1.0  0.7266096472740173  0.25969383120536804  0.10775722563266751  1.0000
  W   W3        1.0  0.2396729439496994  0.22623345255851746  0.002949316287413222  1.0000
