data_image0
_chemical_formula_structural       Ca6Pd2W2
_chemical_formula_sum              "Ca6 Pd2 W2"
_cell_length_a       4.8107152567493525
_cell_length_b       6.202565224258018
_cell_length_c       6.684171199798584
_cell_angle_alpha    119.57201737770225
_cell_angle_beta     90.88560019269663
_cell_angle_gamma    89.78363532637127

_space_group_name_H-M_alt    "P 1"
_space_group_IT_number       1

loop_
  _space_group_symop_operation_xyz
  'x, y, z'

loop_
  _atom_site_type_symbol
  _atom_site_label
  _atom_site_symmetry_multiplicity
  _atom_site_fract_x
  _atom_site_fract_y
  _atom_site_fract_z
  _atom_site_occupancy
  Ca  Ca1       1.0  0.7699483036994934  0.3125801384449005  0.17144985496997833  1.0000
  Ca  Ca2       1.0  0.7699339985847473  0.7998494505882263  0.5406419634819031  1.0000
  Ca  Ca3       1.0  0.2697130143642425  0.8798187375068663  0.8560585379600525  1.0000
  Ca  Ca4       1.0  0.7733268737792969  0.5681689977645874  0.8232613205909729  1.0000
  Ca  Ca5       1.0  0.7696045637130737  0.35535141825675964  0.4407801926136017  1.0000
  Ca  Ca6       1.0  0.7672430872917175  0.37078216671943665  0.6681944131851196  1.0000
  Pd  Pd1       1.0  0.2715964913368225  0.796674370765686  0.09578913450241089  1.0000
  Pd  Pd2       1.0  0.2763957381248474  0.48244947195053095  0.8302884101867676  1.0000
  W   W1        1.0  0.2712251842021942  0.4499626457691192  0.8406765460968018  1.0000
  W   W2        1.0  0.26886096596717834  0.7994347810745239  0.5506810545921325  1.0000
