data_image0
_chemical_formula_structural       CaP2Pd2PrScW2Zr
_chemical_formula_sum              "Ca1 P2 Pd2 Pr1 Sc1 W2 Zr1"
_cell_length_a       4.503345154496393
_cell_length_b       4.603185009359219
_cell_length_c       8.056144714355469
_cell_angle_alpha    94.20493980560343
_cell_angle_beta     89.70722596032623
_cell_angle_gamma    106.59987537093777

_space_group_name_H-M_alt    "P 1"
_space_group_IT_number       1

loop_
  _space_group_symop_operation_xyz
  'x, y, z'

loop_
  _atom_site_type_symbol
  _atom_site_label
  _atom_site_symmetry_multiplicity
  _atom_site_fract_x
  _atom_site_fract_y
  _atom_site_fract_z
  _atom_site_occupancy
  Ca  Ca1       1.0  0.5916074514389038  0.6586114764213562  0.18084155023097992  1.0000
  P   P1        1.0  0.936292290687561  0.265271931886673  0.1899293214082718  1.0000
  P   P2        1.0  0.5945227742195129  0.5529738068580627  0.4865992069244385  1.0000
  Pd  Pd1       1.0  0.5949772596359253  0.04036323353648186  0.4820660948753357  1.0000
  Pd  Pd2       1.0  0.597027063369751  0.019278509542346  0.332924485206604  1.0000
  Pr  Pr1       1.0  0.09651783108711243  0.9057906270027161  0.186695396900177  1.0000
  Sc  Sc1       1.0  0.580665647983551  0.26960694789886475  0.15640805661678314  1.0000
  W   W1        1.0  0.5903370380401611  0.8701757788658142  0.4827131927013397  1.0000
  W   W2        1.0  0.08094634115695953  0.2537893056869507  0.2197125256061554  1.0000
  Zr  Zr1       1.0  0.0916132852435112  0.3149541914463043  0.5279214978218079  1.0000
