data_image0
_chemical_formula_structural       HLiPbPd3W2ZnZr
_chemical_formula_sum              "H1 Li1 Pb1 Pd3 W2 Zn1 Zr1"
_cell_length_a       4.468428030518515
_cell_length_b       3.508656885560737
_cell_length_c       5.978841781616211
_cell_angle_alpha    109.27102209256662
_cell_angle_beta     106.7709513620761
_cell_angle_gamma    143.85388723089366

_space_group_name_H-M_alt    "P 1"
_space_group_IT_number       1

loop_
  _space_group_symop_operation_xyz
  'x, y, z'

loop_
  _atom_site_type_symbol
  _atom_site_label
  _atom_site_symmetry_multiplicity
  _atom_site_fract_x
  _atom_site_fract_y
  _atom_site_fract_z
  _atom_site_occupancy
  H   H1        1.0  0.23182523250579834  0.7609751224517822  0.5046274662017823  1.0000
  Li  Li1       1.0  0.4853382110595703  0.18147127330303192  0.13762943446636203  1.0000
  Pb  Pb1       1.0  0.7339829802513121  0.5637232065200805  0.43989139795303345  1.0000
  Pd  Pd1       1.0  0.7405462861061097  0.9204081296920777  0.641130030155182  1.0000
  Pd  Pd2       1.0  0.6350646018981934  0.23383633792400357  0.5535591244697571  1.0000
  Pd  Pd3       1.0  0.7295849323272706  0.9581226110458375  0.3211247920989991  1.0000
  W   W1        1.0  0.9883579611778259  0.6892055273056031  0.4908896386623383  1.0000
  W   W2        1.0  0.4906209707260132  0.2517195045948028  0.28777459263801575  1.0000
  Zn  Zn1       1.0  0.2960313856601716  0.8707188367843629  0.5626228451728822  1.0000
  Zr  Zr1       1.0  0.5565191507339479  0.7514002919197084  0.9762648940086365  1.0000
