data_image0
_chemical_formula_structural       IO2Tb6
_chemical_formula_sum              "I1 O2 Tb6"
_cell_length_a       5.471429612396008
_cell_length_b       5.878189377630757
_cell_length_c       9.519388198852539
_cell_angle_alpha    85.79582495775733
_cell_angle_beta     77.00430868661175
_cell_angle_gamma    68.67476491672987

_space_group_name_H-M_alt    "P 1"
_space_group_IT_number       1

loop_
  _space_group_symop_operation_xyz
  'x, y, z'

loop_
  _atom_site_type_symbol
  _atom_site_label
  _atom_site_symmetry_multiplicity
  _atom_site_fract_x
  _atom_site_fract_y
  _atom_site_fract_z
  _atom_site_occupancy
  I   I1        1.0  0.9446143507957458  0.20179511606693268  0.12364953011274338  1.0000
  O   O1        1.0  0.5598491430282593  0.3434585630893707  0.9440744519233704  1.0000
  O   O2        1.0  0.21605610847473145  0.7373360991477966  0.6742767691612244  1.0000
  Tb  Tb1       1.0  0.9373526573181152  0.4716525673866272  0.28493595123291016  1.0000
  Tb  Tb2       1.0  0.9727754592895508  0.09825969487428665  0.4532083570957184  1.0000
  Tb  Tb3       1.0  0.4189702272415161  0.990283191204071  0.9345352053642273  1.0000
  Tb  Tb4       1.0  0.9699385762214661  0.6702627539634705  0.8429251313209534  1.0000
  Tb  Tb5       1.0  0.43936342000961304  0.3105558753013611  0.7179880142211914  1.0000
  Tb  Tb6       1.0  0.4617885649204254  0.985823929309845  0.16086120903491974  1.0000
