data_image0
_chemical_formula_structural       I2O2Tb5
_chemical_formula_sum              "I2 O2 Tb5"
_cell_length_a       4.697457332226473
_cell_length_b       5.147369637030761
_cell_length_c       9.940099716186523
_cell_angle_alpha    101.67193414498125
_cell_angle_beta     90.35588816114426
_cell_angle_gamma    99.51220459149869

_space_group_name_H-M_alt    "P 1"
_space_group_IT_number       1

loop_
  _space_group_symop_operation_xyz
  'x, y, z'

loop_
  _atom_site_type_symbol
  _atom_site_label
  _atom_site_symmetry_multiplicity
  _atom_site_fract_x
  _atom_site_fract_y
  _atom_site_fract_z
  _atom_site_occupancy
  I   I1        1.0  0.45302581787109375  0.5811134576797485  0.5025851726531982  1.0000
  I   I2        1.0  0.44977885484695435  0.8558682203292847  0.23733572661876678  1.0000
  O   O1        1.0  0.390774130821228  0.14722822606563568  0.3203738331794739  1.0000
  O   O2        1.0  0.885859489440918  0.7573974132537842  0.9700525999069214  1.0000
  Tb  Tb1       1.0  0.2320144921541214  0.4263565242290497  0.5773081183433533  1.0000
  Tb  Tb2       1.0  0.7216768860816956  0.8707320690155029  0.836543619632721  1.0000
  Tb  Tb3       1.0  0.8487075567245483  0.09176115691661835  0.24344629049301147  1.0000
  Tb  Tb4       1.0  0.9598944783210754  0.2398577630519867  0.812671422958374  1.0000
  Tb  Tb5       1.0  0.005057172849774361  0.25741031765937805  0.029591675847768784  1.0000
