data_image0
_chemical_formula_structural       O2Tb7
_chemical_formula_sum              "O2 Tb7"
_cell_length_a       5.045514233975345
_cell_length_b       5.021403915087671
_cell_length_c       9.867642402648926
_cell_angle_alpha    90.61727914541461
_cell_angle_beta     89.58001477905839
_cell_angle_gamma    89.88707884572527

_space_group_name_H-M_alt    "P 1"
_space_group_IT_number       1

loop_
  _space_group_symop_operation_xyz
  'x, y, z'

loop_
  _atom_site_type_symbol
  _atom_site_label
  _atom_site_symmetry_multiplicity
  _atom_site_fract_x
  _atom_site_fract_y
  _atom_site_fract_z
  _atom_site_occupancy
  O   O1        1.0  0.15669405460357666  0.7180942296981812  0.9119914174079895  1.0000
  O   O2        1.0  0.3001653254032135  0.8716484308242798  0.19952969253063202  1.0000
  Tb  Tb1       1.0  0.3059898018836975  0.4961717426776886  0.19512532651424408  1.0000
  Tb  Tb2       1.0  0.8000381588935852  0.9029366970062256  0.9647299647331238  1.0000
  Tb  Tb3       1.0  0.8008012175559998  0.3565008342266083  0.16399326920509338  1.0000
  Tb  Tb4       1.0  0.30298739671707153  0.5890202522277832  0.6663176417350769  1.0000
  Tb  Tb5       1.0  0.29680025577545166  0.005746724549680948  0.3171148896217346  1.0000
  Tb  Tb6       1.0  0.7874191403388977  0.39883536100387573  0.934310257434845  1.0000
  Tb  Tb7       1.0  0.7897447347640991  0.2586573660373688  0.5249569416046143  1.0000
