data_image0
_chemical_formula_structural       OS2Tb6
_chemical_formula_sum              "O1 S2 Tb6"
_cell_length_a       4.308083350345325
_cell_length_b       4.787291868910179
_cell_length_c       6.83297872543335
_cell_angle_alpha    111.15671573318006
_cell_angle_beta     95.42388821703865
_cell_angle_gamma    92.29626668700632

_space_group_name_H-M_alt    "P 1"
_space_group_IT_number       1

loop_
  _space_group_symop_operation_xyz
  'x, y, z'

loop_
  _atom_site_type_symbol
  _atom_site_label
  _atom_site_symmetry_multiplicity
  _atom_site_fract_x
  _atom_site_fract_y
  _atom_site_fract_z
  _atom_site_occupancy
  O   O1        1.0  0.6924427151679993  0.059308119118213654  0.9820594787597656  1.0000
  S   S1        1.0  0.6705023050308228  0.37559187412261963  0.8287258148193359  1.0000
  S   S2        1.0  0.17118149995803833  0.5493417382240295  0.7694406509399414  1.0000
  Tb  Tb1       1.0  0.16992966830730438  0.15241579711437225  0.6953189969062805  1.0000
  Tb  Tb2       1.0  0.6790841221809387  0.7002397179603577  0.5052342414855957  1.0000
  Tb  Tb3       1.0  0.16951340436935425  0.5157475471496582  0.8181506991386414  1.0000
  Tb  Tb4       1.0  0.6708440184593201  0.47875988483428955  0.6946197152137756  1.0000
  Tb  Tb5       1.0  0.669506311416626  0.3325689435005188  0.7614094614982605  1.0000
  Tb  Tb6       1.0  0.17018558084964752  0.8569825887680054  0.2473142445087433  1.0000
