data_image0
_chemical_formula_structural       As2PU6
_chemical_formula_sum              "As2 P1 U6"
_cell_length_a       5.335878684644185
_cell_length_b       5.1730105471326535
_cell_length_c       5.647197246551514
_cell_angle_alpha    107.9487417542719
_cell_angle_beta     108.11135737092386
_cell_angle_gamma    114.74959763964203

_space_group_name_H-M_alt    "P 1"
_space_group_IT_number       1

loop_
  _space_group_symop_operation_xyz
  'x, y, z'

loop_
  _atom_site_type_symbol
  _atom_site_label
  _atom_site_symmetry_multiplicity
  _atom_site_fract_x
  _atom_site_fract_y
  _atom_site_fract_z
  _atom_site_occupancy
  As  As1       1.0  0.636299192905426  0.40855324268341064  0.03282846137881279  1.0000
  As  As2       1.0  0.1478785127401352  0.6657386422157288  0.08202528953552246  1.0000
  P   P1        1.0  0.3567184507846832  0.6598382592201233  0.7745426297187805  1.0000
  U   U1        1.0  0.07410271465778351  0.8498877882957458  0.44238695502281183  1.0000
  U   U2        1.0  0.2621517479419708  0.30835261940956116  0.3756299912929535  1.0000
  U   U3        1.0  0.2918941378593445  0.24305100739002228  0.7834887504577637  1.0000
  U   U4        1.0  0.11817323416471481  0.012218600139021873  0.9048213958740233  1.0000
  U   U5        1.0  0.7115527987480164  0.5729380249977112  0.7356062531471252  1.0000
  U   U6        1.0  0.8697811365127563  0.6123399138450623  0.16831697523593903  1.0000
