data_image0
_chemical_formula_structural       U8Zr
_chemical_formula_sum              "U8 Zr1"
_cell_length_a       4.801535650858604
_cell_length_b       4.844927838664808
_cell_length_c       5.23516321182251
_cell_angle_alpha    113.76720408316227
_cell_angle_beta     86.23815085564561
_cell_angle_gamma    90.58786383863519

_space_group_name_H-M_alt    "P 1"
_space_group_IT_number       1

loop_
  _space_group_symop_operation_xyz
  'x, y, z'

loop_
  _atom_site_type_symbol
  _atom_site_label
  _atom_site_symmetry_multiplicity
  _atom_site_fract_x
  _atom_site_fract_y
  _atom_site_fract_z
  _atom_site_occupancy
  U   U1        1.0  0.6453331708908081  0.25140371918678284  0.9660874605178833  1.0000
  U   U2        1.0  0.2946419417858124  0.32929670810699463  0.882939875125885  1.0000
  U   U3        1.0  0.043213870376348495  0.578123927116394  0.17260730266571045  1.0000
  U   U4        1.0  0.43461325764656067  0.1305975466966629  0.36150357127189636  1.0000
  U   U5        1.0  0.48676446080207825  0.9066440463066101  0.8461682200431824  1.0000
  U   U6        1.0  0.006725681014358997  0.5082928538322449  0.8286558985710144  1.0000
  U   U7        1.0  0.4973175823688507  0.3922223150730133  0.6702966690063477  1.0000
  U   U8        1.0  0.486529141664505  0.8969995379447937  0.17342111468315125  1.0000
  Zr  Zr1       1.0  0.9635323882102966  0.8349804878234863  0.7963715195655823  1.0000
