data_image0
_chemical_formula_structural       B2CrRuU5
_chemical_formula_sum              "B2 Cr1 Ru1 U5"
_cell_length_a       4.832656521912456
_cell_length_b       5.891446230165232
_cell_length_c       6.335568904876709
_cell_angle_alpha    124.2458388653997
_cell_angle_beta     89.68078656402044
_cell_angle_gamma    89.3830080320295

_space_group_name_H-M_alt    "P 1"
_space_group_IT_number       1

loop_
  _space_group_symop_operation_xyz
  'x, y, z'

loop_
  _atom_site_type_symbol
  _atom_site_label
  _atom_site_symmetry_multiplicity
  _atom_site_fract_x
  _atom_site_fract_y
  _atom_site_fract_z
  _atom_site_occupancy
  B   B1        1.0  0.5205899477005005  0.13125327229499817  0.023650310933589942  1.0000
  B   B2        1.0  0.02475014142692089  0.6278876662254333  0.6768282055854797  1.0000
  Cr  Cr1       1.0  0.014613023027777672  0.7061318755149841  0.1664552539587021  1.0000
  Ru  Ru1       1.0  0.5221968293190002  0.26621881127357483  0.6852565407752991  1.0000
  U   U1        1.0  0.02439706027507782  0.03409351408481598  0.3639792799949646  1.0000
  U   U2        1.0  0.523513913154602  0.06908353418111801  0.416341096162796  1.0000
  U   U3        1.0  0.02308935858309269  0.5713489055633545  0.12106496840715408  1.0000
  U   U4        1.0  0.02525434084236622  0.6817068457603455  0.5573590993881226  1.0000
  U   U5        1.0  0.5226178765296936  0.6322400569915771  0.2481490671634674  1.0000
