data_image0
_chemical_formula_structural       Ag3CeGeK2SiTaTe5
_chemical_formula_sum              "Ag3 Ce1 Ge1 K2 Si1 Ta1 Te5"
_cell_length_a       4.923643186345999
_cell_length_b       8.634370057499746
_cell_length_c       11.119190216064453
_cell_angle_alpha    98.37116239271568
_cell_angle_beta     88.97876038071968
_cell_angle_gamma    89.4912082804528

_space_group_name_H-M_alt    "P 1"
_space_group_IT_number       1

loop_
  _space_group_symop_operation_xyz
  'x, y, z'

loop_
  _atom_site_type_symbol
  _atom_site_label
  _atom_site_symmetry_multiplicity
  _atom_site_fract_x
  _atom_site_fract_y
  _atom_site_fract_z
  _atom_site_occupancy
  Ag  Ag1       1.0  0.6831722855567932  0.4396756589412689  0.6429765224456787  1.0000
  Ag  Ag2       1.0  0.1998208910226822  0.08701235055923462  0.0362434946000576  1.0000
  Ag  Ag3       1.0  0.6719826459884644  0.030895104631781578  0.42155125737190247  1.0000
  Ce  Ce1       1.0  0.19128292798995972  0.9532623887062073  0.9690093398094177  1.0000
  Ge  Ge1       1.0  0.6870096325874329  0.26968538761138916  0.8182170391082764  1.0000
  K   K1        1.0  0.18213242292404175  0.9481391310691833  0.39297324419021606  1.0000
  K   K2        1.0  0.18826653063297272  0.7847696542739868  0.6239543557167053  1.0000
  Si  Si1       1.0  0.7408860921859741  0.7649720907211304  0.7358248829841614  1.0000
  Ta  Ta1       1.0  0.23177503049373627  0.15473291277885437  0.89402174949646  1.0000
  Te  Te1       1.0  0.18833009898662567  0.1371925175189972  0.15815261006355286  1.0000
  Te  Te2       1.0  0.6926855444908142  0.4561935365200043  0.33324557542800903  1.0000
  Te  Te3       1.0  0.6976906657218933  0.9557440876960754  0.1067257672548294  1.0000
  Te  Te4       1.0  0.1789368838071823  0.4940556287765503  0.11554493755102158  1.0000
  Te  Te5       1.0  0.6923196911811829  0.7062587738037109  0.47207748889923096  1.0000
