data_image0
_chemical_formula_structural       Ag4InKMgTe4Y3
_chemical_formula_sum              "Ag4 In1 K1 Mg1 Te4 Y3"
_cell_length_a       4.76567576924032
_cell_length_b       4.268161718180679
_cell_length_c       12.293574333190918
_cell_angle_alpha    89.77055543795113
_cell_angle_beta     95.50636534518519
_cell_angle_gamma    170.76785783640418

_space_group_name_H-M_alt    "P 1"
_space_group_IT_number       1

loop_
  _space_group_symop_operation_xyz
  'x, y, z'

loop_
  _atom_site_type_symbol
  _atom_site_label
  _atom_site_symmetry_multiplicity
  _atom_site_fract_x
  _atom_site_fract_y
  _atom_site_fract_z
  _atom_site_occupancy
  Ag  Ag1       1.0  0.3445065915584564  0.19794078171253204  0.4334830641746521  1.0000
  Ag  Ag2       1.0  0.8620604872703552  0.8605437874794006  0.7940857410430908  1.0000
  Ag  Ag3       1.0  0.013080837205052376  0.24099403619766235  0.12254379689693451  1.0000
  Ag  Ag4       1.0  0.359470397233963  0.7018768191337585  0.9175748229026794  1.0000
  In  In1       1.0  0.4246485233306885  0.6842898726463318  0.7195858955383301  1.0000
  K   K1        1.0  0.22035418450832367  0.5403305292129517  0.7745336890220642  1.0000
  Mg  Mg1       1.0  0.8527772426605225  0.700608491897583  0.29317861795425415  1.0000
  Te  Te1       1.0  0.024456346407532692  0.8561840057373047  0.0042106034234166145  1.0000
  Te  Te2       1.0  0.7306212782859802  0.16454555094242096  0.2818390727043152  1.0000
  Te  Te3       1.0  0.0357486866414547  0.38058173656463623  0.5873558521270752  1.0000
  Te  Te4       1.0  0.20455975830554962  0.19713377952575684  0.9214574098587036  1.0000
  Y   Y1        1.0  0.1552896350622177  0.9803499579429626  0.7110772132873535  1.0000
  Y   Y2        1.0  0.3557300567626953  0.35537189245224  0.27988025546073914  1.0000
  Y   Y3        1.0  0.6075484156608582  0.6795508861541748  0.5568514466285706  1.0000
