data_image0
_chemical_formula_structural       Ag6Ce3Te5
_chemical_formula_sum              "Ag6 Ce3 Te5"
_cell_length_a       5.51001071861758
_cell_length_b       8.826661955156313
_cell_length_c       9.840932846069336
_cell_angle_alpha    115.30429481726188
_cell_angle_beta     101.93273583602681
_cell_angle_gamma    88.62649436215318

_space_group_name_H-M_alt    "P 1"
_space_group_IT_number       1

loop_
  _space_group_symop_operation_xyz
  'x, y, z'

loop_
  _atom_site_type_symbol
  _atom_site_label
  _atom_site_symmetry_multiplicity
  _atom_site_fract_x
  _atom_site_fract_y
  _atom_site_fract_z
  _atom_site_occupancy
  Ag  Ag1       1.0  0.43036878108978277  0.37977859377861023  0.8945795893669128  1.0000
  Ag  Ag2       1.0  0.45019245147705084  0.8824219107627869  0.8603010773658752  1.0000
  Ag  Ag3       1.0  0.24501593410968783  0.12248589843511581  0.8253017663955688  1.0000
  Ag  Ag4       1.0  0.7444222569465637  0.3656737506389618  0.888586163520813  1.0000
  Ag  Ag5       1.0  0.03539388254284859  0.1612892746925354  0.7643682360649109  1.0000
  Ag  Ag6       1.0  0.9885026812553407  0.6699238419532776  0.3056904077529907  1.0000
  Ce  Ce1       1.0  0.8395692706108093  0.16174334287643433  0.8918622136116028  1.0000
  Ce  Ce2       1.0  0.9870069026947023  0.5426456332206726  0.27236396074295044  1.0000
  Ce  Ce3       1.0  0.9696543812751771  0.6811366081237793  0.9714272022247314  1.0000
  Te  Te1       1.0  0.10049980878829956  0.315157949924469  0.31954851746559143  1.0000
  Te  Te2       1.0  0.14624205231666565  0.27357661724090576  0.5176347494125366  1.0000
  Te  Te3       1.0  0.13376647233963013  0.16469523310661316  0.17680132389068604  1.0000
  Te  Te4       1.0  0.6005374193191528  0.3423328101634979  0.29305794835090637  1.0000
  Te  Te5       1.0  0.624340295791626  0.7707349061965942  0.10880330204963688  1.0000
