data_image0
_chemical_formula_structural       Ag5Ce3KTe4V
_chemical_formula_sum              "Ag5 Ce3 K1 Te4 V1"
_cell_length_a       6.168250874078699
_cell_length_b       9.610210372246888
_cell_length_c       9.711609840393066
_cell_angle_alpha    117.4858130800539
_cell_angle_beta     91.82473828193325
_cell_angle_gamma    88.53263532696624

_space_group_name_H-M_alt    "P 1"
_space_group_IT_number       1

loop_
  _space_group_symop_operation_xyz
  'x, y, z'

loop_
  _atom_site_type_symbol
  _atom_site_label
  _atom_site_symmetry_multiplicity
  _atom_site_fract_x
  _atom_site_fract_y
  _atom_site_fract_z
  _atom_site_occupancy
  Ag  Ag1       1.0  0.5802981853485107  0.6308537721633911  0.8666505217552185  1.0000
  Ag  Ag2       1.0  0.8484253883361816  0.10856564342975616  0.2940702438354492  1.0000
  Ag  Ag3       1.0  0.5728652477264404  0.48656472563743586  0.5795835256576538  1.0000
  Ag  Ag4       1.0  0.5839018225669861  0.37237584590911865  0.013585108332335904  1.0000
  Ag  Ag5       1.0  0.5485296845436096  0.8907982110977173  0.23853203654289237  1.0000
  Ce  Ce1       1.0  0.8378154635429382  0.08921719342470169  0.44367268681526184  1.0000
  Ce  Ce2       1.0  0.33050891757011414  0.37491941452026367  0.3692591488361358  1.0000
  Ce  Ce3       1.0  0.08942955732345581  0.9442433118820189  0.7228044867515563  1.0000
  K   K1        1.0  0.08544512093067169  0.4944166541099548  0.6030493378639221  1.0000
  Te  Te1       1.0  0.3350972831249237  0.8680296540260315  0.035917334258556276  1.0000
  Te  Te2       1.0  0.582210898399353  0.26337119936943054  0.7575963735580444  1.0000
  Te  Te3       1.0  0.5870497226715088  0.7480292320251465  0.544817328453064  1.0000
  Te  Te4       1.0  0.11023512482643127  0.4993391931056976  0.49519914388656616  1.0000
  V   V1        1.0  0.8382704854011536  0.9715043902397155  0.30363664031028736  1.0000
