data_image0
_chemical_formula_structural       Ag11Ce2Te
_chemical_formula_sum              "Ag11 Ce2 Te1"
_cell_length_a       6.919642054236703
_cell_length_b       9.3496971693203
_cell_length_c       9.314617156982422
_cell_angle_alpha    121.19308618668974
_cell_angle_beta     90.31561945260357
_cell_angle_gamma    88.32867534156453

_space_group_name_H-M_alt    "P 1"
_space_group_IT_number       1

loop_
  _space_group_symop_operation_xyz
  'x, y, z'

loop_
  _atom_site_type_symbol
  _atom_site_label
  _atom_site_symmetry_multiplicity
  _atom_site_fract_x
  _atom_site_fract_y
  _atom_site_fract_z
  _atom_site_occupancy
  Ag  Ag1       1.0  0.8926530480384827  0.6967119574546814  0.1699629575014115  1.0000
  Ag  Ag2       1.0  0.8492386341094971  0.07595941424369812  0.5331102013587952  1.0000
  Ag  Ag3       1.0  0.09111475199460983  0.7419759631156921  0.6059970259666443  1.0000
  Ag  Ag4       1.0  0.08764123171567917  0.1741752177476883  0.3684002459049225  1.0000
  Ag  Ag5       1.0  0.9090266823768616  0.9267823100090027  0.5463469624519349  1.0000
  Ag  Ag6       1.0  0.8375747203826904  0.5986742377281189  0.0144484350457788  1.0000
  Ag  Ag7       1.0  0.7114232778549194  0.6311972737312317  0.5085539221763611  1.0000
  Ag  Ag8       1.0  0.36007431149482727  0.42916882038116455  0.9975132942199707  1.0000
  Ag  Ag9       1.0  0.3497661054134369  0.7988420724868774  0.6484614014625549  1.0000
  Ag  Ag10      1.0  0.37007245421409607  0.1284002959728241  0.8351744413375854  1.0000
  Ag  Ag11      1.0  0.41048741340637207  0.5987347364425659  0.22452180087566376  1.0000
  Ce  Ce1       1.0  0.8488248586654663  0.33321279287338257  0.869037926197052  1.0000
  Ce  Ce2       1.0  0.0201719943434  0.46227505803108215  0.816045343875885  1.0000
  Te  Te1       1.0  0.4089547395706177  0.09648734331130981  0.08908279240131378  1.0000
