data_image0
_chemical_formula_structural       Ag8Ce3NTe2
_chemical_formula_sum              "Ag8 Ce3 N1 Te2"
_cell_length_a       5.834190552682203
_cell_length_b       8.796230645881447
_cell_length_c       8.650516510009766
_cell_angle_alpha    124.3435706309354
_cell_angle_beta     93.02055332389547
_cell_angle_gamma    84.01763945470663

_space_group_name_H-M_alt    "P 1"
_space_group_IT_number       1

loop_
  _space_group_symop_operation_xyz
  'x, y, z'

loop_
  _atom_site_type_symbol
  _atom_site_label
  _atom_site_symmetry_multiplicity
  _atom_site_fract_x
  _atom_site_fract_y
  _atom_site_fract_z
  _atom_site_occupancy
  Ag  Ag1       1.0  0.5318520665168762  0.5577513575553894  0.08111094683408737  1.0000
  Ag  Ag2       1.0  0.9953623414039612  0.689937174320221  0.41329026222229004  1.0000
  Ag  Ag3       1.0  0.015744099393486977  0.3314453661441803  0.44707417488098145  1.0000
  Ag  Ag4       1.0  0.9809706211090088  0.05635038763284683  0.43242669105529785  1.0000
  Ag  Ag5       1.0  0.5201243162155151  0.07436911761760712  0.5892100930213928  1.0000
  Ag  Ag6       1.0  0.011564323678612709  0.8442946076393127  0.819563090801239  1.0000
  Ag  Ag7       1.0  0.003906846046447754  0.772540807723999  0.09353590011596676  1.0000
  Ag  Ag8       1.0  0.5148462653160095  0.8498568534851074  0.4859960675239563  1.0000
  Ce  Ce1       1.0  0.5135995745658875  0.19368475675582886  0.6984277367591858  1.0000
  Ce  Ce2       1.0  0.03967726603150368  0.0655146911740303  0.3619948625564575  1.0000
  Ce  Ce3       1.0  0.014599351212382317  0.9144048094749451  0.789728581905365  1.0000
  N   N1        1.0  0.5075393319129944  0.21392269432544708  0.4224950969219208  1.0000
  Te  Te1       1.0  0.019664186984300613  0.5148724317550659  0.22640612721443176  1.0000
  Te  Te2       1.0  0.5144251585006714  0.4080081582069397  0.7757229208946228  1.0000
