data_image0
_chemical_formula_structural       Ba2IInLa2O5Zn2
_chemical_formula_sum              "Ba2 I1 In1 La2 O5 Zn2"
_cell_length_a       5.286452025269397
_cell_length_b       4.065092573980186
_cell_length_c       9.526261329650879
_cell_angle_alpha    91.89251797768947
_cell_angle_beta     88.0026902150442
_cell_angle_gamma    135.68982095315727

_space_group_name_H-M_alt    "P 1"
_space_group_IT_number       1

loop_
  _space_group_symop_operation_xyz
  'x, y, z'

loop_
  _atom_site_type_symbol
  _atom_site_label
  _atom_site_symmetry_multiplicity
  _atom_site_fract_x
  _atom_site_fract_y
  _atom_site_fract_z
  _atom_site_occupancy
  Ba  Ba1       1.0  0.48461103439331055  0.8276444673538208  0.7904796600341797  1.0000
  Ba  Ba2       1.0  0.9357016086578369  0.6547948122024536  0.8218770027160645  1.0000
  I   I1        1.0  0.9212875366210938  0.7624385356903076  0.40787166357040405  1.0000
  In  In1       1.0  0.4778728187084198  0.4707299768924713  0.770774781703949  1.0000
  La  La1       1.0  0.4176888167858124  0.3135029673576355  0.8592130541801453  1.0000
  La  La2       1.0  0.3952023684978485  0.7257270812988281  0.7333596348762512  1.0000
  O   O1        1.0  0.9287103414535522  0.5510212182998657  0.6572741866111755  1.0000
  O   O2        1.0  0.6582899689674377  0.7582117319107056  0.13640454411506653  1.0000
  O   O3        1.0  0.8960908055305481  0.3211905360221863  0.9931343793869019  1.0000
  O   O4        1.0  0.931820273399353  0.9764879941940308  0.6508257389068604  1.0000
  O   O5        1.0  0.9223433136940002  0.8297024965286255  0.7300193309783936  1.0000
  Zn  Zn1       1.0  0.7001054286956787  0.6011173725128174  0.8485138416290283  1.0000
  Zn  Zn2       1.0  0.4027462601661682  0.1728455275297165  0.1437034159898758  1.0000
