data_image0
_chemical_formula_structural       Ba3CoDyInO3UZn2Zr
_chemical_formula_sum              "Ba3 Co1 Dy1 In1 O3 U1 Zn2 Zr1"
_cell_length_a       6.490901241847249
_cell_length_b       6.57522782613257
_cell_length_c       7.179949760437012
_cell_angle_alpha    58.77123595173577
_cell_angle_beta     69.58225118778202
_cell_angle_gamma    66.05260765900714

_space_group_name_H-M_alt    "P 1"
_space_group_IT_number       1

loop_
  _space_group_symop_operation_xyz
  'x, y, z'

loop_
  _atom_site_type_symbol
  _atom_site_label
  _atom_site_symmetry_multiplicity
  _atom_site_fract_x
  _atom_site_fract_y
  _atom_site_fract_z
  _atom_site_occupancy
  Ba  Ba1       1.0  0.6694767475128174  0.5446680784225464  0.25311073660850525  1.0000
  Ba  Ba2       1.0  0.028249574825167656  0.12808585166931152  0.7715875506401063  1.0000
  Ba  Ba3       1.0  0.8148494958877563  0.09329607337713242  0.051320888102054596  1.0000
  Co  Co1       1.0  0.6668732166290283  0.8482957482337952  0.17326104640960693  1.0000
  Dy  Dy1       1.0  0.8099477887153625  0.4963626563549041  0.31452205777168274  1.0000
  In  In1       1.0  0.8039132356643677  0.705869734287262  0.08860182017087936  1.0000
  O   O1        1.0  0.7655327916145325  0.6763004660606384  0.8957210183143615  1.0000
  O   O2        1.0  0.5587645769119263  0.8073684573173523  0.9084550738334655  1.0000
  O   O3        1.0  0.27053576707839966  0.14596550166606903  0.5356821417808533  1.0000
  U   U1        1.0  0.29628899693489075  0.19484183192253113  0.9982023239135741  1.0000
  Zn  Zn1       1.0  0.30980435013771057  0.8039582371711731  0.665638566017151  1.0000
  Zn  Zn2       1.0  0.299976646900177  0.03627263009548187  0.3955044150352478  1.0000
  Zr  Zr1       1.0  0.3184031546115875  0.14505130052566528  0.7661502957344055  1.0000
