data_image0
_chemical_formula_structural       Ba6LaO5U
_chemical_formula_sum              "Ba6 La1 O5 U1"
_cell_length_a       5.470723113821036
_cell_length_b       4.569434931440692
_cell_length_c       8.227426528930664
_cell_angle_alpha    103.73853256941925
_cell_angle_beta     99.67229822080255
_cell_angle_gamma    125.40402686990318

_space_group_name_H-M_alt    "P 1"
_space_group_IT_number       1

loop_
  _space_group_symop_operation_xyz
  'x, y, z'

loop_
  _atom_site_type_symbol
  _atom_site_label
  _atom_site_symmetry_multiplicity
  _atom_site_fract_x
  _atom_site_fract_y
  _atom_site_fract_z
  _atom_site_occupancy
  Ba  Ba1       1.0  0.9092215299606323  0.6197540760040283  0.1164032369852066  1.0000
  Ba  Ba2       1.0  0.3183850049972534  0.4752100706100464  0.5895509123802185  1.0000
  Ba  Ba3       1.0  0.505469799041748  0.031262144446372986  0.3378285765647888  1.0000
  Ba  Ba4       1.0  0.6003309488296509  0.31454914808273315  0.31500253081321716  1.0000
  Ba  Ba5       1.0  0.8360751271247864  0.0016860697651281953  0.21723461151123047  1.0000
  Ba  Ba6       1.0  0.0698612630367279  0.4431849718093872  0.5938524007797241  1.0000
  La  La1       1.0  0.7953348159790039  0.12065249681472778  0.40842941403388977  1.0000
  O   O1        1.0  0.16504710912704468  0.20131266117095947  0.7559508681297302  1.0000
  O   O2        1.0  0.1859285980463028  0.20556165277957916  0.30469584465026855  1.0000
  O   O3        1.0  0.5300212502479553  0.9555027484893799  0.5334229469299316  1.0000
  O   O4        1.0  0.5777639746665955  0.6351248025894165  0.44921407103538513  1.0000
  O   O5        1.0  0.5837453007698059  0.0014982529683038592  0.32072925567626953  1.0000
  U   U1        1.0  0.07928024977445602  0.4502311646938324  0.4936977028846741  1.0000
