data_image0
_chemical_formula_structural       BaFHO2PPbSbUZn3Zr
_chemical_formula_sum              "Ba1 F1 H1 O2 P1 Pb1 Sb1 U1 Zn3 Zr1"
_cell_length_a       6.14307907322478
_cell_length_b       6.647585535527489
_cell_length_c       8.238539695739746
_cell_angle_alpha    105.27049335402168
_cell_angle_beta     103.53592286867874
_cell_angle_gamma    108.59221740129462

_space_group_name_H-M_alt    "P 1"
_space_group_IT_number       1

loop_
  _space_group_symop_operation_xyz
  'x, y, z'

loop_
  _atom_site_type_symbol
  _atom_site_label
  _atom_site_symmetry_multiplicity
  _atom_site_fract_x
  _atom_site_fract_y
  _atom_site_fract_z
  _atom_site_occupancy
  Ba  Ba1       1.0  0.2017136514186859  0.0692339763045311  0.2256326824426651  1.0000
  F   F1        1.0  0.6932522058486938  0.751409113407135  0.8158517479896545  1.0000
  H   H1        1.0  0.7016528844833374  0.30301377177238464  0.8154854774475098  1.0000
  O   O1        1.0  0.6960223317146301  0.7500211000442505  0.2774051129817962  1.0000
  O   O2        1.0  0.2158801257610321  0.6018538475036621  0.8057483434677124  1.0000
  P   P1        1.0  0.6869837045669556  0.1278337687253952  0.4846508800983429  1.0000
  Pb  Pb1       1.0  0.08247072249650955  0.17547133564949036  0.11602207273244856  1.0000
  Sb  Sb1       1.0  0.7039332389831543  0.5787140130996704  0.1507354974746704  1.0000
  U   U1        1.0  0.6995940804481506  0.05337723344564438  0.07303061336278915  1.0000
  Zn  Zn1       1.0  0.17944040894508362  0.6346672773361206  0.5569555759429932  1.0000
  Zn  Zn2       1.0  0.42875418066978455  0.6204769611358643  0.172364667057991  1.0000
  Zn  Zn3       1.0  0.20407016575336456  0.3577911853790283  0.7299535870552063  1.0000
  Zr  Zr1       1.0  0.9241973757743835  0.5326662063598633  0.7052338719367981  1.0000
