data_image0
_chemical_formula_structural       BiFO3PPrU5Zr
_chemical_formula_sum              "Bi1 F1 O3 P1 Pr1 U5 Zr1"
_cell_length_a       4.4301000429902135
_cell_length_b       5.179419658556258
_cell_length_c       8.457067489624023
_cell_angle_alpha    89.57843238775676
_cell_angle_beta     89.64021894514899
_cell_angle_gamma    103.89940733052022

_space_group_name_H-M_alt    "P 1"
_space_group_IT_number       1

loop_
  _space_group_symop_operation_xyz
  'x, y, z'

loop_
  _atom_site_type_symbol
  _atom_site_label
  _atom_site_symmetry_multiplicity
  _atom_site_fract_x
  _atom_site_fract_y
  _atom_site_fract_z
  _atom_site_occupancy
  Bi  Bi1       1.0  0.36070001125335693  0.515410840511322  0.9107558727264404  1.0000
  F   F1        1.0  0.2246645838022232  0.9292967319488525  0.7399250268936157  1.0000
  O   O1        1.0  0.5598227381706238  0.87434321641922  0.9623865485191345  1.0000
  O   O2        1.0  0.8010386228561401  0.5061616897583008  0.6252086758613586  1.0000
  O   O3        1.0  0.9096354842185974  0.6345308423042297  0.38900312781333923  1.0000
  P   P1        1.0  0.32032451033592224  0.47685524821281433  0.08674319088459015  1.0000
  Pr  Pr1       1.0  0.8746357560157776  0.9502012729644775  0.37063854932785034  1.0000
  U   U1        1.0  0.3524262309074402  0.2046099156141281  0.32828158140182495  1.0000
  U   U2        1.0  0.8713909983634949  0.4667098820209503  0.1649971753358841  1.0000
  U   U3        1.0  0.8333816528320312  0.47774043679237366  0.2293594479560852  1.0000
  U   U4        1.0  0.361564964056015  0.056414224207401276  0.5193458795547485  1.0000
  U   U5        1.0  0.8613395690917969  0.08675572276115417  0.5072801113128662  1.0000
  Zr  Zr1       1.0  0.28089627623558044  0.7119501829147339  0.12887392938137054  1.0000
