data_image0
_chemical_formula_structural       Ba6O7
_chemical_formula_sum              "Ba6 O7"
_cell_length_a       5.338291345543086
_cell_length_b       4.3941986784171405
_cell_length_c       7.583227634429932
_cell_angle_alpha    108.59129473124442
_cell_angle_beta     99.2458277091991
_cell_angle_gamma    134.54235222111214

_space_group_name_H-M_alt    "P 1"
_space_group_IT_number       1

loop_
  _space_group_symop_operation_xyz
  'x, y, z'

loop_
  _atom_site_type_symbol
  _atom_site_label
  _atom_site_symmetry_multiplicity
  _atom_site_fract_x
  _atom_site_fract_y
  _atom_site_fract_z
  _atom_site_occupancy
  Ba  Ba1       1.0  0.2766569256782532  0.7485578656196594  0.39243301749229426  1.0000
  Ba  Ba2       1.0  0.861888587474823  0.6192556619644165  0.7676087021827697  1.0000
  Ba  Ba3       1.0  0.17872169613838196  0.6278241276741028  0.6307099461555481  1.0000
  Ba  Ba4       1.0  0.19598346948623657  0.3633406460285187  0.5004667043685913  1.0000
  Ba  Ba5       1.0  0.21239477396011353  0.6409785747528076  0.5012132525444031  1.0000
  Ba  Ba6       1.0  0.7600304484367371  0.3647269904613495  0.9991387128829955  1.0000
  O   O1        1.0  0.8480228185653687  0.46629422903060913  0.4504135847091674  1.0000
  O   O2        1.0  0.6538180112838745  0.6054241061210632  0.3184270560741424  1.0000
  O   O3        1.0  0.08766371011734009  0.00952745322138071  0.1515662521123886  1.0000
  O   O4        1.0  0.74187833070755  0.7455617785453796  0.3547013401985168  1.0000
  O   O5        1.0  0.516636073589325  0.38423439860343933  0.0263071581721306  1.0000
  O   O6        1.0  0.02460852451622486  0.6867780685424805  0.7141595482826232  1.0000
  O   O7        1.0  0.6420000791549683  0.14981433749198914  0.7655414342880248  1.0000
