data_image0
_chemical_formula_structural       B2BrClEr3LuPPb2
_chemical_formula_sum              "B2 Br1 Cl1 Er3 Lu1 P1 Pb2"
_cell_length_a       4.995335346467797
_cell_length_b       7.0279142956520655
_cell_length_c       7.157584190368652
_cell_angle_alpha    120.39727537018184
_cell_angle_beta     88.87383950166945
_cell_angle_gamma    90.80945885855705

_space_group_name_H-M_alt    "P 1"
_space_group_IT_number       1

loop_
  _space_group_symop_operation_xyz
  'x, y, z'

loop_
  _atom_site_type_symbol
  _atom_site_label
  _atom_site_symmetry_multiplicity
  _atom_site_fract_x
  _atom_site_fract_y
  _atom_site_fract_z
  _atom_site_occupancy
  B   B1        1.0  0.4260118901729584  0.16036614775657654  0.7522289156913757  1.0000
  B   B2        1.0  0.9353866577148438  0.29948097467422485  0.8437917232513428  1.0000
  Br  Br1       1.0  0.44520944356918335  0.648123562335968  0.4915422797203064  1.0000
  Cl  Cl1       1.0  0.9348832964897156  0.17027129232883453  0.9526549577713014  1.0000
  Er  Er1       1.0  0.9357155561447144  0.2655213475227356  0.036357041448354735  1.0000
  Er  Er2       1.0  0.9319625496864319  0.6623819470405579  0.04098935425281525  1.0000
  Er  Er3       1.0  0.4359462857246399  0.5197369456291199  0.24460814893245697  1.0000
  Lu  Lu1       1.0  0.4346977472305298  0.6814589500427246  0.033031031489372316  1.0000
  P   P1        1.0  0.4365045130252838  0.13912241160869598  0.5376166701316833  1.0000
  Pb  Pb1       1.0  0.9400841593742371  0.6519355177879333  0.5274001359939575  1.0000
  Pb  Pb2       1.0  0.4312669634819031  0.146214097738266  0.06595265865325928  1.0000
