data_image0
_chemical_formula_structural       AlB2BrEr4Lu2P
_chemical_formula_sum              "Al1 B2 Br1 Er4 Lu2 P1"
_cell_length_a       4.472721728202338
_cell_length_b       6.482245815301831
_cell_length_c       7.129007816314697
_cell_angle_alpha    111.29318393868664
_cell_angle_beta     105.96130410845568
_cell_angle_gamma    87.8402489505024

_space_group_name_H-M_alt    "P 1"
_space_group_IT_number       1

loop_
  _space_group_symop_operation_xyz
  'x, y, z'

loop_
  _atom_site_type_symbol
  _atom_site_label
  _atom_site_symmetry_multiplicity
  _atom_site_fract_x
  _atom_site_fract_y
  _atom_site_fract_z
  _atom_site_occupancy
  Al  Al1       1.0  0.8213475942611694  0.6009101867675781  0.7126281261444092  1.0000
  B   B1        1.0  0.3795213997364044  0.7166745662689209  0.5422021150588989  1.0000
  B   B2        1.0  0.07629625499248505  0.35823604464530945  0.7420778870582581  1.0000
  Br  Br1       1.0  0.7385076284408569  0.8559980392456055  0.4381570816040039  1.0000
  Er  Er1       1.0  0.8154529333114624  0.6236127614974976  0.13173793256282806  1.0000
  Er  Er2       1.0  0.3301313817501068  0.8663033246994019  0.7196134924888611  1.0000
  Er  Er3       1.0  0.11384709179401396  0.9685395956039428  0.38574829697608953  1.0000
  Er  Er4       1.0  0.31388747692108154  0.6060909032821655  0.11228316277265549  1.0000
  Lu  Lu1       1.0  0.6106469631195068  0.10945478826761246  0.9341740608215332  1.0000
  Lu  Lu2       1.0  0.726615309715271  0.9781715869903563  0.4210065007209778  1.0000
  P   P1        1.0  0.5901408791542053  0.3305334150791168  0.30936846137046814  1.0000
