data_image0
_chemical_formula_structural       B2Co3Er6
_chemical_formula_sum              "B2 Co3 Er6"
_cell_length_a       4.048394280113187
_cell_length_b       6.1009624531780675
_cell_length_c       5.245904922485352
_cell_angle_alpha    121.56699829042822
_cell_angle_beta     96.28405662827323
_cell_angle_gamma    83.4797992156047

_space_group_name_H-M_alt    "P 1"
_space_group_IT_number       1

loop_
  _space_group_symop_operation_xyz
  'x, y, z'

loop_
  _atom_site_type_symbol
  _atom_site_label
  _atom_site_symmetry_multiplicity
  _atom_site_fract_x
  _atom_site_fract_y
  _atom_site_fract_z
  _atom_site_occupancy
  B   B1        1.0  0.6132038235664368  0.08310828357934952  0.9485060572624207  1.0000
  B   B2        1.0  0.3360859751701355  0.45376449823379517  0.098498247563839  1.0000
  Co  Co1       1.0  0.5631781816482544  0.14779366552829742  0.32941490411758423  1.0000
  Co  Co2       1.0  0.033988431096076965  0.9525570869445801  0.9237414598464966  1.0000
  Co  Co3       1.0  0.038178518414497375  0.8018081188201904  0.6131648421287538  1.0000
  Er  Er1       1.0  0.6058579087257385  0.27262017130851746  0.5187996029853821  1.0000
  Er  Er2       1.0  0.10703004151582718  0.1964595764875412  0.36855483055114746  1.0000
  Er  Er3       1.0  0.7868560552597046  0.004560965579003096  0.9800458550453186  1.0000
  Er  Er4       1.0  0.567988932132721  0.787397563457489  0.7015184164047241  1.0000
  Er  Er5       1.0  0.12811674177646637  0.40618231892585754  0.48161211609840393  1.0000
  Er  Er6       1.0  0.05337294191122055  0.8813859820365906  0.8996553421020508  1.0000
