data_image0
_chemical_formula_structural       AlB3BrCoEr3Ga2
_chemical_formula_sum              "Al1 B3 Br1 Co1 Er3 Ga2"
_cell_length_a       4.024967378209705
_cell_length_b       6.514267635097966
_cell_length_c       6.7970075607299805
_cell_angle_alpha    112.86491102270496
_cell_angle_beta     87.10462949625604
_cell_angle_gamma    88.28501405664197

_space_group_name_H-M_alt    "P 1"
_space_group_IT_number       1

loop_
  _space_group_symop_operation_xyz
  'x, y, z'

loop_
  _atom_site_type_symbol
  _atom_site_label
  _atom_site_symmetry_multiplicity
  _atom_site_fract_x
  _atom_site_fract_y
  _atom_site_fract_z
  _atom_site_occupancy
  Al  Al1       1.0  0.0019205808639526367  0.6143848299980164  0.4756671190261841  1.0000
  B   B1        1.0  0.36980140209198  0.20310954749584198  0.4593915045261383  1.0000
  B   B2        1.0  0.0038690567016601562  0.6320853233337402  0.4952441453933716  1.0000
  B   B3        1.0  0.882131040096283  0.10762948542833328  0.15091146528720856  1.0000
  Br  Br1       1.0  0.3890610337257385  0.9052656888961792  0.2934098541736603  1.0000
  Co  Co1       1.0  0.5320963859558105  0.6789284348487854  0.9949266910552979  1.0000
  Er  Er1       1.0  0.8831331729888916  0.1897997409105301  0.04059252515435219  1.0000
  Er  Er2       1.0  0.864608645439148  0.9140853881835938  0.07835288345813744  1.0000
  Er  Er3       1.0  0.3871789276599884  0.9244158267974854  0.03156382590532303  1.0000
  Ga  Ga1       1.0  0.8762947916984558  0.36218300461769104  0.30629876255989075  1.0000
  Ga  Ga2       1.0  0.3642532229423523  0.37602540850639343  0.03980946540832518  1.0000
