data_image0
_chemical_formula_structural       BCl2CoEr4GaPbRu
_chemical_formula_sum              "B1 Cl2 Co1 Er4 Ga1 Pb1 Ru1"
_cell_length_a       5.474028599053635
_cell_length_b       6.3214046747343335
_cell_length_c       6.68555212020874
_cell_angle_alpha    110.08482634186602
_cell_angle_beta     108.36376101072868
_cell_angle_gamma    94.05751364118574

_space_group_name_H-M_alt    "P 1"
_space_group_IT_number       1

loop_
  _space_group_symop_operation_xyz
  'x, y, z'

loop_
  _atom_site_type_symbol
  _atom_site_label
  _atom_site_symmetry_multiplicity
  _atom_site_fract_x
  _atom_site_fract_y
  _atom_site_fract_z
  _atom_site_occupancy
  B   B1        1.0  0.10231649875640869  0.7893004417419434  0.565383791923523  1.0000
  Cl  Cl1       1.0  0.20935560762882233  0.314449280500412  0.2568066120147705  1.0000
  Cl  Cl2       1.0  0.22704273462295532  0.06770120561122894  0.5530149936676025  1.0000
  Co  Co1       1.0  0.17165088653564453  0.2890765964984894  0.9562569260597229  1.0000
  Er  Er1       1.0  0.4240170121192932  0.45896950364112854  0.9378777146339417  1.0000
  Er  Er2       1.0  0.41976794600486755  0.14324729144573212  0.18249432742595673  1.0000
  Er  Er3       1.0  0.41301700472831726  0.8056109547615051  0.5347165465354919  1.0000
  Er  Er4       1.0  0.886574923992157  0.8250935077667236  0.2490097582340241  1.0000
  Ga  Ga1       1.0  0.7329910397529602  0.3462224006652832  0.241057351231575  1.0000
  Pb  Pb1       1.0  0.7039697766304016  0.6565403938293457  0.9602510333061218  1.0000
  Ru  Ru1       1.0  0.7620586156845093  0.06623105704784393  0.5243984460830688  1.0000
