data_image0
_chemical_formula_structural       BCo4Er5Ga
_chemical_formula_sum              "B1 Co4 Er5 Ga1"
_cell_length_a       4.343222433171943
_cell_length_b       6.7763760449243415
_cell_length_c       5.826656341552734
_cell_angle_alpha    122.89514154636971
_cell_angle_beta     101.32204034240661
_cell_angle_gamma    95.39487639795962

_space_group_name_H-M_alt    "P 1"
_space_group_IT_number       1

loop_
  _space_group_symop_operation_xyz
  'x, y, z'

loop_
  _atom_site_type_symbol
  _atom_site_label
  _atom_site_symmetry_multiplicity
  _atom_site_fract_x
  _atom_site_fract_y
  _atom_site_fract_z
  _atom_site_occupancy
  B   B1        1.0  0.21549250185489655  0.43032094836235046  0.3531954288482666  1.0000
  Co  Co1       1.0  0.49272626638412476  0.9441797137260437  0.5730064511299133  1.0000
  Co  Co2       1.0  0.5243204236030579  0.6762275695800781  0.2399972230195999  1.0000
  Co  Co3       1.0  0.03866972401738167  0.8466442227363586  0.8621923327445983  1.0000
  Co  Co4       1.0  0.9507737159729004  0.143840029835701  0.23637932538986203  1.0000
  Er  Er1       1.0  0.21504563093185425  0.6606489419937134  0.17995701730251312  1.0000
  Er  Er2       1.0  0.7256405353546143  0.4495043456554413  0.5155956149101257  1.0000
  Er  Er3       1.0  0.5072518587112427  0.16892877221107483  0.28956931829452515  1.0000
  Er  Er4       1.0  0.21818102896213531  0.8496671319007874  0.011006541550159454  1.0000
  Er  Er5       1.0  0.24601945281028748  0.18172240257263184  0.9261057376861571  1.0000
  Ga  Ga1       1.0  0.46577760577201843  0.5870105028152466  0.9808942079544066  1.0000
