data_image0
_chemical_formula_structural       Al5AsGaIPtRbTi
_chemical_formula_sum              "Al5 As1 Ga1 I1 Pt1 Rb1 Ti1"
_cell_length_a       5.2313247342423255
_cell_length_b       6.1465749538714345
_cell_length_c       8.261058807373047
_cell_angle_alpha    114.41362141645965
_cell_angle_beta     90.5669671999048
_cell_angle_gamma    89.24564362766857

_space_group_name_H-M_alt    "P 1"
_space_group_IT_number       1

loop_
  _space_group_symop_operation_xyz
  'x, y, z'

loop_
  _atom_site_type_symbol
  _atom_site_label
  _atom_site_symmetry_multiplicity
  _atom_site_fract_x
  _atom_site_fract_y
  _atom_site_fract_z
  _atom_site_occupancy
  Al  Al1       1.0  0.24150900542736053  0.7662765383720398  0.3015569746494293  1.0000
  Al  Al2       1.0  0.7425441145896912  0.14403404295444489  0.12317728251218796  1.0000
  Al  Al3       1.0  0.7449007630348206  0.019382428377866745  0.15520870685577393  1.0000
  Al  Al4       1.0  0.7370821833610535  0.5794870257377625  0.4396598637104035  1.0000
  Al  Al5       1.0  0.2394985556602478  0.9378185868263246  0.7251689434051514  1.0000
  As  As1       1.0  0.22991707921028132  0.10677562654018403  0.4005662798881531  1.0000
  Ga  Ga1       1.0  0.739249587059021  0.7872929573059082  0.24398364126682287  1.0000
  I   I1        1.0  0.23717522621154785  0.541581928730011  0.808140754699707  1.0000
  Pt  Pt1       1.0  0.7372136116027832  0.4659354984760285  0.045487888157367734  1.0000
  Rb  Rb1       1.0  0.7383891344070435  0.7986326813697815  0.9782359600067139  1.0000
  Ti  Ti1       1.0  0.23979732394218445  0.4309102296829224  0.7069029211997986  1.0000
