data_image0
_chemical_formula_structural       Al4I3PbPt3
_chemical_formula_sum              "Al4 I3 Pb1 Pt3"
_cell_length_a       5.1860927178375675
_cell_length_b       5.945869700113264
_cell_length_c       7.67236852645874
_cell_angle_alpha    114.3971881746432
_cell_angle_beta     90.97469978740915
_cell_angle_gamma    91.2936578096799

_space_group_name_H-M_alt    "P 1"
_space_group_IT_number       1

loop_
  _space_group_symop_operation_xyz
  'x, y, z'

loop_
  _atom_site_type_symbol
  _atom_site_label
  _atom_site_symmetry_multiplicity
  _atom_site_fract_x
  _atom_site_fract_y
  _atom_site_fract_z
  _atom_site_occupancy
  Al  Al1       1.0  0.28391537070274353  0.9879416823387146  0.2505800127983093  1.0000
  Al  Al2       1.0  0.7475321888923645  0.4634914696216583  0.7613043189048766  1.0000
  Al  Al3       1.0  0.8260194063186646  0.506190299987793  0.5596517324447632  1.0000
  Al  Al4       1.0  0.7605709433555603  0.26397600769996643  0.8268901109695433  1.0000
  I   I1        1.0  0.5006015300750732  0.21522068977355957  0.8681398034095763  1.0000
  I   I2        1.0  0.7573220133781433  0.8830675482749939  0.2395270615816116  1.0000
  I   I3        1.0  0.25673985481262207  0.49982836842536926  0.12632206082344055  1.0000
  Pb  Pb1       1.0  0.2505432367324829  0.714650571346283  0.8851377964019774  1.0000
  Pt  Pt1       1.0  0.7605904936790466  0.5245413780212402  0.5185329914093018  1.0000
  Pt  Pt2       1.0  0.2508256137371063  0.3056410849094391  0.8606792092323302  1.0000
  Pt  Pt3       1.0  0.2507345378398895  0.6793828010559082  0.8432785868644713  1.0000
