data_image0
_chemical_formula_structural       Al3HNiPt5Zr
_chemical_formula_sum              "Al3 H1 Ni1 Pt5 Zr1"
_cell_length_a       5.279092148909587
_cell_length_b       5.310210097854439
_cell_length_c       5.7652974128723145
_cell_angle_alpha    64.0353528305556
_cell_angle_beta     64.36276587120257
_cell_angle_gamma    66.38755098635873

_space_group_name_H-M_alt    "P 1"
_space_group_IT_number       1

loop_
  _space_group_symop_operation_xyz
  'x, y, z'

loop_
  _atom_site_type_symbol
  _atom_site_label
  _atom_site_symmetry_multiplicity
  _atom_site_fract_x
  _atom_site_fract_y
  _atom_site_fract_z
  _atom_site_occupancy
  Al  Al1       1.0  0.10317113250494003  0.18851080536842346  0.9145033955574036  1.0000
  Al  Al2       1.0  0.570715606212616  0.05303575471043587  0.467997282743454  1.0000
  Al  Al3       1.0  0.7846856713294983  0.9167898893356323  0.6966429352760315  1.0000
  H   H1        1.0  0.2900855541229248  0.7942059636116028  0.9017332196235657  1.0000
  Ni  Ni1       1.0  0.8074709177017212  0.8101654648780823  0.6385914087295532  1.0000
  Pt  Pt1       1.0  0.5691794157028198  0.22793333232402802  0.07827138155698776  1.0000
  Pt  Pt2       1.0  0.8185048699378967  0.7554845809936523  0.8314642906188965  1.0000
  Pt  Pt3       1.0  0.584846556186676  0.7145676016807556  0.8568558096885681  1.0000
  Pt  Pt4       1.0  0.295131117105484  0.37296557426452637  0.1966477483510971  1.0000
  Pt  Pt5       1.0  0.08729097992181778  0.22273153066635132  0.27641090750694275  1.0000
  Zr  Zr1       1.0  0.8177078366279602  0.7418029308319092  0.641170859336853  1.0000
