data_image0
_chemical_formula_structural       Al2GaGeHNPt3ZnZr
_chemical_formula_sum              "Al2 Ga1 Ge1 H1 N1 Pt3 Zn1 Zr1"
_cell_length_a       3.880447711302703
_cell_length_b       4.316853190913106
_cell_length_c       7.551000118255615
_cell_angle_alpha    90.44803015590325
_cell_angle_beta     90.36999522354307
_cell_angle_gamma    124.53450385595266

_space_group_name_H-M_alt    "P 1"
_space_group_IT_number       1

loop_
  _space_group_symop_operation_xyz
  'x, y, z'

loop_
  _atom_site_type_symbol
  _atom_site_label
  _atom_site_symmetry_multiplicity
  _atom_site_fract_x
  _atom_site_fract_y
  _atom_site_fract_z
  _atom_site_occupancy
  Al  Al1       1.0  0.15112438797950745  0.0174818467348814  0.5361028909683228  1.0000
  Al  Al2       1.0  0.13585582375526428  0.8900606036186218  0.7823074460029603  1.0000
  Ga  Ga1       1.0  0.08960045874118805  0.7578673362731934  0.5823973417282106  1.0000
  Ge  Ge1       1.0  0.36790212988853455  0.31594234704971313  0.6004381179809571  1.0000
  H   H1        1.0  0.4356464147567749  0.5032098293304443  0.13681715726852417  1.0000
  N   N1        1.0  0.0958365947008133  0.9579649567604065  0.3907186686992646  1.0000
  Pt  Pt1       1.0  0.05135307088494301  0.40760836005210876  0.12178876250982286  1.0000
  Pt  Pt2       1.0  0.9302974343299866  0.5156798958778381  0.487059235572815  1.0000
  Pt  Pt3       1.0  0.39142826199531555  0.3397662341594696  0.26314666867256165  1.0000
  Zn  Zn1       1.0  0.36287397146224976  0.954280436038971  0.24576237797737124  1.0000
  Zr  Zr1       1.0  0.7783884406089783  0.12819497287273407  0.9330722093582154  1.0000
