data_image0
_chemical_formula_structural       Al3Nd2Pt6
_chemical_formula_sum              "Al3 Nd2 Pt6"
_cell_length_a       5.119384429843533
_cell_length_b       5.321050230769248
_cell_length_c       5.829195976257324
_cell_angle_alpha    107.48513292228317
_cell_angle_beta     86.85174341411661
_cell_angle_gamma    66.22480737904225

_space_group_name_H-M_alt    "P 1"
_space_group_IT_number       1

loop_
  _space_group_symop_operation_xyz
  'x, y, z'

loop_
  _atom_site_type_symbol
  _atom_site_label
  _atom_site_symmetry_multiplicity
  _atom_site_fract_x
  _atom_site_fract_y
  _atom_site_fract_z
  _atom_site_occupancy
  Al  Al1       1.0  0.06792223453521729  0.08797736465930939  0.31097593903541565  1.0000
  Al  Al2       1.0  0.6027736663818359  0.2555809020996094  0.5575752854347229  1.0000
  Al  Al3       1.0  0.06090802326798439  0.04494313523173332  0.7947559356689453  1.0000
  Nd  Nd1       1.0  0.09201359003782272  0.7781031131744385  0.7359748482704163  1.0000
  Nd  Nd2       1.0  0.562956690788269  0.21080271899700165  0.694791853427887  1.0000
  Pt  Pt1       1.0  0.8920286297798157  0.39611509442329407  0.42700910568237305  1.0000
  Pt  Pt2       1.0  0.09956733137369156  0.3198598623275757  0.4431097209453584  1.0000
  Pt  Pt3       1.0  0.5937067270278931  0.9421449303627014  0.849433958530426  1.0000
  Pt  Pt4       1.0  0.45006218552589417  0.576343297958374  0.6830917000770569  1.0000
  Pt  Pt5       1.0  0.08630089461803436  0.33939558267593384  0.7944591641426086  1.0000
  Pt  Pt6       1.0  0.09510508179664612  0.9568849205970764  0.5619670748710632  1.0000
