data_image0
_chemical_formula_structural       Al5NdPt4Te
_chemical_formula_sum              "Al5 Nd1 Pt4 Te1"
_cell_length_a       4.8181170798310085
_cell_length_b       6.048679073010927
_cell_length_c       5.812056064605713
_cell_angle_alpha    87.07307481114192
_cell_angle_beta     75.34176323899189
_cell_angle_gamma    74.36619182209118

_space_group_name_H-M_alt    "P 1"
_space_group_IT_number       1

loop_
  _space_group_symop_operation_xyz
  'x, y, z'

loop_
  _atom_site_type_symbol
  _atom_site_label
  _atom_site_symmetry_multiplicity
  _atom_site_fract_x
  _atom_site_fract_y
  _atom_site_fract_z
  _atom_site_occupancy
  Al  Al1       1.0  0.803309977054596  0.7380127906799316  0.2952699065208435  1.0000
  Al  Al2       1.0  0.021192701533436775  0.4307592511177063  0.864568829536438  1.0000
  Al  Al3       1.0  0.2691188156604767  0.1289147436618805  0.9050202965736389  1.0000
  Al  Al4       1.0  0.7956324815750122  0.7852494716644287  0.7587940096855164  1.0000
  Al  Al5       1.0  0.010782944969832897  0.5977948307991028  0.702613890171051  1.0000
  Nd  Nd1       1.0  0.7781873345375061  0.5578662157058716  0.29324769973754883  1.0000
  Pt  Pt1       1.0  0.7869830131530762  0.8388838171958923  0.41526034474372864  1.0000
  Pt  Pt2       1.0  0.7687798142433167  0.15196438133716583  0.6075679659843444  1.0000
  Pt  Pt3       1.0  0.25953349471092224  0.6303791403770447  0.12470028549432755  1.0000
  Pt  Pt4       1.0  0.5036248564720154  0.2975253164768219  0.23168835043907166  1.0000
  Te  Te1       1.0  0.2840070426464081  0.8085053563117981  0.7001292109489441  1.0000
