data_image0
_chemical_formula_structural       Cl2CuDyHgIrSb2Te
_chemical_formula_sum              "Cl2 Cu1 Dy1 Hg1 Ir1 Sb2 Te1"
_cell_length_a       6.382631781649345
_cell_length_b       6.382851755453893
_cell_length_c       6.373840808868408
_cell_angle_alpha    100.58346633597748
_cell_angle_beta     100.22375066702736
_cell_angle_gamma    100.60087985298992

_space_group_name_H-M_alt    "P 1"
_space_group_IT_number       1

loop_
  _space_group_symop_operation_xyz
  'x, y, z'

loop_
  _atom_site_type_symbol
  _atom_site_label
  _atom_site_symmetry_multiplicity
  _atom_site_fract_x
  _atom_site_fract_y
  _atom_site_fract_z
  _atom_site_occupancy
  Cl  Cl1       1.0  0.042330168187618256  0.23931947350502014  0.11460985243320465  1.0000
  Cl  Cl2       1.0  0.6492491960525513  0.9512383341789246  0.4455743432044983  1.0000
  Cu  Cu1       1.0  0.4350656569004059  0.7498454451560974  0.6660536527633667  1.0000
  Dy  Dy1       1.0  0.12805603444576263  0.03586766496300697  0.491849809885025  1.0000
  Hg  Hg1       1.0  0.572241485118866  0.4069889485836029  0.3353956341743469  1.0000
  Ir  Ir1       1.0  0.04078323021531105  0.8878049254417419  0.9096653461456298  1.0000
  Sb  Sb1       1.0  0.06676103174686432  0.5424565076828003  0.6129072308540344  1.0000
  Sb  Sb2       1.0  0.45962879061698914  0.09163056313991547  0.934158205986023  1.0000
  Te  Te1       1.0  0.6867108941078186  0.5881040692329407  0.8947130441665649  1.0000
