data_image0
_chemical_formula_structural       CClHfHg2IrSb2Zr
_chemical_formula_sum              "C1 Cl1 Hf1 Hg2 Ir1 Sb2 Zr1"
_cell_length_a       6.1136819458204945
_cell_length_b       6.0974245032399805
_cell_length_c       6.120832920074463
_cell_angle_alpha    105.52550926426206
_cell_angle_beta     105.46302973347375
_cell_angle_gamma    105.19069198374457

_space_group_name_H-M_alt    "P 1"
_space_group_IT_number       1

loop_
  _space_group_symop_operation_xyz
  'x, y, z'

loop_
  _atom_site_type_symbol
  _atom_site_label
  _atom_site_symmetry_multiplicity
  _atom_site_fract_x
  _atom_site_fract_y
  _atom_site_fract_z
  _atom_site_occupancy
  C   C1        1.0  0.33260467648506165  0.8256841897964478  0.14257289469242096  1.0000
  Cl  Cl1       1.0  0.08796440064907074  0.2664950489997864  0.17790725827217102  1.0000
  Hf  Hf1       1.0  0.03145110234618187  0.8157872557640076  0.860383927822113  1.0000
  Hg  Hg1       1.0  0.8179872035980225  0.7136484384536743  0.2891404330730438  1.0000
  Hg  Hg2       1.0  0.8554593324661255  0.3255493938922882  0.6588751077651978  1.0000
  Ir  Ir1       1.0  0.3748038113117218  0.49461376667022705  0.9893196821212769  1.0000
  Sb  Sb1       1.0  0.5289734601974487  0.7064955234527588  0.6889039874076843  1.0000
  Sb  Sb2       1.0  0.3056176006793976  0.07803220301866531  0.6677232980728149  1.0000
  Zr  Zr1       1.0  0.6209282875061035  0.11858335882425308  0.12252778559923172  1.0000
