data_image0
_chemical_formula_structural       Cl4Hg2Ir2Te
_chemical_formula_sum              "Cl4 Hg2 Ir2 Te1"
_cell_length_a       6.373380743064101
_cell_length_b       6.358433832179495
_cell_length_c       6.6205902099609375
_cell_angle_alpha    102.08170054415105
_cell_angle_beta     101.84335079194042
_cell_angle_gamma    119.05829358074294

_space_group_name_H-M_alt    "P 1"
_space_group_IT_number       1

loop_
  _space_group_symop_operation_xyz
  'x, y, z'

loop_
  _atom_site_type_symbol
  _atom_site_label
  _atom_site_symmetry_multiplicity
  _atom_site_fract_x
  _atom_site_fract_y
  _atom_site_fract_z
  _atom_site_occupancy
  Cl  Cl1       1.0  0.5013774633407593  0.1429925113916397  0.27798122167587275  1.0000
  Cl  Cl2       1.0  0.6269783973693848  0.9785517454147339  0.7679098844528198  1.0000
  Cl  Cl3       1.0  0.1546882539987564  0.497098833322525  0.2811069190502167  1.0000
  Cl  Cl4       1.0  0.8372646570205688  0.8021671772003174  0.27384442090988154  1.0000
  Hg  Hg1       1.0  0.9796638488769531  0.6129418015480042  0.7652825713157654  1.0000
  Hg  Hg2       1.0  0.0674319863319397  0.08602122962474823  0.020234875380992886  1.0000
  Ir  Ir1       1.0  0.7068576216697693  0.37444499135017395  0.0331539213657379  1.0000
  Ir  Ir2       1.0  0.2395600825548172  0.9145312309265137  0.5186336040496826  1.0000
  Te  Te1       1.0  0.3179713487625122  0.31336426734924316  0.765435755252838  1.0000
