data_image0
_chemical_formula_structural       Cl3Hg3Ir2Te
_chemical_formula_sum              "Cl3 Hg3 Ir2 Te1"
_cell_length_a       6.519841622411122
_cell_length_b       6.5241210178461335
_cell_length_c       6.5509772300720215
_cell_angle_alpha    101.98763712685663
_cell_angle_beta     113.60811289572692
_cell_angle_gamma    113.14251389097939

_space_group_name_H-M_alt    "P 1"
_space_group_IT_number       1

loop_
  _space_group_symop_operation_xyz
  'x, y, z'

loop_
  _atom_site_type_symbol
  _atom_site_label
  _atom_site_symmetry_multiplicity
  _atom_site_fract_x
  _atom_site_fract_y
  _atom_site_fract_z
  _atom_site_occupancy
  Cl  Cl1       1.0  0.9896675944328308  0.25250083208084106  0.7927778363227844  1.0000
  Cl  Cl2       1.0  0.5005384683609009  0.6848062872886658  0.788171648979187  1.0000
  Cl  Cl3       1.0  0.04419706389307976  0.7918996214866638  0.37772032618522644  1.0000
  Hg  Hg1       1.0  0.4974225163459778  0.7135894894599915  0.30587339401245117  1.0000
  Hg  Hg2       1.0  0.8980638980865479  0.09639103710651398  0.1770529747009277  1.0000
  Hg  Hg3       1.0  0.06820158660411835  0.7965847253799438  0.8968650102615356  1.0000
  Ir  Ir1       1.0  0.007864324375987053  0.4901539087295532  0.5179105401039125  1.0000
  Ir  Ir2       1.0  0.4944453537464142  0.27732425928115845  0.6921854615211487  1.0000
  Te  Te1       1.0  0.5023330450057983  0.21842162311077118  0.2964060604572296  1.0000
