data_image0
_chemical_formula_structural       AsIn4IrNZn3Zr
_chemical_formula_sum              "As1 In4 Ir1 N1 Zn3 Zr1"
_cell_length_a       5.194913808587906
_cell_length_b       6.654385571038799
_cell_length_c       7.145207405090332
_cell_angle_alpha    119.47891456978968
_cell_angle_beta     93.11509563176874
_cell_angle_gamma    89.52848993517638

_space_group_name_H-M_alt    "P 1"
_space_group_IT_number       1

loop_
  _space_group_symop_operation_xyz
  'x, y, z'

loop_
  _atom_site_type_symbol
  _atom_site_label
  _atom_site_symmetry_multiplicity
  _atom_site_fract_x
  _atom_site_fract_y
  _atom_site_fract_z
  _atom_site_occupancy
  As  As1       1.0  0.8527591228485107  0.6003337502479553  0.8746152520179749  1.0000
  In  In1       1.0  0.6112743020057678  0.8078083395957947  0.42355507612228394  1.0000
  In  In2       1.0  0.3386082649230957  0.17227144539356232  0.7157694101333618  1.0000
  In  In3       1.0  0.8461633324623108  0.9404920935630798  0.8435025811195374  1.0000
  In  In4       1.0  0.34226682782173157  0.7686898112297058  0.9090999960899353  1.0000
  Ir  Ir1       1.0  0.34600019454956055  0.5513710975646973  0.007005426567047834  1.0000
  N   N1        1.0  0.34482207894325256  0.8666946887969971  0.6023335456848145  1.0000
  Zn  Zn1       1.0  0.8467162847518921  0.029150504618883133  0.14714668691158295  1.0000
  Zn  Zn2       1.0  0.8461872339248657  0.08633442968130112  0.8555147647857666  1.0000
  Zn  Zn3       1.0  0.3446630537509918  0.2987821698188782  0.8694467544555664  1.0000
  Zr  Zr1       1.0  0.35706907510757446  0.4734658896923065  0.6293367743492126  1.0000
