data_image0
_chemical_formula_structural       AsI3In2PPr3Si
_chemical_formula_sum              "As1 I3 In2 P1 Pr3 Si1"
_cell_length_a       6.588732326605321
_cell_length_b       6.984775809218475
_cell_length_c       8.143705368041992
_cell_angle_alpha    116.00153440183782
_cell_angle_beta     114.32867636445445
_cell_angle_gamma    91.27433972176111

_space_group_name_H-M_alt    "P 1"
_space_group_IT_number       1

loop_
  _space_group_symop_operation_xyz
  'x, y, z'

loop_
  _atom_site_type_symbol
  _atom_site_label
  _atom_site_symmetry_multiplicity
  _atom_site_fract_x
  _atom_site_fract_y
  _atom_site_fract_z
  _atom_site_occupancy
  As  As1       1.0  0.7067203521728516  0.667881429195404  0.16401976346969604  1.0000
  I   I1        1.0  0.6971429586410522  0.6664888262748718  0.41918712854385376  1.0000
  I   I2        1.0  0.7633031606674194  0.7912740707397461  0.019197028130292892  1.0000
  I   I3        1.0  0.19289632141590118  0.9102159142494202  0.12099471688270569  1.0000
  In  In1       1.0  0.06632398068904877  0.5153864622116089  0.7780237197875977  1.0000
  In  In2       1.0  0.23932123184204102  0.9999026656150818  0.89738929271698  1.0000
  P   P1        1.0  0.47486093640327454  0.5094303488731384  0.42319250106811523  1.0000
  Pr  Pr1       1.0  0.5689108967781067  0.39753440022468567  0.31167033314704895  1.0000
  Pr  Pr2       1.0  0.1939248889684677  0.11708357185125351  0.8074912428855896  1.0000
  Pr  Pr3       1.0  0.0612311027944088  0.31550854444503784  0.1813706010580063  1.0000
  Si  Si1       1.0  0.7098554372787476  0.8766282200813293  0.3137933909893036  1.0000
