data_image0
_chemical_formula_structural       Cl3In2NiOPbPr3
_chemical_formula_sum              "Cl3 In2 Ni1 O1 Pb1 Pr3"
_cell_length_a       6.074881423392417
_cell_length_b       5.668310450163214
_cell_length_c       7.324759006500244
_cell_angle_alpha    117.95957990360812
_cell_angle_beta     113.24794719376162
_cell_angle_gamma    88.84116251745007

_space_group_name_H-M_alt    "P 1"
_space_group_IT_number       1

loop_
  _space_group_symop_operation_xyz
  'x, y, z'

loop_
  _atom_site_type_symbol
  _atom_site_label
  _atom_site_symmetry_multiplicity
  _atom_site_fract_x
  _atom_site_fract_y
  _atom_site_fract_z
  _atom_site_occupancy
  Cl  Cl1       1.0  0.21387727558612823  0.2762708067893982  0.10699687898159026  1.0000
  Cl  Cl2       1.0  0.6842077374458313  0.6878610253334045  0.9955540895462035  1.0000
  Cl  Cl3       1.0  0.2078385055065155  0.518989622592926  0.7746232151985167  1.0000
  In  In1       1.0  0.6882006525993347  0.35448023676872253  0.2596724033355713  1.0000
  In  In2       1.0  0.2336629033088684  0.9866868257522583  0.6977505087852477  1.0000
  Ni  Ni1       1.0  0.6917757391929626  0.9957051277160645  0.3400872647762298  1.0000
  O   O1        1.0  0.1555320918560028  0.44595953822135925  0.5869869589805603  1.0000
  Pb  Pb1       1.0  0.6648519039154053  0.019366731867194176  0.10703753679990771  1.0000
  Pr  Pr1       1.0  0.15615849196910858  0.8394747972488403  0.3071466684341431  1.0000
  Pr  Pr2       1.0  0.3716234862804413  0.7098259329795837  0.16034668684005743  1.0000
  Pr  Pr3       1.0  0.6726099848747253  0.4963637590408325  0.901187777519226  1.0000
