data_image0
_chemical_formula_structural       AsClFIn2OPr5
_chemical_formula_sum              "As1 Cl1 F1 In2 O1 Pr5"
_cell_length_a       5.170820042935429
_cell_length_b       4.507513485911401
_cell_length_c       8.217216491699219
_cell_angle_alpha    108.11493848346107
_cell_angle_beta     103.77669725439361
_cell_angle_gamma    88.81921335563146

_space_group_name_H-M_alt    "P 1"
_space_group_IT_number       1

loop_
  _space_group_symop_operation_xyz
  'x, y, z'

loop_
  _atom_site_type_symbol
  _atom_site_label
  _atom_site_symmetry_multiplicity
  _atom_site_fract_x
  _atom_site_fract_y
  _atom_site_fract_z
  _atom_site_occupancy
  As  As1       1.0  0.5130069851875305  0.8533260822296143  0.2945117950439453  1.0000
  Cl  Cl1       1.0  0.5595513582229614  0.43828994035720825  0.1705227494239807  1.0000
  F   F1        1.0  0.9758498668670653  0.706419050693512  0.5874037742614746  1.0000
  In  In1       1.0  0.31755563616752625  0.28283819556236267  0.4571027457714081  1.0000
  In  In2       1.0  0.5652104616165161  0.19781246781349182  0.21820607781410217  1.0000
  O   O1        1.0  0.5325039029121399  0.889552652835846  0.25978490710258484  1.0000
  Pr  Pr1       1.0  0.993984818458557  0.494794100522995  0.45797818899154663  1.0000
  Pr  Pr2       1.0  0.02846422418951988  0.7951685786247253  0.5171560049057007  1.0000
  Pr  Pr3       1.0  0.5568749308586121  0.6877742409706116  0.17555232346057892  1.0000
  Pr  Pr4       1.0  0.036349810659885406  0.8817885518074036  0.23395296931266785  1.0000
  Pr  Pr5       1.0  0.5160253047943115  0.014043610543012619  0.1446547955274582  1.0000
