data_image0
_chemical_formula_structural       AsHIn3PbPr4Y
_chemical_formula_sum              "As1 H1 In3 Pb1 Pr4 Y1"
_cell_length_a       4.926013203571661
_cell_length_b       4.4544006233355
_cell_length_c       8.735846519470215
_cell_angle_alpha    91.0401972532339
_cell_angle_beta     90.99011285786311
_cell_angle_gamma    90.58453356604429

_space_group_name_H-M_alt    "P 1"
_space_group_IT_number       1

loop_
  _space_group_symop_operation_xyz
  'x, y, z'

loop_
  _atom_site_type_symbol
  _atom_site_label
  _atom_site_symmetry_multiplicity
  _atom_site_fract_x
  _atom_site_fract_y
  _atom_site_fract_z
  _atom_site_occupancy
  As  As1       1.0  0.46460479497909546  0.0418454147875309  0.1774088442325592  1.0000
  H   H1        1.0  0.9704731702804565  0.8992017507553101  0.9905610084533691  1.0000
  In  In1       1.0  0.9772711992263794  0.39410027861595154  0.2336253523826599  1.0000
  In  In2       1.0  0.47745752334594727  0.10662579536437988  0.3606930077075958  1.0000
  In  In3       1.0  0.9993655681610107  0.16371868550777435  0.19445180892944336  1.0000
  Pb  Pb1       1.0  0.9882972836494446  0.4903848171234131  0.08612577617168427  1.0000
  Pr  Pr1       1.0  0.9669657349586487  0.33133628964424133  0.5950002670288086  1.0000
  Pr  Pr2       1.0  0.47768527269363403  0.43914511799812317  0.00489109568297863  1.0000
  Pr  Pr3       1.0  0.9716044068336487  0.32126402854919434  0.9184975028038025  1.0000
  Pr  Pr4       1.0  0.47283872961997986  0.37686291337013245  0.03998508304357529  1.0000
  Y   Y1        1.0  0.4874729812145233  0.112730011343956  0.3767392337322235  1.0000
