data_image0
_chemical_formula_structural       ClIn5Pb2Pr2Pt
_chemical_formula_sum              "Cl1 In5 Pb2 Pr2 Pt1"
_cell_length_a       4.30151307707497
_cell_length_b       8.348597969416359
_cell_length_c       9.269648551940918
_cell_angle_alpha    89.66356884571235
_cell_angle_beta     90.71772096517408
_cell_angle_gamma    91.33751410600875

_space_group_name_H-M_alt    "P 1"
_space_group_IT_number       1

loop_
  _space_group_symop_operation_xyz
  'x, y, z'

loop_
  _atom_site_type_symbol
  _atom_site_label
  _atom_site_symmetry_multiplicity
  _atom_site_fract_x
  _atom_site_fract_y
  _atom_site_fract_z
  _atom_site_occupancy
  Cl  Cl1       1.0  0.6324471831321716  0.41211047768592834  0.885550856590271  1.0000
  In  In1       1.0  0.13067373633384705  0.24088813364505768  0.13823498785495758  1.0000
  In  In2       1.0  0.11507972329854965  0.3374943137168884  0.3826623558998108  1.0000
  In  In3       1.0  0.6461179256439209  0.902134358882904  0.7227495312690735  1.0000
  In  In4       1.0  0.5986931324005127  0.18973253667354584  0.6285537481307983  1.0000
  In  In5       1.0  0.13668902218341827  0.379304438829422  0.6389246582984924  1.0000
  Pb  Pb1       1.0  0.6289290189743042  0.16632068157196045  0.5087130069732666  1.0000
  Pb  Pb2       1.0  0.12050831317901611  0.3993530571460724  0.3275192379951477  1.0000
  Pr  Pr1       1.0  0.8975695967674255  0.6885047554969788  0.5919278860092163  1.0000
  Pr  Pr2       1.0  0.6196355819702148  0.2938222587108612  0.4102109968662262  1.0000
  Pt  Pt1       1.0  0.14771735668182373  0.11247509717941284  0.20929452776908875  1.0000
