data_image0
_chemical_formula_structural       OSSi8
_chemical_formula_sum              "O1 S1 Si8"
_cell_length_a       5.572118564088285
_cell_length_b       6.1666871312987155
_cell_length_c       6.063726902008057
_cell_angle_alpha    115.12767605885216
_cell_angle_beta     114.64484816685437
_cell_angle_gamma    96.22572341445188

_space_group_name_H-M_alt    "P 1"
_space_group_IT_number       1

loop_
  _space_group_symop_operation_xyz
  'x, y, z'

loop_
  _atom_site_type_symbol
  _atom_site_label
  _atom_site_symmetry_multiplicity
  _atom_site_fract_x
  _atom_site_fract_y
  _atom_site_fract_z
  _atom_site_occupancy
  O   O1        1.0  0.4385046064853668  0.5058833360671997  0.16161172091960907  1.0000
  S   S1        1.0  0.22945891320705414  0.009503327310085297  0.8100495338439941  1.0000
  Si  Si1       1.0  0.9526686668395996  0.4516100585460663  0.7536590695381165  1.0000
  Si  Si2       1.0  0.18455180525779724  0.01927643083035946  0.7954036593437195  1.0000
  Si  Si3       1.0  0.8567622303962708  0.7468568086624146  0.9813121557235718  1.0000
  Si  Si4       1.0  0.6867337822914124  0.9649237990379333  0.6506244540214539  1.0000
  Si  Si5       1.0  0.27726811170578003  0.6779095530509949  0.2998915314674378  1.0000
  Si  Si6       1.0  0.9308170676231384  0.21268326044082642  0.29437848925590515  1.0000
  Si  Si7       1.0  0.7091904282569885  0.5040597915649414  0.9806824922561646  1.0000
  Si  Si8       1.0  0.5184431076049805  0.533776044845581  0.7778124809265137  1.0000
