data_image0
_chemical_formula_structural       AgO2Si7
_chemical_formula_sum              "Ag1 O2 Si7"
_cell_length_a       5.957635102708911
_cell_length_b       6.246309169663248
_cell_length_c       6.212889671325684
_cell_angle_alpha    106.66400529448264
_cell_angle_beta     108.14577107000964
_cell_angle_gamma    109.65124289020018

_space_group_name_H-M_alt    "P 1"
_space_group_IT_number       1

loop_
  _space_group_symop_operation_xyz
  'x, y, z'

loop_
  _atom_site_type_symbol
  _atom_site_label
  _atom_site_symmetry_multiplicity
  _atom_site_fract_x
  _atom_site_fract_y
  _atom_site_fract_z
  _atom_site_occupancy
  Ag  Ag1       1.0  0.749336302280426  0.9915936589241029  0.9778907299041748  1.0000
  O   O1        1.0  0.31701990962028503  0.1838044971227646  0.23385410010814667  1.0000
  O   O2        1.0  0.22253575921058655  0.04296525567770004  0.8075235486030579  1.0000
  Si  Si1       1.0  0.3509134650230408  0.41473683714866644  0.30264967679977417  1.0000
  Si  Si2       1.0  0.658364474773407  0.38312745094299316  0.625671923160553  1.0000
  Si  Si3       1.0  0.7160162925720215  0.5276035666465759  0.4120387136936188  1.0000
  Si  Si4       1.0  0.07662481814622887  0.8793123960494996  0.24521635472774506  1.0000
  Si  Si5       1.0  0.3455442488193513  0.8920478820800782  0.9085927605628967  1.0000
  Si  Si6       1.0  0.08412399142980584  0.8940821290016175  0.7373251914978027  1.0000
  Si  Si7       1.0  0.07649081200361252  0.009831171482801437  0.40856343507766724  1.0000
