data_image0
_chemical_formula_structural       Ag2O2Si6
_chemical_formula_sum              "Ag2 O2 Si6"
_cell_length_a       5.212249722972779
_cell_length_b       5.995305427797279
_cell_length_c       5.6311163902282715
_cell_angle_alpha    114.95619717157673
_cell_angle_beta     94.96557929732532
_cell_angle_gamma    104.86515227037113

_space_group_name_H-M_alt    "P 1"
_space_group_IT_number       1

loop_
  _space_group_symop_operation_xyz
  'x, y, z'

loop_
  _atom_site_type_symbol
  _atom_site_label
  _atom_site_symmetry_multiplicity
  _atom_site_fract_x
  _atom_site_fract_y
  _atom_site_fract_z
  _atom_site_occupancy
  Ag  Ag1       1.0  0.5743909478187561  0.21153496205806732  0.3347148597240448  1.0000
  Ag  Ag2       1.0  0.8416101336479187  0.20449002087116241  0.06845324486494064  1.0000
  O   O1        1.0  0.875994086265564  0.20073533058166504  0.9340643882751465  1.0000
  O   O2        1.0  0.43349596858024597  0.2948714792728424  0.8545475602149963  1.0000
  Si  Si1       1.0  0.39632996916770935  0.6900824904441833  0.6636742949485778  1.0000
  Si  Si2       1.0  0.3550196588039398  0.7038269639015198  0.5814974308013916  1.0000
  Si  Si3       1.0  0.09752152115106583  0.03426432982087135  0.148369699716568  1.0000
  Si  Si4       1.0  0.5705488324165344  0.20453058183193207  0.8479194641113281  1.0000
  Si  Si5       1.0  0.2145976573228836  0.6541577577590942  0.36096689105033863  1.0000
  Si  Si6       1.0  0.08089753240346909  0.21268340945243835  0.35464298725128174  1.0000
