data_image0
_chemical_formula_structural       AgO2Si7
_chemical_formula_sum              "Ag1 O2 Si7"
_cell_length_a       5.358839907843369
_cell_length_b       5.733380785822084
_cell_length_c       6.62252950668335
_cell_angle_alpha    113.45061964302862
_cell_angle_beta     102.93426745118438
_cell_angle_gamma    97.88102136884247

_space_group_name_H-M_alt    "P 1"
_space_group_IT_number       1

loop_
  _space_group_symop_operation_xyz
  'x, y, z'

loop_
  _atom_site_type_symbol
  _atom_site_label
  _atom_site_symmetry_multiplicity
  _atom_site_fract_x
  _atom_site_fract_y
  _atom_site_fract_z
  _atom_site_occupancy
  Ag  Ag1       1.0  0.3355712592601776  0.9221929907798767  0.8092114925384521  1.0000
  O   O1        1.0  0.6452242136001587  0.11764442175626755  0.15900669991970062  1.0000
  O   O2        1.0  0.6010787487030029  0.9297129511833191  0.9753185510635376  1.0000
  Si  Si1       1.0  0.9864217638969422  0.4476235508918762  0.7680870294570923  1.0000
  Si  Si2       1.0  0.10982179641723634  0.963263750076294  0.02554664015769965  1.0000
  Si  Si3       1.0  0.3851003348827362  0.6986063718795776  0.40539753437042236  1.0000
  Si  Si4       1.0  0.2629038989543915  0.2810669243335724  0.7618288993835449  1.0000
  Si  Si5       1.0  0.720761239528656  0.7550365328788757  0.28287041187286377  1.0000
  Si  Si6       1.0  0.1112736463546753  0.9302151203155518  0.331398069858551  1.0000
  Si  Si7       1.0  0.004679688718169928  0.27330729365348816  0.2731689214706421  1.0000
