data_image0
_chemical_formula_structural       O2Si8
_chemical_formula_sum              "O2 Si8"
_cell_length_a       5.48959680125506
_cell_length_b       6.407783019833254
_cell_length_c       6.732760429382324
_cell_angle_alpha    117.18076482992281
_cell_angle_beta     114.13276207418292
_cell_angle_gamma    89.46974567178823

_space_group_name_H-M_alt    "P 1"
_space_group_IT_number       1

loop_
  _space_group_symop_operation_xyz
  'x, y, z'

loop_
  _atom_site_type_symbol
  _atom_site_label
  _atom_site_symmetry_multiplicity
  _atom_site_fract_x
  _atom_site_fract_y
  _atom_site_fract_z
  _atom_site_occupancy
  O   O1        1.0  0.4081089198589325  0.6580197811126709  0.5408677458763123  1.0000
  O   O2        1.0  0.4040038585662842  0.26862412691116333  0.7427604794502258  1.0000
  Si  Si1       1.0  0.5249760150909424  0.6143618226051331  0.7853186130523682  1.0000
  Si  Si2       1.0  0.023922929540276527  0.0916312113404274  0.5596434473991394  1.0000
  Si  Si3       1.0  0.29964092373847956  0.9381133913993834  0.0623546838760376  1.0000
  Si  Si4       1.0  0.6369963884353638  0.8375611901283264  0.5072100162506104  1.0000
  Si  Si5       1.0  0.30739387869834894  0.9448382258415221  0.007683770731091499  1.0000
  Si  Si6       1.0  0.5348342657089233  0.09473573416471481  0.5002959966659546  1.0000
  Si  Si7       1.0  0.9292669892311096  0.4438585340976715  0.8140234351158142  1.0000
  Si  Si8       1.0  0.14438368380069733  0.4283143877983093  0.5053491592407227  1.0000
