data_image0
_chemical_formula_structural       Ag3O2Si5
_chemical_formula_sum              "Ag3 O2 Si5"
_cell_length_a       4.832982808783914
_cell_length_b       6.095851651909392
_cell_length_c       5.547028064727783
_cell_angle_alpha    126.89226546029111
_cell_angle_beta     90.38562679322818
_cell_angle_gamma    88.39694131119009

_space_group_name_H-M_alt    "P 1"
_space_group_IT_number       1

loop_
  _space_group_symop_operation_xyz
  'x, y, z'

loop_
  _atom_site_type_symbol
  _atom_site_label
  _atom_site_symmetry_multiplicity
  _atom_site_fract_x
  _atom_site_fract_y
  _atom_site_fract_z
  _atom_site_occupancy
  Ag  Ag1       1.0  0.695670485496521  0.11300792545080185  0.8815354704856873  1.0000
  Ag  Ag2       1.0  0.19608251750469208  0.8970381617546082  0.8020671606063843  1.0000
  Ag  Ag3       1.0  0.4527570605278015  0.5743892192840576  0.07920131087303162  1.0000
  O   O1        1.0  0.899732232093811  0.9499669671058655  0.36314624547958374  1.0000
  O   O2        1.0  0.4381948709487915  0.3368932902812958  0.3465518951416015  1.0000
  Si  Si1       1.0  0.4457947015762329  0.9353693127632141  0.9983611106872559  1.0000
  Si  Si2       1.0  0.9507303237915039  0.9138001203536987  0.2471229285001754  1.0000
  Si  Si3       1.0  0.9435051679611206  0.4312274158000946  0.338692307472229  1.0000
  Si  Si4       1.0  0.9424729347229004  0.9346821308135986  0.7380910515785217  1.0000
  Si  Si5       1.0  0.4519895315170288  0.5379871726036072  0.4096735119819641  1.0000
