data_image0
_chemical_formula_structural       IPPb2Pt2Zn
_chemical_formula_sum              "I1 P1 Pb2 Pt2 Zn1"
_cell_length_a       6.0324412671364795
_cell_length_b       6.123350470791562
_cell_length_c       7.516051292419434
_cell_angle_alpha    114.11323636881005
_cell_angle_beta     106.44604704619036
_cell_angle_gamma    89.11659819312818

_space_group_name_H-M_alt    "P 1"
_space_group_IT_number       1

loop_
  _space_group_symop_operation_xyz
  'x, y, z'

loop_
  _atom_site_type_symbol
  _atom_site_label
  _atom_site_symmetry_multiplicity
  _atom_site_fract_x
  _atom_site_fract_y
  _atom_site_fract_z
  _atom_site_occupancy
  I   I1        1.0  0.1722138375043869  0.5078367590904236  0.1449815034866333  1.0000
  P   P1        1.0  0.5798991322517395  0.6251655220985413  0.6212956309318542  1.0000
  Pb  Pb1       1.0  0.6896518468856812  0.44000452756881714  0.5012248158454895  1.0000
  Pb  Pb2       1.0  0.18087416887283325  0.10325364768505096  0.3631618916988373  1.0000
  Pt  Pt1       1.0  0.11914960294961928  0.21958543360233307  0.0010030051926150918  1.0000
  Pt  Pt2       1.0  0.6835311055183411  0.19806143641471863  0.09966086596250534  1.0000
  Zn  Zn1       1.0  0.6994795203208923  0.019765129312872887  0.7153792381286621  1.0000
