data_image0
_chemical_formula_structural       Ba4CDyI2O3TiVZn
_chemical_formula_sum              "Ba4 C1 Dy1 I2 O3 Ti1 V1 Zn1"
_cell_length_a       6.3450047767983015
_cell_length_b       8.15298355656268
_cell_length_c       11.681639671325684
_cell_angle_alpha    113.41950198248948
_cell_angle_beta     89.22112666881488
_cell_angle_gamma    90.0328167197814

_space_group_name_H-M_alt    "P 1"
_space_group_IT_number       1

loop_
  _space_group_symop_operation_xyz
  'x, y, z'

loop_
  _atom_site_type_symbol
  _atom_site_label
  _atom_site_symmetry_multiplicity
  _atom_site_fract_x
  _atom_site_fract_y
  _atom_site_fract_z
  _atom_site_occupancy
  Ba  Ba1       1.0  0.4458345174789428  0.8701693415641785  0.05722803249955181  1.0000
  Ba  Ba2       1.0  0.9447951316833495  0.03985561057925224  0.4417746961116791  1.0000
  Ba  Ba3       1.0  0.4475765228271484  0.4327894449234009  0.4646046459674835  1.0000
  Ba  Ba4       1.0  0.9455680847167968  0.20519298315048218  0.18653741478919983  1.0000
  C   C1        1.0  0.44890847802162165  0.044805992394685745  0.1535731852054596  1.0000
  Dy  Dy1       1.0  0.4476491510868072  0.26662948727607727  0.7987686395645142  1.0000
  I   I1        1.0  0.9444063305854796  0.41645365953445435  0.17224441468715668  1.0000
  I   I2        1.0  0.9475600719451903  0.4199013411998749  0.38670581579208374  1.0000
  O   O1        1.0  0.949719727039337  0.2993110716342926  0.7707872986793518  1.0000
  O   O2        1.0  0.4526918232440948  0.8268294334411621  0.10273879021406174  1.0000
  O   O3        1.0  0.45014736056327814  0.6715601086616516  0.045100908726453816  1.0000
  Ti  Ti1       1.0  0.44703620672225947  0.9768741130828857  0.06451963633298878  1.0000
  V   V1        1.0  0.4447499513626098  0.5798162817955017  0.3532312214374542  1.0000
  Zn  Zn1       1.0  0.9471946954727172  0.6834519505500793  0.40057700872421265  1.0000
