data_image0
_chemical_formula_structural       Ba5GeIO2SbTlZn2Zr
_chemical_formula_sum              "Ba5 Ge1 I1 O2 Sb1 Tl1 Zn2 Zr1"
_cell_length_a       5.307318578707028
_cell_length_b       5.060469056563234
_cell_length_c       13.168636322021484
_cell_angle_alpha    95.07290909458578
_cell_angle_beta     90.61047422046326
_cell_angle_gamma    90.4242711614735

_space_group_name_H-M_alt    "P 1"
_space_group_IT_number       1

loop_
  _space_group_symop_operation_xyz
  'x, y, z'

loop_
  _atom_site_type_symbol
  _atom_site_label
  _atom_site_symmetry_multiplicity
  _atom_site_fract_x
  _atom_site_fract_y
  _atom_site_fract_z
  _atom_site_occupancy
  Ba  Ba1       1.0  0.6669619679450989  0.8930542469024657  0.6340821385383606  1.0000
  Ba  Ba2       1.0  0.1674806922674179  0.31145304441452026  0.32380861043930054  1.0000
  Ba  Ba3       1.0  0.16804470121860504  0.883183717727661  0.27929869294166565  1.0000
  Ba  Ba4       1.0  0.1686849296092987  0.01353234890848398  0.466249942779541  1.0000
  Ba  Ba5       1.0  0.6672051548957825  0.060074020177125924  0.5893056392669678  1.0000
  Ge  Ge1       1.0  0.6691430807113647  0.18071410059928894  0.6436472535133362  1.0000
  I   I1        1.0  0.16650629043579102  0.1939653754234314  0.5736737847328186  1.0000
  O   O1        1.0  0.6357552409172058  0.7799561023712158  0.8205761313438417  1.0000
  O   O2        1.0  0.14123006165027618  0.42106819152832026  0.9108946919441223  1.0000
  Sb  Sb1       1.0  0.16663715243339539  0.34693965315818787  0.7126210927963257  1.0000
  Tl  Tl1       1.0  0.6757287383079529  0.8165600895881653  0.3567515015602112  1.0000
  Zn  Zn1       1.0  0.16469742357730865  0.897805631160736  0.9687082171440125  1.0000
  Zn  Zn2       1.0  0.16729529201984406  0.6925729513168335  0.29167893528938293  1.0000
  Zr  Zr1       1.0  0.16916760802268982  0.7709407210350037  0.1501205414533615  1.0000
