data_image0
_chemical_formula_structural       Ba5HILuO6
_chemical_formula_sum              "Ba5 H1 I1 Lu1 O6"
_cell_length_a       5.94708632245255
_cell_length_b       6.505088348235239
_cell_length_c       12.131753921508789
_cell_angle_alpha    92.0470742703079
_cell_angle_beta     89.8427446278915
_cell_angle_gamma    114.29463392694021

_space_group_name_H-M_alt    "P 1"
_space_group_IT_number       1

loop_
  _space_group_symop_operation_xyz
  'x, y, z'

loop_
  _atom_site_type_symbol
  _atom_site_label
  _atom_site_symmetry_multiplicity
  _atom_site_fract_x
  _atom_site_fract_y
  _atom_site_fract_z
  _atom_site_occupancy
  Ba  Ba1       1.0  0.2999807894229889  0.0900888442993164  0.7210959792137146  1.0000
  Ba  Ba2       1.0  0.797208309173584  0.7572773098945618  0.8338601589202881  1.0000
  Ba  Ba3       1.0  0.7948080897331238  0.15756183862686157  0.5050445199012756  1.0000
  Ba  Ba4       1.0  0.2970338761806488  0.21832861006259918  0.5905658006668091  1.0000
  Ba  Ba5       1.0  0.7987091541290283  0.7109975814819336  0.8493207097053528  1.0000
  H   H1        1.0  0.5437360405921936  0.3088566064834595  0.5168105959892273  1.0000
  I   I1        1.0  0.5782102942466736  0.5425195097923279  0.9775540232658386  1.0000
  Lu  Lu1       1.0  0.2949564456939697  0.516453742980957  0.2001846581697464  1.0000
  O   O1        1.0  0.13178016245365143  0.8634870648384094  0.037012867629528046  1.0000
  O   O2        1.0  0.3133782148361206  0.7149486541748047  0.5051366090774536  1.0000
  O   O3        1.0  0.7835123538970947  0.494447261095047  0.6495307087898254  1.0000
  O   O4        1.0  0.7847673892974854  0.8574056029319763  0.7481266856193542  1.0000
  O   O5        1.0  0.8104200959205627  0.21035858988761902  0.9961273074150085  1.0000
  O   O6        1.0  0.31343814730644226  0.19251273572444916  0.33777114748954773  1.0000
