data_image0
_chemical_formula_structural       Ba7BiO6
_chemical_formula_sum              "Ba7 Bi1 O6"
_cell_length_a       6.192297033011828
_cell_length_b       4.575119314421991
_cell_length_c       31.97783851623535
_cell_angle_alpha    117.56345349399756
_cell_angle_beta     108.7692587344722
_cell_angle_gamma    81.96946138574859

_space_group_name_H-M_alt    "P 1"
_space_group_IT_number       1

loop_
  _space_group_symop_operation_xyz
  'x, y, z'

loop_
  _atom_site_type_symbol
  _atom_site_label
  _atom_site_symmetry_multiplicity
  _atom_site_fract_x
  _atom_site_fract_y
  _atom_site_fract_z
  _atom_site_occupancy
  Ba  Ba1       1.0  0.5718756318092346  0.6235106587409973  0.1512795388698578  1.0000
  Ba  Ba2       1.0  0.43024173378944397  0.32016444206237793  0.6605983972549438  1.0000
  Ba  Ba3       1.0  0.949357271194458  0.8365247249603271  0.41856658458709717  1.0000
  Ba  Ba4       1.0  0.8100995421409607  0.17946337163448334  0.9748922586441041  1.0000
  Ba  Ba5       1.0  0.1871557980775833  0.0036945578176528215  0.2055395543575287  1.0000
  Ba  Ba6       1.0  0.6681751012802124  0.17129936814308167  0.3892391324043274  1.0000
  Ba  Ba7       1.0  0.3824189603328705  0.9283927083015442  0.2490411698818207  1.0000
  Bi  Bi1       1.0  0.9328160285949707  0.8967165946960449  0.12285467237234117  1.0000
  O   O1        1.0  0.9168266654014587  0.569441020488739  0.9006103277206421  1.0000
  O   O2        1.0  0.8199669718742371  0.7583786845207214  0.6256629824638367  1.0000
  O   O3        1.0  0.41488099098205566  0.2912600636482239  0.8722850680351257  1.0000
  O   O4        1.0  0.7613865733146667  0.5042026042938232  0.9324738979339601  1.0000
  O   O5        1.0  0.20408427715301514  0.7253604531288147  0.6430491209030151  1.0000
  O   O6        1.0  0.5094358325004578  0.5348929762840271  0.13785558938980103  1.0000
