data_image0
_chemical_formula_structural       Ba5O9
_chemical_formula_sum              "Ba5 O9"
_cell_length_a       5.301329267779345
_cell_length_b       4.447789957600048
_cell_length_c       17.235292434692383
_cell_angle_alpha    103.59534956961406
_cell_angle_beta     98.69764332795735
_cell_angle_gamma    86.47924657033512

_space_group_name_H-M_alt    "P 1"
_space_group_IT_number       1

loop_
  _space_group_symop_operation_xyz
  'x, y, z'

loop_
  _atom_site_type_symbol
  _atom_site_label
  _atom_site_symmetry_multiplicity
  _atom_site_fract_x
  _atom_site_fract_y
  _atom_site_fract_z
  _atom_site_occupancy
  Ba  Ba1       1.0  0.3231729567050934  0.25080764293670654  0.11986275762319565  1.0000
  Ba  Ba2       1.0  0.8569414019584656  0.569373369216919  0.25001266598701477  1.0000
  Ba  Ba3       1.0  0.8363589644432068  0.8880419731140137  0.31509751081466675  1.0000
  Ba  Ba4       1.0  0.5926427841186523  0.7923674583435059  0.6457933187484741  1.0000
  Ba  Ba5       1.0  0.1476387232542038  0.7962685823440552  0.5767044425010681  1.0000
  O   O1        1.0  0.8731132745742798  0.704882800579071  0.9099425077438354  1.0000
  O   O2        1.0  0.35862207412719727  0.11638917028903961  0.05183945223689079  1.0000
  O   O3        1.0  0.5751575231552124  0.976142942905426  0.11683335155248642  1.0000
  O   O4        1.0  0.8513588905334473  0.3055674135684967  0.5748172402381897  1.0000
  O   O5        1.0  0.3398984372615814  0.28020498156547546  0.10361552238464355  1.0000
  O   O6        1.0  0.8345286250114441  0.39560666680336  0.2551735043525696  1.0000
  O   O7        1.0  0.330135703086853  0.43878617882728577  0.997115433216095  1.0000
  O   O8        1.0  0.3353019058704376  0.00937094260007143  0.7554277181625366  1.0000
  O   O9        1.0  0.8418729901313782  0.8339523673057556  0.11885272711515427  1.0000
