data_image0
_chemical_formula_structural       Ba4GeI2O7
_chemical_formula_sum              "Ba4 Ge1 I2 O7"
_cell_length_a       4.497953683138913
_cell_length_b       3.877275823201574
_cell_length_c       15.47232723236084
_cell_angle_alpha    98.54961338250705
_cell_angle_beta     98.0305929416029
_cell_angle_gamma    97.1274252366914

_space_group_name_H-M_alt    "P 1"
_space_group_IT_number       1

loop_
  _space_group_symop_operation_xyz
  'x, y, z'

loop_
  _atom_site_type_symbol
  _atom_site_label
  _atom_site_symmetry_multiplicity
  _atom_site_fract_x
  _atom_site_fract_y
  _atom_site_fract_z
  _atom_site_occupancy
  Ba  Ba1       1.0  0.8763298988342285  0.9282512068748475  0.03161761909723282  1.0000
  Ba  Ba2       1.0  0.11793309450149536  0.7332397103309632  0.39303591847419733  1.0000
  Ba  Ba3       1.0  0.43754416704177856  0.2546469271183014  0.4662423431873321  1.0000
  Ba  Ba4       1.0  0.37595248222351074  0.19537660479545596  0.6007101535797119  1.0000
  Ge  Ge1       1.0  0.8635663390159607  0.964808762073517  0.5164681673049927  1.0000
  I   I1        1.0  0.3381802439689636  0.6241995692253114  0.5540090203285217  1.0000
  I   I2        1.0  0.8770147562026978  0.020009070634841922  0.5494735836982727  1.0000
  O   O1        1.0  0.24367588758468628  0.9043460488319398  0.4630013704299926  1.0000
  O   O2        1.0  0.8661699295043945  0.219284862279892  0.3044130504131317  1.0000
  O   O3        1.0  0.7349369525909424  0.2588987648487091  0.5685123205184937  1.0000
  O   O4        1.0  0.018811631947755824  0.770607888698578  0.39101183414459223  1.0000
  O   O5        1.0  0.4427770674228668  0.5733427405357361  0.792287766933441  1.0000
  O   O6        1.0  0.8688010573387146  0.9614248275756837  0.2640261948108673  1.0000
  O   O7        1.0  0.4596543610095978  0.5499646663665771  0.6218019127845764  1.0000
