data_image0
_chemical_formula_structural       CINdP2PdPt4Sc
_chemical_formula_sum              "C1 I1 Nd1 P2 Pd1 Pt4 Sc1"
_cell_length_a       6.660050702329237
_cell_length_b       7.257680623755992
_cell_length_c       7.589728355407715
_cell_angle_alpha    121.8610184982893
_cell_angle_beta     90.01748656917029
_cell_angle_gamma    90.47055014685608

_space_group_name_H-M_alt    "P 1"
_space_group_IT_number       1

loop_
  _space_group_symop_operation_xyz
  'x, y, z'

loop_
  _atom_site_type_symbol
  _atom_site_label
  _atom_site_symmetry_multiplicity
  _atom_site_fract_x
  _atom_site_fract_y
  _atom_site_fract_z
  _atom_site_occupancy
  C   C1        1.0  0.7040898203849792  0.5642208456993103  0.44328746199607844  1.0000
  I   I1        1.0  0.2058132439851761  0.25543123483657837  0.10122765600681304  1.0000
  Nd  Nd1       1.0  0.705279529094696  0.35002341866493225  0.4100591838359832  1.0000
  P   P1        1.0  0.715335488319397  0.8616993427276611  0.8048471212387084  1.0000
  P   P2        1.0  0.7063411474227905  0.19427910447120667  0.5141892433166504  1.0000
  Pd  Pd1       1.0  0.20599786937236786  0.36798641085624695  0.9071378707885741  1.0000
  Pt  Pt1       1.0  0.7083045840263367  0.3141494691371918  0.9953665137290953  1.0000
  Pt  Pt2       1.0  0.2062896192073822  0.1713188886642456  0.22176241874694821  1.0000
  Pt  Pt3       1.0  0.205163836479187  0.04985753819346428  0.862611413002014  1.0000
  Pt  Pt4       1.0  0.7059149146080017  0.0757720023393631  0.8645877838134765  1.0000
  Sc  Sc1       1.0  0.706734836101532  0.05881746485829353  0.7496187686920165  1.0000
