data_image0
_chemical_formula_structural       CeCoIPPd2Pt2SSnTi
_chemical_formula_sum              "Ce1 Co1 I1 P1 Pd2 Pt2 S1 Sn1 Ti1"
_cell_length_a       5.532513139202227
_cell_length_b       7.021268739108261
_cell_length_c       7.1273417472839355
_cell_angle_alpha    118.79825137912468
_cell_angle_beta     91.13239510056799
_cell_angle_gamma    90.28743661884258

_space_group_name_H-M_alt    "P 1"
_space_group_IT_number       1

loop_
  _space_group_symop_operation_xyz
  'x, y, z'

loop_
  _atom_site_type_symbol
  _atom_site_label
  _atom_site_symmetry_multiplicity
  _atom_site_fract_x
  _atom_site_fract_y
  _atom_site_fract_z
  _atom_site_occupancy
  Ce  Ce1       1.0  0.33494576811790466  0.7143921852111816  0.8010777831077577  1.0000
  Co  Co1       1.0  0.33235880732536316  0.4728725552558899  0.7818918824195863  1.0000
  I   I1        1.0  0.8357018828392029  0.9110676050186157  0.04654761031270028  1.0000
  P   P1        1.0  0.8290755748748779  0.08130679279565811  0.5221617221832275  1.0000
  Pd  Pd1       1.0  0.841456949710846  0.4641801416873932  0.36777433753013616  1.0000
  Pd  Pd2       1.0  0.8399260640144348  0.9096237421035767  0.16230536997318276  1.0000
  Pt  Pt1       1.0  0.3259105086326599  0.634975254535675  0.26121631264686596  1.0000
  Pt  Pt2       1.0  0.34125882387161255  0.8845674395561218  0.6003748178482057  1.0000
  S   S1        1.0  0.34550127387046814  0.7496063113212585  0.32881811261177074  1.0000
  Sn  Sn1       1.0  0.3289191424846649  0.07337009161710739  0.11110879480838777  1.0000
  Ti  Ti1       1.0  0.3431167006492615  0.9766466021537781  0.9448975920677186  1.0000
