data_image0
_chemical_formula_structural       NdPPdPrSc4SnZnZr
_chemical_formula_sum              "Nd1 P1 Pd1 Pr1 Sc4 Sn1 Zn1 Zr1"
_cell_length_a       5.937809496760086
_cell_length_b       6.109785307658438
_cell_length_c       7.776327133178711
_cell_angle_alpha    90.58223832613373
_cell_angle_beta     90.91793296934611
_cell_angle_gamma    109.52923690742522

_space_group_name_H-M_alt    "P 1"
_space_group_IT_number       1

loop_
  _space_group_symop_operation_xyz
  'x, y, z'

loop_
  _atom_site_type_symbol
  _atom_site_label
  _atom_site_symmetry_multiplicity
  _atom_site_fract_x
  _atom_site_fract_y
  _atom_site_fract_z
  _atom_site_occupancy
  Nd  Nd1       1.0  0.04545712098479271  0.5419632196426392  0.882063627243042  1.0000
  P   P1        1.0  0.94346284866333  0.3331567347049713  0.525102972984314  1.0000
  Pd  Pd1       1.0  0.039589256048202515  0.006712480448186397  0.0027368932496756315  1.0000
  Pr  Pr1       1.0  0.4993440210819244  0.9146938323974608  0.3973279595375061  1.0000
  Sc  Sc1       1.0  0.5460481643676758  0.18718822300434113  0.8316453099250793  1.0000
  Sc  Sc2       1.0  0.03861184045672415  0.22854541242122647  0.3382146954536438  1.0000
  Sc  Sc3       1.0  0.43948879837989807  0.37085551023483276  0.22517430782318115  1.0000
  Sc  Sc4       1.0  0.44715091586112976  0.46830171346664423  0.9633042812347412  1.0000
  Sn  Sn1       1.0  0.019907113164663315  0.3897342383861542  0.302663117647171  1.0000
  Zn  Zn1       1.0  0.9321279525756836  0.330660343170166  0.49877792596817017  1.0000
  Zr  Zr1       1.0  0.07566940784454346  0.7955835461616516  0.6833492517471313  1.0000
