data_image0
_chemical_formula_structural       Cu2Nd4Sn5
_chemical_formula_sum              "Cu2 Nd4 Sn5"
_cell_length_a       6.782156257981749
_cell_length_b       6.9315891420777
_cell_length_c       6.502284049987793
_cell_angle_alpha    104.7907906767179
_cell_angle_beta     90.36749170999865
_cell_angle_gamma    90.95263048248235

_space_group_name_H-M_alt    "P 1"
_space_group_IT_number       1

loop_
  _space_group_symop_operation_xyz
  'x, y, z'

loop_
  _atom_site_type_symbol
  _atom_site_label
  _atom_site_symmetry_multiplicity
  _atom_site_fract_x
  _atom_site_fract_y
  _atom_site_fract_z
  _atom_site_occupancy
  Cu  Cu1       1.0  0.8100711107254028  0.5484158992767334  0.7647549510002136  1.0000
  Cu  Cu2       1.0  0.3089005947113037  0.5971991419792175  0.38058269023895264  1.0000
  Nd  Nd1       1.0  0.30727165937423706  0.292511522769928  0.27628234028816223  1.0000
  Nd  Nd2       1.0  0.816672682762146  0.8592411875724792  0.22455216944217685  1.0000
  Nd  Nd3       1.0  0.8094779849052429  0.674708902835846  0.6855863928794861  1.0000
  Nd  Nd4       1.0  0.3083564341068268  0.09712941199541092  0.9442074894905091  1.0000
  Sn  Sn1       1.0  0.3075827956199646  0.706254243850708  0.796133816242218  1.0000
  Sn  Sn2       1.0  0.8086513876914978  0.11952359229326248  0.9941362738609315  1.0000
  Sn  Sn3       1.0  0.572469174861908  0.24706438183784485  0.5536414980888367  1.0000
  Sn  Sn4       1.0  0.3072250187397003  0.21591004729270935  0.8447352647781373  1.0000
  Sn  Sn5       1.0  0.8076589703559875  0.29153841733932495  0.8694143891334535  1.0000
