data_image0
_chemical_formula_structural       FNNd2PPdSn3Zr2
_chemical_formula_sum              "F1 N1 Nd2 P1 Pd1 Sn3 Zr2"
_cell_length_a       5.730230813502507
_cell_length_b       6.409484797079744
_cell_length_c       7.041024684906006
_cell_angle_alpha    122.36285270088942
_cell_angle_beta     87.77931135683882
_cell_angle_gamma    89.41790819420436

_space_group_name_H-M_alt    "P 1"
_space_group_IT_number       1

loop_
  _space_group_symop_operation_xyz
  'x, y, z'

loop_
  _atom_site_type_symbol
  _atom_site_label
  _atom_site_symmetry_multiplicity
  _atom_site_fract_x
  _atom_site_fract_y
  _atom_site_fract_z
  _atom_site_occupancy
  F   F1        1.0  0.9763484597206116  0.3512991666793823  0.5284886956214905  1.0000
  N   N1        1.0  0.9834386706352234  0.5904595851898193  0.5362792015075684  1.0000
  Nd  Nd1       1.0  0.225790336728096  0.05920872092247009  0.31170618534088135  1.0000
  Nd  Nd2       1.0  0.48422539234161377  0.6842283010482788  0.5414546728134155  1.0000
  P   P1        1.0  0.22620350122451782  0.42610228061676025  0.5613270998001099  1.0000
  Pd  Pd1       1.0  0.48373469710350037  0.6524918675422668  0.38991829752922047  1.0000
  Sn  Sn1       1.0  0.5018045902252197  0.7793359160423279  0.2986140251159667  1.0000
  Sn  Sn2       1.0  0.22414250671863556  0.4846842586994171  0.7073933482170104  1.0000
  Sn  Sn3       1.0  0.7259514927864075  0.5093774199485779  0.26593157649040217  1.0000
  Zr  Zr1       1.0  0.7304924726486206  0.49997878074645996  0.8958244919776915  1.0000
  Zr  Zr2       1.0  0.21502944827079773  0.934185266494751  0.7901021242141723  1.0000
