data_image0
_chemical_formula_structural       Cu2Nd4Sn5
_chemical_formula_sum              "Cu2 Nd4 Sn5"
_cell_length_a       6.635948052137535
_cell_length_b       6.57061435663681
_cell_length_c       6.76231050491333
_cell_angle_alpha    105.20874055546281
_cell_angle_beta     89.51347262357177
_cell_angle_gamma    90.8752996309316

_space_group_name_H-M_alt    "P 1"
_space_group_IT_number       1

loop_
  _space_group_symop_operation_xyz
  'x, y, z'

loop_
  _atom_site_type_symbol
  _atom_site_label
  _atom_site_symmetry_multiplicity
  _atom_site_fract_x
  _atom_site_fract_y
  _atom_site_fract_z
  _atom_site_occupancy
  Cu  Cu1       1.0  0.16350224614143372  0.9693462252616882  0.6689313054084778  1.0000
  Cu  Cu2       1.0  0.8483586311340332  0.0153203085064888  0.5557392239570618  1.0000
  Nd  Nd1       1.0  0.1627410352230072  0.3637402057647705  0.6573601961135864  1.0000
  Nd  Nd2       1.0  0.626379132270813  0.4854933023452759  0.18728837370872498  1.0000
  Nd  Nd3       1.0  0.1584310531616211  0.6905240416526794  0.4700410962104798  1.0000
  Nd  Nd4       1.0  0.6833820343017578  0.8293405175209045  0.5736746788024902  1.0000
  Sn  Sn1       1.0  0.6648996472358704  0.9741177558898926  0.395080029964447  1.0000
  Sn  Sn2       1.0  0.33198103308677673  0.9691824316978455  0.058307614177465474  1.0000
  Sn  Sn3       1.0  0.6544734239578247  0.34966057538986206  0.3676096498966217  1.0000
  Sn  Sn4       1.0  0.8379883766174316  0.06260111182928085  0.05386917293071747  1.0000
  Sn  Sn5       1.0  0.3483704626560211  0.6096664667129517  0.3696309030056  1.0000
