data_image0
_chemical_formula_structural       AlB3NaO7Se
_chemical_formula_sum              "Al1 B3 Na1 O7 Se1"
_cell_length_a       4.964985486274278
_cell_length_b       5.279610796554494
_cell_length_c       5.507805824279785
_cell_angle_alpha    72.35763708965041
_cell_angle_beta     60.69775814407519
_cell_angle_gamma    63.504098617067484

_space_group_name_H-M_alt    "P 1"
_space_group_IT_number       1

loop_
  _space_group_symop_operation_xyz
  'x, y, z'

loop_
  _atom_site_type_symbol
  _atom_site_label
  _atom_site_symmetry_multiplicity
  _atom_site_fract_x
  _atom_site_fract_y
  _atom_site_fract_z
  _atom_site_occupancy
  Al  Al1       1.0  0.5892033576965332  0.44273635745048523  0.29705700278282166  1.0000
  B   B1        1.0  0.7984123229980469  0.4001791477203369  0.27714353799819946  1.0000
  B   B2        1.0  0.365245521068573  0.04783262312412262  0.7151599526405334  1.0000
  B   B3        1.0  0.0636443942785263  0.2386379837989807  0.13101181387901306  1.0000
  Na  Na1       1.0  0.022954940795898438  0.6154745221138  0.9712374210357666  1.0000
  O   O1        1.0  0.10628914088010788  0.20418505370616913  0.5103077292442322  1.0000
  O   O2        1.0  0.8871052265167236  0.7857013940811157  0.7935715317726135  1.0000
  O   O3        1.0  0.5569449663162231  0.7535865902900696  0.5226605534553528  1.0000
  O   O4        1.0  0.5688418745994568  0.9114259481430054  0.016145218163728714  1.0000
  O   O5        1.0  0.22316764295101166  0.8822112083435059  0.8776269555091858  1.0000
  O   O6        1.0  0.25090503692626953  0.5337388515472412  0.27660319209098816  1.0000
  O   O7        1.0  0.5784493684768677  0.0740036889910698  0.115877166390419  1.0000
  Se  Se1       1.0  0.3605085015296936  0.48327165842056274  0.63443922996521  1.0000
