data_image0
_chemical_formula_structural       B4Na2O7
_chemical_formula_sum              "B4 Na2 O7"
_cell_length_a       5.325629165833091
_cell_length_b       5.303622928677476
_cell_length_c       5.859249114990234
_cell_angle_alpha    81.05110683241234
_cell_angle_beta     66.23503665157519
_cell_angle_gamma    58.580306156844024

_space_group_name_H-M_alt    "P 1"
_space_group_IT_number       1

loop_
  _space_group_symop_operation_xyz
  'x, y, z'

loop_
  _atom_site_type_symbol
  _atom_site_label
  _atom_site_symmetry_multiplicity
  _atom_site_fract_x
  _atom_site_fract_y
  _atom_site_fract_z
  _atom_site_occupancy
  B   B1        1.0  0.3338654041290283  0.5769572854042053  0.1336905062198639  1.0000
  B   B2        1.0  0.45888039469718933  0.9181143045425415  0.8577703833580017  1.0000
  B   B3        1.0  0.988114595413208  0.3364980220794678  0.8917076587677002  1.0000
  B   B4        1.0  0.46662405133247375  0.43041661381721497  0.7330831289291382  1.0000
  Na  Na1       1.0  0.4068922996520996  0.23742730915546417  0.35636773705482483  1.0000
  Na  Na2       1.0  0.7324824929237366  0.8993027806282043  0.5135581493377686  1.0000
  O   O1        1.0  0.7891070246696472  0.18006682395935059  0.5074694752693176  1.0000
  O   O2        1.0  0.2224263995885849  0.6612194776535034  0.5232484936714172  1.0000
  O   O3        1.0  0.9294313788414001  0.1800135225057602  0.33732491731643677  1.0000
  O   O4        1.0  0.7007139325141907  0.5170519948005676  0.5212433338165283  1.0000
  O   O5        1.0  0.6862093210220337  0.6900262832641602  0.3424418866634369  1.0000
  O   O6        1.0  0.41143175959587097  0.18848851323127747  0.8524335622787476  1.0000
  O   O7        1.0  0.9897661805152893  0.9017465710639954  0.9703801870346069  1.0000
