data_image0
_chemical_formula_structural       B5Na3O5
_chemical_formula_sum              "B5 Na3 O5"
_cell_length_a       5.273973923314702
_cell_length_b       5.743168213391431
_cell_length_c       5.3013811111450195
_cell_angle_alpha    124.31942316903614
_cell_angle_beta     90.8287372787659
_cell_angle_gamma    88.92944793737118

_space_group_name_H-M_alt    "P 1"
_space_group_IT_number       1

loop_
  _space_group_symop_operation_xyz
  'x, y, z'

loop_
  _atom_site_type_symbol
  _atom_site_label
  _atom_site_symmetry_multiplicity
  _atom_site_fract_x
  _atom_site_fract_y
  _atom_site_fract_z
  _atom_site_occupancy
  B   B1        1.0  0.651765763759613  0.5890979766845703  0.23591101169586182  1.0000
  B   B2        1.0  0.6916956305503845  0.7871785759925842  0.9399116635322571  1.0000
  B   B3        1.0  0.6711979508399963  0.3274051547050476  0.2384544461965561  1.0000
  B   B4        1.0  0.9184608459472656  0.7698754668235779  0.9971162676811218  1.0000
  B   B5        1.0  0.18271103501319885  0.08665398508310318  0.4259083867073059  1.0000
  Na  Na1       1.0  0.17168888449668884  0.06660649925470352  0.6184368729591371  1.0000
  Na  Na2       1.0  0.17064125835895538  0.02586045116186142  0.13370157778263092  1.0000
  Na  Na3       1.0  0.1629222333431244  0.01804175227880478  0.7578957676887512  1.0000
  O   O1        1.0  0.15109094977378845  0.6628158092498779  0.3156456053256989  1.0000
  O   O2        1.0  0.6579461693763733  0.6954904198646545  0.5143123269081116  1.0000
  O   O3        1.0  0.16048529744148254  0.23911772668361664  0.9836958050727844  1.0000
  O   O4        1.0  0.6294617652893066  0.35592085123062134  0.4454821050167084  1.0000
  O   O5        1.0  0.16046437621116638  0.7943371534347534  0.3521291911602021  1.0000
