data_image0
_chemical_formula_structural       B4NbO6PSe
_chemical_formula_sum              "B4 Nb1 O6 P1 Se1"
_cell_length_a       5.614089550264046
_cell_length_b       5.803421183980209
_cell_length_c       5.875419616699219
_cell_angle_alpha    67.40877202701526
_cell_angle_beta     56.99601450461312
_cell_angle_gamma    59.090086895087666

_space_group_name_H-M_alt    "P 1"
_space_group_IT_number       1

loop_
  _space_group_symop_operation_xyz
  'x, y, z'

loop_
  _atom_site_type_symbol
  _atom_site_label
  _atom_site_symmetry_multiplicity
  _atom_site_fract_x
  _atom_site_fract_y
  _atom_site_fract_z
  _atom_site_occupancy
  B   B1        1.0  0.9192929863929749  0.34466198086738586  0.2512743473052978  1.0000
  B   B2        1.0  0.49457257986068726  0.9450761079788208  0.7623713612556458  1.0000
  B   B3        1.0  0.8189663290977478  0.08364100009202957  0.5257361531257629  1.0000
  B   B4        1.0  0.29626333713531494  0.8675143122673035  0.35032981634140015  1.0000
  Nb  Nb1       1.0  0.22970134019851685  0.3016675114631653  0.8302281498908997  1.0000
  O   O1        1.0  0.9183197021484375  0.06083697825670242  0.4322390854358673  1.0000
  O   O2        1.0  0.5415531992912292  0.022999363020062447  0.6154316663742065  1.0000
  O   O3        1.0  0.4134696424007416  0.5272012948989868  0.8773882389068604  1.0000
  O   O4        1.0  0.11015280336141586  0.5870782136917114  0.8893063068389893  1.0000
  O   O5        1.0  0.01866893842816353  0.0494990311563015  0.12013452500104904  1.0000
  O   O6        1.0  0.4142855405807495  0.5613988041877747  0.6722248196601868  1.0000
  P   P1        1.0  0.8189955353736877  0.4549747407436371  0.7734930515289307  1.0000
  Se  Se1       1.0  0.3080563247203827  0.40900954604148865  0.09515732526779175  1.0000
