data_image0
_chemical_formula_structural       B5NaO7
_chemical_formula_sum              "B5 Na1 O7"
_cell_length_a       5.074314836712458
_cell_length_b       5.2766212529468355
_cell_length_c       5.332372188568115
_cell_angle_alpha    66.6563663086518
_cell_angle_beta     59.92795082946606
_cell_angle_gamma    54.7717494282268

_space_group_name_H-M_alt    "P 1"
_space_group_IT_number       1

loop_
  _space_group_symop_operation_xyz
  'x, y, z'

loop_
  _atom_site_type_symbol
  _atom_site_label
  _atom_site_symmetry_multiplicity
  _atom_site_fract_x
  _atom_site_fract_y
  _atom_site_fract_z
  _atom_site_occupancy
  B   B1        1.0  0.2616722583770752  0.4330542981624603  0.27366507053375244  1.0000
  B   B2        1.0  0.5955206155776978  0.03313930705189705  0.06755085289478302  1.0000
  B   B3        1.0  0.7169647216796875  0.6715739369392395  0.2881816625595092  1.0000
  B   B4        1.0  0.20625345408916473  0.6838844418525696  0.5610053539276123  1.0000
  B   B5        1.0  0.3794303834438324  0.9326778054237366  0.7625776529312134  1.0000
  Na  Na1       1.0  0.8568268418312073  0.5187612771987915  0.5023877620697021  1.0000
  O   O1        1.0  0.5203460454940796  0.5020033121109009  0.7956706285476685  1.0000
  O   O2        1.0  0.506718635559082  0.6400924324989319  0.6516413688659668  1.0000
  O   O3        1.0  0.10861239582300186  0.7237550616264343  0.1053716391324997  1.0000
  O   O4        1.0  0.11727438122034073  0.3333829343318939  0.7930827736854553  1.0000
  O   O5        1.0  0.8549050092697144  0.003283329540863633  0.5286945700645447  1.0000
  O   O6        1.0  0.8211029171943665  0.9449850916862488  0.24981281161308289  1.0000
  O   O7        1.0  0.8597590327262878  0.2824271619319916  0.546238362789154  1.0000
