data_image0
_chemical_formula_structural       B5Na2O5Se
_chemical_formula_sum              "B5 Na2 O5 Se1"
_cell_length_a       5.243875117194893
_cell_length_b       5.262076211450773
_cell_length_c       4.8139729499816895
_cell_angle_alpha    122.5101338940864
_cell_angle_beta     88.05755825494685
_cell_angle_gamma    89.620504991244

_space_group_name_H-M_alt    "P 1"
_space_group_IT_number       1

loop_
  _space_group_symop_operation_xyz
  'x, y, z'

loop_
  _atom_site_type_symbol
  _atom_site_label
  _atom_site_symmetry_multiplicity
  _atom_site_fract_x
  _atom_site_fract_y
  _atom_site_fract_z
  _atom_site_occupancy
  B   B1        1.0  0.28642603754997253  0.6986796259880066  0.9863942861557007  1.0000
  B   B2        1.0  0.7600074410438538  0.18375173211097717  0.6446663737297058  1.0000
  B   B3        1.0  0.012996083125472069  0.755673348903656  0.2000424712896347  1.0000
  B   B4        1.0  0.2799217998981476  0.9536867737770081  0.32799896597862255  1.0000
  B   B5        1.0  0.017026610672473907  0.7548117637634277  0.9386771321296692  1.0000
  Na  Na1       1.0  0.7748507857322693  0.9761829376220703  0.33222177624702465  1.0000
  Na  Na2       1.0  0.2800300717353821  0.2051759511232376  0.6760727763175964  1.0000
  O   O1        1.0  0.27670636773109436  0.26208266615867615  0.4794401526451111  1.0000
  O   O2        1.0  0.7835444808006287  0.2525571584701538  0.05478424206376076  1.0000
  O   O3        1.0  0.054374657571315765  0.29174500703811646  0.8377707004547119  1.0000
  O   O4        1.0  0.5630295872688293  0.9592517018318176  0.6606134176254274  1.0000
  O   O5        1.0  0.747626006603241  0.9527527689933777  0.4835813641548157  1.0000
  Se  Se1       1.0  0.775886058807373  0.6942121386528015  0.34835559129714966  1.0000
