data_image0
_chemical_formula_structural       F2K3Lu3Y
_chemical_formula_sum              "F2 K3 Lu3 Y1"
_cell_length_a       5.7777291386719325
_cell_length_b       6.331862820237335
_cell_length_c       6.724018573760986
_cell_angle_alpha    110.08385559113128
_cell_angle_beta     103.66328023216202
_cell_angle_gamma    113.85272618720123

_space_group_name_H-M_alt    "P 1"
_space_group_IT_number       1

loop_
  _space_group_symop_operation_xyz
  'x, y, z'

loop_
  _atom_site_type_symbol
  _atom_site_label
  _atom_site_symmetry_multiplicity
  _atom_site_fract_x
  _atom_site_fract_y
  _atom_site_fract_z
  _atom_site_occupancy
  F   F1        1.0  0.766826331615448  0.09420748054981232  0.62220698595047  1.0000
  F   F2        1.0  0.02101799100637436  0.8139036893844604  0.9300307631492614  1.0000
  K   K1        1.0  0.5362196564674377  0.6515718698501587  0.6976380944252014  1.0000
  K   K2        1.0  0.8067173361778259  0.4044787883758545  0.10366724431514739  1.0000
  K   K3        1.0  0.04227399826049805  0.24429696798324585  0.42515316605567927  1.0000
  Lu  Lu1       1.0  0.3312578797340393  0.49186643958091736  0.15350502729415894  1.0000
  Lu  Lu2       1.0  0.2509916126728058  0.10346093773841858  0.6504345536231995  1.0000
  Lu  Lu3       1.0  0.5299183130264282  0.03502889722585678  0.44443106651306147  1.0000
  Y   Y1        1.0  0.2850610911846161  0.7548980116844177  0.16372880339622498  1.0000
