data_image0
_chemical_formula_structural       F2K4Lu2V
_chemical_formula_sum              "F2 K4 Lu2 V1"
_cell_length_a       6.005629483430372
_cell_length_b       6.0710119494863655
_cell_length_c       6.272519111633301
_cell_angle_alpha    63.055473549242414
_cell_angle_beta     63.2756544573152
_cell_angle_gamma    62.51934900042869

_space_group_name_H-M_alt    "P 1"
_space_group_IT_number       1

loop_
  _space_group_symop_operation_xyz
  'x, y, z'

loop_
  _atom_site_type_symbol
  _atom_site_label
  _atom_site_symmetry_multiplicity
  _atom_site_fract_x
  _atom_site_fract_y
  _atom_site_fract_z
  _atom_site_occupancy
  F   F1        1.0  0.39570701122283936  0.21661299467086792  0.6594275236129761  1.0000
  F   F2        1.0  0.19238103926181793  0.978917121887207  0.9488439559936523  1.0000
  K   K1        1.0  0.04597510024905205  0.7227402925491333  0.442654550075531  1.0000
  K   K2        1.0  0.5773137211799622  0.7200298309326172  0.939346432685852  1.0000
  K   K3        1.0  0.8566837310791016  0.7141154408454895  0.6828909516334534  1.0000
  K   K4        1.0  0.18233418464660645  0.9675394296646118  0.9396941661834717  1.0000
  Lu  Lu1       1.0  0.16816124320030212  0.41346535086631775  0.2959500849246979  1.0000
  Lu  Lu2       1.0  0.69011390209198  0.4856205880641937  0.4485546946525574  1.0000
  V   V1        1.0  0.4309064745903015  0.2281932681798935  0.38494640588760376  1.0000
