data_image0
_chemical_formula_structural       Cu3F3K2Lu
_chemical_formula_sum              "Cu3 F3 K2 Lu1"
_cell_length_a       5.024568350284204
_cell_length_b       5.3212208548599165
_cell_length_c       7.692167282104492
_cell_angle_alpha    92.59807805778077
_cell_angle_beta     89.774562933521
_cell_angle_gamma    121.41493856613936

_space_group_name_H-M_alt    "P 1"
_space_group_IT_number       1

loop_
  _space_group_symop_operation_xyz
  'x, y, z'

loop_
  _atom_site_type_symbol
  _atom_site_label
  _atom_site_symmetry_multiplicity
  _atom_site_fract_x
  _atom_site_fract_y
  _atom_site_fract_z
  _atom_site_occupancy
  Cu  Cu1       1.0  0.1485544592142105  0.5360714793205261  0.9959349632263185  1.0000
  Cu  Cu2       1.0  0.8009818196296692  0.21459299325942993  0.6360219120979309  1.0000
  Cu  Cu3       1.0  0.49795955419540405  0.30458176136016846  0.3893262445926667  1.0000
  F   F1        1.0  0.15263663232326508  0.8392541408538818  0.29910898208618164  1.0000
  F   F2        1.0  0.8067045211791992  0.1711200624704361  0.6215581297874451  1.0000
  F   F3        1.0  0.16492128372192383  0.3186222314834595  0.09620575606822968  1.0000
  K   K1        1.0  0.7917936444282532  0.19907020032405853  0.12719698250293732  1.0000
  K   K2        1.0  0.46594512462615967  0.8280413746833801  0.11779821664094926  1.0000
  Lu  Lu1       1.0  0.8050438761711121  0.5466005802154541  0.19911864399909976  1.0000
