data_image0
_chemical_formula_structural       DyGa2HfMn5NiZn2
_chemical_formula_sum              "Dy1 Ga2 Hf1 Mn5 Ni1 Zn2"
_cell_length_a       6.660054112124632
_cell_length_b       6.843118686734125
_cell_length_c       6.93919038772583
_cell_angle_alpha    107.71580133366481
_cell_angle_beta     109.70338722716038
_cell_angle_gamma    112.64258005023623

_space_group_name_H-M_alt    "P 1"
_space_group_IT_number       1

loop_
  _space_group_symop_operation_xyz
  'x, y, z'

loop_
  _atom_site_type_symbol
  _atom_site_label
  _atom_site_symmetry_multiplicity
  _atom_site_fract_x
  _atom_site_fract_y
  _atom_site_fract_z
  _atom_site_occupancy
  Dy  Dy1       1.0  0.5960738062858582  0.09315624833106995  0.15076477825641632  1.0000
  Ga  Ga1       1.0  0.6175134778022766  0.43561604619026184  0.3805757462978363  1.0000
  Ga  Ga2       1.0  0.360392302274704  0.48229011893272394  0.8320157527923584  1.0000
  Hf  Hf1       1.0  0.20309798419475547  0.9473509192466735  0.8447761535644531  1.0000
  Mn  Mn1       1.0  0.14966566860675812  0.08489571511745453  0.38991934061050415  1.0000
  Mn  Mn2       1.0  0.963640034198761  0.43577197194099426  0.15607112646102905  1.0000
  Mn  Mn3       1.0  0.9497607946395874  0.10276518762111664  0.8905019164085388  1.0000
  Mn  Mn4       1.0  0.43550461530685425  0.0890984758734703  0.38359323143959045  1.0000
  Mn  Mn5       1.0  0.604382336139679  0.6128758788108826  0.5301949977874755  1.0000
  Ni  Ni1       1.0  0.859499454498291  0.5143375396728516  0.7995045185089111  1.0000
  Zn  Zn1       1.0  0.449082612991333  0.7387816905975342  0.02088826149702066  1.0000
  Zn  Zn2       1.0  0.9205170273780823  0.5758144855499268  0.22271457314491272  1.0000
