data_image0
_chemical_formula_structural       DyFeGaGd2MgMn5Zn
_chemical_formula_sum              "Dy1 Fe1 Ga1 Gd2 Mg1 Mn5 Zn1"
_cell_length_a       6.852611852524488
_cell_length_b       6.908532321221404
_cell_length_c       6.919125556945801
_cell_angle_alpha    109.5475365834721
_cell_angle_beta     110.37707869276618
_cell_angle_gamma    110.07715079724373

_space_group_name_H-M_alt    "P 1"
_space_group_IT_number       1

loop_
  _space_group_symop_operation_xyz
  'x, y, z'

loop_
  _atom_site_type_symbol
  _atom_site_label
  _atom_site_symmetry_multiplicity
  _atom_site_fract_x
  _atom_site_fract_y
  _atom_site_fract_z
  _atom_site_occupancy
  Dy  Dy1       1.0  0.8335954546928406  0.3686811327934265  0.3458877801895141  1.0000
  Fe  Fe1       1.0  0.5005950331687927  0.06905265897512436  0.11579948663711546  1.0000
  Ga  Ga1       1.0  0.3432842791080475  0.36861515045166016  0.6290175318717957  1.0000
  Gd  Gd1       1.0  0.4852496385574341  0.07003705948591232  0.8386452198028563  1.0000
  Gd  Gd2       1.0  0.20372718572616577  0.08428431302309036  0.11016947776079176  1.0000
  Mg  Mg1       1.0  0.4837009608745575  0.5716667175292969  0.6138853430747986  1.0000
  Mn  Mn1       1.0  0.8399019837379456  0.36849716305732727  0.6406788229942322  1.0000
  Mn  Mn2       1.0  0.49032583832740784  0.5806583166122437  0.843038499355316  1.0000
  Mn  Mn3       1.0  0.12665285170078278  0.6211397647857666  0.3445186614990234  1.0000
  Mn  Mn4       1.0  0.9538437128067017  0.07949983328580856  0.425587147474289  1.0000
  Mn  Mn5       1.0  0.10471303015947342  0.7216822504997253  0.8551529049873351  1.0000
  Zn  Zn1       1.0  0.8825567364692688  0.0918952077627182  0.16485366225242615  1.0000
