data_image0
_chemical_formula_structural       AlDyFe2Ga3Mn3Zn2
_chemical_formula_sum              "Al1 Dy1 Fe2 Ga3 Mn3 Zn2"
_cell_length_a       6.5038031905129
_cell_length_b       6.362776759697816
_cell_length_c       6.48206090927124
_cell_angle_alpha    107.10546701768102
_cell_angle_beta     108.96703744743665
_cell_angle_gamma    111.75330827126592

_space_group_name_H-M_alt    "P 1"
_space_group_IT_number       1

loop_
  _space_group_symop_operation_xyz
  'x, y, z'

loop_
  _atom_site_type_symbol
  _atom_site_label
  _atom_site_symmetry_multiplicity
  _atom_site_fract_x
  _atom_site_fract_y
  _atom_site_fract_z
  _atom_site_occupancy
  Al  Al1       1.0  0.8480888605117798  0.8118896484375  0.146229237318039  1.0000
  Dy  Dy1       1.0  0.6076321005821228  0.5859203934669495  0.004708170890808174  1.0000
  Fe  Fe1       1.0  0.06170293316245079  0.04555952921509743  0.9940388202667236  1.0000
  Fe  Fe2       1.0  0.5607183575630188  0.06325404345989227  0.5269405245780945  1.0000
  Ga  Ga1       1.0  0.25657910108566284  0.3281412422657013  0.06989873200654984  1.0000
  Ga  Ga2       1.0  0.29916539788246155  0.9293402433395386  0.7943183183670044  1.0000
  Ga  Ga3       1.0  0.8507002592086792  0.12019544839859009  0.6397739052772522  1.0000
  Mn  Mn1       1.0  0.5433695912361145  0.29607954621315  0.5006861686706543  1.0000
  Mn  Mn2       1.0  0.84794682264328  0.5508094429969788  0.16323919594287878  1.0000
  Mn  Mn3       1.0  0.22489187121391296  0.3183412253856659  0.7912570238113403  1.0000
  Zn  Zn1       1.0  0.24588735401630402  0.8108798265457153  0.37752327322959905  1.0000
  Zn  Zn2       1.0  0.8609496355056763  0.32516026496887207  0.37102472782135015  1.0000
