data_image0
_chemical_formula_structural       Fe2Ga7Mn3
_chemical_formula_sum              "Fe2 Ga7 Mn3"
_cell_length_a       5.548821305366887
_cell_length_b       7.3548370333117985
_cell_length_c       7.174487590789795
_cell_angle_alpha    130.34167047311348
_cell_angle_beta     90.10542304577041
_cell_angle_gamma    85.50999126045818

_space_group_name_H-M_alt    "P 1"
_space_group_IT_number       1

loop_
  _space_group_symop_operation_xyz
  'x, y, z'

loop_
  _atom_site_type_symbol
  _atom_site_label
  _atom_site_symmetry_multiplicity
  _atom_site_fract_x
  _atom_site_fract_y
  _atom_site_fract_z
  _atom_site_occupancy
  Fe  Fe1       1.0  0.021123455837368965  0.06992427259683609  0.8677038550376892  1.0000
  Fe  Fe2       1.0  0.9724948406219482  0.5650041699409485  0.36336433887481684  1.0000
  Ga  Ga1       1.0  0.033827710896730444  0.9429028630256652  0.4681619703769685  1.0000
  Ga  Ga2       1.0  0.5225416421890259  0.7696969509124756  0.3666637539863587  1.0000
  Ga  Ga3       1.0  0.5079340934753418  0.7341110706329346  0.36969584226608276  1.0000
  Ga  Ga4       1.0  0.414410799741745  0.21613703668117523  0.07690420746803284  1.0000
  Ga  Ga5       1.0  0.004943011794239283  0.054374679923057556  0.3610665798187256  1.0000
  Ga  Ga6       1.0  0.490276962518692  0.9858848452568053  0.17147359251976013  1.0000
  Ga  Ga7       1.0  0.489839643239975  0.30860400199890137  0.4616534411907196  1.0000
  Mn  Mn1       1.0  0.728655219078064  0.5783806443214417  0.024060461670160294  1.0000
  Mn  Mn2       1.0  0.727199375629425  0.46903154253959656  0.06698542088270187  1.0000
  Mn  Mn3       1.0  0.2160758376121521  0.3117201626300812  0.9493010640144348  1.0000
