data_image0
_chemical_formula_structural       Ga6Mn6
_chemical_formula_sum              "Ga6 Mn6"
_cell_length_a       6.32674438601588
_cell_length_b       6.2879202005079255
_cell_length_c       5.665672302246094
_cell_angle_alpha    117.14009739855295
_cell_angle_beta     113.46987236127536
_cell_angle_gamma    99.8996858163273

_space_group_name_H-M_alt    "P 1"
_space_group_IT_number       1

loop_
  _space_group_symop_operation_xyz
  'x, y, z'

loop_
  _atom_site_type_symbol
  _atom_site_label
  _atom_site_symmetry_multiplicity
  _atom_site_fract_x
  _atom_site_fract_y
  _atom_site_fract_z
  _atom_site_occupancy
  Ga  Ga1       1.0  0.0545290745794773  0.1674540638923645  0.011019843630492687  1.0000
  Ga  Ga2       1.0  0.5059828758239746  0.5894755125045776  0.9148802161216737  1.0000
  Ga  Ga3       1.0  0.5312299132347107  0.16172625124454498  0.5248290300369263  1.0000
  Ga  Ga4       1.0  0.9090930223464965  0.6623320579528809  0.8339854478836061  1.0000
  Ga  Ga5       1.0  0.4545153081417083  0.8085539937019348  0.8349860310554506  1.0000
  Ga  Ga6       1.0  0.1619395911693573  0.9378877878189087  0.6865005493164062  1.0000
  Mn  Mn1       1.0  0.27561143040657043  0.8512791991233826  0.3896847069263458  1.0000
  Mn  Mn2       1.0  0.8906014561653136  0.641919732093811  0.3238486051559448  1.0000
  Mn  Mn3       1.0  0.5343025326728821  0.8594428896903992  0.26517051458358765  1.0000
  Mn  Mn4       1.0  0.8736031055450438  0.13733237981796265  0.2596795856952667  1.0000
  Mn  Mn5       1.0  0.5331714153289795  0.36181002855300903  0.9452916383743287  1.0000
  Mn  Mn6       1.0  0.9489493370056151  0.08298105746507645  0.42047315835952753  1.0000
