data_image0
_chemical_formula_structural       Dy2FeGa4Gd2Mn3
_chemical_formula_sum              "Dy2 Fe1 Ga4 Gd2 Mn3"
_cell_length_a       5.673219208249659
_cell_length_b       7.171537306929277
_cell_length_c       7.134810447692871
_cell_angle_alpha    121.9898379852035
_cell_angle_beta     89.36616168575812
_cell_angle_gamma    90.94920824478844

_space_group_name_H-M_alt    "P 1"
_space_group_IT_number       1

loop_
  _space_group_symop_operation_xyz
  'x, y, z'

loop_
  _atom_site_type_symbol
  _atom_site_label
  _atom_site_symmetry_multiplicity
  _atom_site_fract_x
  _atom_site_fract_y
  _atom_site_fract_z
  _atom_site_occupancy
  Dy  Dy1       1.0  0.2199324518442154  0.1892174929380417  0.05230081453919411  1.0000
  Dy  Dy2       1.0  0.45732206106185913  0.5007907152175903  0.3228415548801422  1.0000
  Fe  Fe1       1.0  0.45065006613731384  0.43443921208381653  0.3031507730484009  1.0000
  Ga  Ga1       1.0  0.9631086587905884  0.9844310879707336  0.31004062294960016  1.0000
  Ga  Ga2       1.0  0.7181305885314941  0.17161691188812256  0.32429033517837524  1.0000
  Ga  Ga3       1.0  0.45269373059272766  0.36663758754730225  0.6029963493347168  1.0000
  Ga  Ga4       1.0  0.7602484822273254  0.7049086093902588  0.3450356125831604  1.0000
  Gd  Gd1       1.0  0.7339044213294983  0.9384636282920837  0.07407774776220322  1.0000
  Gd  Gd2       1.0  0.4461420178413391  0.3529738485813141  0.07504787296056747  1.0000
  Mn  Mn1       1.0  0.9746250510215759  0.6469178795814514  0.5919035077095032  1.0000
  Mn  Mn2       1.0  0.9655044078826904  0.9435577392578125  0.696657657623291  1.0000
  Mn  Mn3       1.0  0.4773581027984619  0.13442809879779816  0.6988381147384644  1.0000
