data_image0
_chemical_formula_structural       As2FI3Li7O
_chemical_formula_sum              "As2 F1 I3 Li7 O1"
_cell_length_a       4.532269647540777
_cell_length_b       6.818752716418419
_cell_length_c       7.91655969619751
_cell_angle_alpha    119.84159775924869
_cell_angle_beta     90.39279355258887
_cell_angle_gamma    90.22795716925259

_space_group_name_H-M_alt    "P 1"
_space_group_IT_number       1

loop_
  _space_group_symop_operation_xyz
  'x, y, z'

loop_
  _atom_site_type_symbol
  _atom_site_label
  _atom_site_symmetry_multiplicity
  _atom_site_fract_x
  _atom_site_fract_y
  _atom_site_fract_z
  _atom_site_occupancy
  As  As1       1.0  0.1525358259677887  0.18805591762065885  0.3606470823287964  1.0000
  As  As2       1.0  0.16524966061115265  0.15120911598205566  0.7308052778244019  1.0000
  F   F1        1.0  0.6473807692527771  0.1124519035220146  0.41148829460144043  1.0000
  I   I1        1.0  0.6629025340080261  0.6798822283744812  0.048321146517992075  1.0000
  I   I2        1.0  0.15688559412956238  0.49410963058471674  0.9444091320037843  1.0000
  I   I3        1.0  0.1481359601020813  0.37502175569534296  0.5451468229293823  1.0000
  Li  Li1       1.0  0.6608190536499022  0.8153658509254454  0.8736705183982849  1.0000
  Li  Li2       1.0  0.650465726852417  0.04212372377514839  0.07926005870103836  1.0000
  Li  Li3       1.0  0.6351884007453918  0.7413501739501952  0.8590337634086609  1.0000
  Li  Li4       1.0  0.15776915848255157  0.8395477533340453  0.6840938925743103  1.0000
  Li  Li5       1.0  0.6214584112167357  0.7556930184364318  0.6362414956092834  1.0000
  Li  Li6       1.0  0.6395084857940674  0.843159794807434  0.329607218503952  1.0000
  Li  Li7       1.0  0.6444312334060669  0.13050490617752075  0.6076247692108154  1.0000
  O   O1        1.0  0.15853269398212433  0.0061575542204082  0.8758187890052795  1.0000
