data_image0
_chemical_formula_structural       As4GaILi6PZr
_chemical_formula_sum              "As4 Ga1 I1 Li6 P1 Zr1"
_cell_length_a       6.791736332391169
_cell_length_b       6.866315761552918
_cell_length_c       7.134995460510254
_cell_angle_alpha    63.446085873044744
_cell_angle_beta     64.55093353697559
_cell_angle_gamma    65.45336856439894

_space_group_name_H-M_alt    "P 1"
_space_group_IT_number       1

loop_
  _space_group_symop_operation_xyz
  'x, y, z'

loop_
  _atom_site_type_symbol
  _atom_site_label
  _atom_site_symmetry_multiplicity
  _atom_site_fract_x
  _atom_site_fract_y
  _atom_site_fract_z
  _atom_site_occupancy
  As  As1       1.0  0.3325246572494507  0.5756639242172241  0.4449535608291626  1.0000
  As  As2       1.0  0.37085139751434326  0.43137484788894653  0.7931801676750183  1.0000
  As  As3       1.0  0.4052177369594574  0.9544348120689392  0.5667285919189453  1.0000
  As  As4       1.0  0.87606281042099  0.78139728307724  0.38146504759788513  1.0000
  Ga  Ga1       1.0  0.3832319378852844  0.5162269473075867  0.46588295698165894  1.0000
  I   I1        1.0  0.06864406913518906  0.011314996518194675  0.014296438544988632  1.0000
  Li  Li1       1.0  0.8631405234336853  0.1790110468864441  0.8146417737007141  1.0000
  Li  Li2       1.0  0.7668440341949463  0.4069596230983734  0.5945892333984375  1.0000
  Li  Li3       1.0  0.2950671315193176  0.6559515595436096  0.5149919986724854  1.0000
  Li  Li4       1.0  0.3679717779159546  0.42284107208251953  0.8239398002624512  1.0000
  Li  Li5       1.0  0.3820446729660034  0.26547878980636597  0.9951032996177673  1.0000
  Li  Li6       1.0  0.29285749793052673  0.4797592759132385  0.7994796633720398  1.0000
  P   P1        1.0  0.35624951124191284  0.2485138326883316  0.21396203339099884  1.0000
  Zr  Zr1       1.0  0.9036186933517456  0.9027498960494995  0.5976393222808838  1.0000
