data_image0
_chemical_formula_structural       As3Fe3O8
_chemical_formula_sum              "As3 Fe3 O8"
_cell_length_a       4.2194463644508335
_cell_length_b       6.270894945137253
_cell_length_c       6.396233081817627
_cell_angle_alpha    100.11857786670194
_cell_angle_beta     89.4421703413209
_cell_angle_gamma    89.39753406646747

_space_group_name_H-M_alt    "P 1"
_space_group_IT_number       1

loop_
  _space_group_symop_operation_xyz
  'x, y, z'

loop_
  _atom_site_type_symbol
  _atom_site_label
  _atom_site_symmetry_multiplicity
  _atom_site_fract_x
  _atom_site_fract_y
  _atom_site_fract_z
  _atom_site_occupancy
  As  As1       1.0  0.665377676486969  0.7531439661979676  0.03612475469708443  1.0000
  As  As2       1.0  0.6558197140693665  0.449529379606247  0.6480709314346313  1.0000
  As  As3       1.0  0.6558166146278381  0.4307135939598084  0.216863751411438  1.0000
  Fe  Fe1       1.0  0.15572623908519745  0.4904071986675263  0.8373020887374878  1.0000
  Fe  Fe2       1.0  0.15691038966178894  0.42496773600578314  0.22850929200649261  1.0000
  Fe  Fe3       1.0  0.16142447292804718  0.21380755305290225  0.46661144495010376  1.0000
  O   O1        1.0  0.15771600604057312  0.23704431951045993  0.24756072461605072  1.0000
  O   O2        1.0  0.15913134813308716  0.09231995046138763  0.1959863156080246  1.0000
  O   O3        1.0  0.14177203178405762  0.5777282118797302  0.5876181721687317  1.0000
  O   O4        1.0  0.660395622253418  0.6368069648742676  0.2144516557455063  1.0000
  O   O5        1.0  0.6485593914985657  0.49234998226165777  0.6393098831176758  1.0000
  O   O6        1.0  0.14891810715198517  0.270264208316803  0.26554471254348755  1.0000
  O   O7        1.0  0.14593543112277985  0.9128100275993348  0.13680595159530637  1.0000
  O   O8        1.0  0.6589744687080383  0.19491046667099002  0.2111818641424179  1.0000
