data_image0
_chemical_formula_structural       AsHLi5O3Pb2TeV
_chemical_formula_sum              "As1 H1 Li5 O3 Pb2 Te1 V1"
_cell_length_a       4.085847290087051
_cell_length_b       5.522401975493407
_cell_length_c       6.600847244262695
_cell_angle_alpha    87.82900501365359
_cell_angle_beta     79.36045410361916
_cell_angle_gamma    67.11367969823579

_space_group_name_H-M_alt    "P 1"
_space_group_IT_number       1

loop_
  _space_group_symop_operation_xyz
  'x, y, z'

loop_
  _atom_site_type_symbol
  _atom_site_label
  _atom_site_symmetry_multiplicity
  _atom_site_fract_x
  _atom_site_fract_y
  _atom_site_fract_z
  _atom_site_occupancy
  As  As1       1.0  0.4231041371822357  0.3823360204696655  0.7938910126686095  1.0000
  H   H1        1.0  0.7202590107917786  0.21444736421108246  0.26284289360046387  1.0000
  Li  Li1       1.0  0.44349759817123413  0.4220322370529175  0.18608963489532468  1.0000
  Li  Li2       1.0  0.9501802325248718  0.9112498164176941  0.9456986784934996  1.0000
  Li  Li3       1.0  0.9831963181495667  0.90422523021698  0.5264023542404175  1.0000
  Li  Li4       1.0  0.9443997144699097  0.0911124050617218  0.6752463579177855  1.0000
  Li  Li5       1.0  0.47795671224594116  0.37210965156555176  0.24785576760768888  1.0000
  O   O1        1.0  0.44743090867996216  0.15518593788146973  0.9909126758575438  1.0000
  O   O2        1.0  0.44644418358802795  0.3160305321216583  0.21674236655235288  1.0000
  O   O3        1.0  0.919414758682251  0.9976142048835754  0.40152990818023676  1.0000
  Pb  Pb1       1.0  0.9547366499900818  0.8246932625770569  0.43682155013084406  1.0000
  Pb  Pb2       1.0  0.9844629764556885  0.6970229744911194  0.8471896648406981  1.0000
  Te  Te1       1.0  0.45265859365463257  0.5114635825157166  0.0775110125541687  1.0000
  V   V1        1.0  0.9498246908187866  0.32071542739868164  0.4674785435199737  1.0000
