data_image0
_chemical_formula_structural       AsFe2Li2O8P
_chemical_formula_sum              "As1 Fe2 Li2 O8 P1"
_cell_length_a       4.559562828023264
_cell_length_b       5.6411360191129365
_cell_length_c       7.585310935974121
_cell_angle_alpha    93.14590436499985
_cell_angle_beta     91.14709799369267
_cell_angle_gamma    87.31070339851394

_space_group_name_H-M_alt    "P 1"
_space_group_IT_number       1

loop_
  _space_group_symop_operation_xyz
  'x, y, z'

loop_
  _atom_site_type_symbol
  _atom_site_label
  _atom_site_symmetry_multiplicity
  _atom_site_fract_x
  _atom_site_fract_y
  _atom_site_fract_z
  _atom_site_occupancy
  As  As1       1.0  0.38411760330200195  0.6291693449020386  0.08345947414636612  1.0000
  Fe  Fe1       1.0  0.8927813172340393  0.0002617567079141736  0.6124257445335388  1.0000
  Fe  Fe2       1.0  0.9131215214729309  0.9258065819740295  0.009985764510929585  1.0000
  Li  Li1       1.0  0.4011217951774597  0.34270596504211426  0.5243037343025208  1.0000
  Li  Li2       1.0  0.9051176309585571  0.4352569282054901  0.8459175229072572  1.0000
  O   O1        1.0  0.4039558470249176  0.6899648904800415  0.3809697628021241  1.0000
  O   O2        1.0  0.38796350359916687  0.6276271343231201  0.8185938000679017  1.0000
  O   O3        1.0  0.916901707649231  0.4435422718524933  0.6816744804382325  1.0000
  O   O4        1.0  0.3052462935447693  0.9750767946243286  0.25715404748916626  1.0000
  O   O5        1.0  0.7375072240829468  0.4832567870616913  0.6407002210617065  1.0000
  O   O6        1.0  0.9035791158676147  0.10203305631875992  0.41555640101432806  1.0000
  O   O7        1.0  0.4108560383319855  0.6087475419044495  0.9446898698806764  1.0000
  O   O8        1.0  0.3936628997325897  0.16111227869987488  0.2946335971355438  1.0000
  P   P1        1.0  0.899116039276123  0.900879442691803  0.3153306841850281  1.0000
