data_image0
_chemical_formula_structural       AsHInLi4O4PbZnZr
_chemical_formula_sum              "As1 H1 In1 Li4 O4 Pb1 Zn1 Zr1"
_cell_length_a       5.293889837016944
_cell_length_b       3.746267628726143
_cell_length_c       4.846963405609131
_cell_angle_alpha    150.8135554593302
_cell_angle_beta     82.3239441758965
_cell_angle_gamma    68.71837521323295

_space_group_name_H-M_alt    "P 1"
_space_group_IT_number       1

loop_
  _space_group_symop_operation_xyz
  'x, y, z'

loop_
  _atom_site_type_symbol
  _atom_site_label
  _atom_site_symmetry_multiplicity
  _atom_site_fract_x
  _atom_site_fract_y
  _atom_site_fract_z
  _atom_site_occupancy
  As  As1       1.0  0.7858029007911682  0.5691884160041808  0.7273986935615538  1.0000
  H   H1        1.0  0.5462306141853333  0.6488384008407592  0.8652400970458984  1.0000
  In  In1       1.0  0.5312305092811584  0.2636100947856903  0.5858286023139954  1.0000
  Li  Li1       1.0  0.21662692725658417  0.4260144233703613  0.49557259678840637  1.0000
  Li  Li2       1.0  0.18599341809749606  0.33125841617584223  0.8448919653892517  1.0000
  Li  Li3       1.0  0.03158625215291981  0.5501749515533446  0.5506651997566223  1.0000
  Li  Li4       1.0  0.8389915823936462  0.3092138171195985  0.47333517670631414  1.0000
  O   O1        1.0  0.6120067238807678  0.5385882258415222  0.844079315662384  1.0000
  O   O2        1.0  0.8417356014251709  0.08263973891735073  0.3505235612392425  1.0000
  O   O3        1.0  0.6354679465293884  0.8400815725326537  0.7134207487106323  1.0000
  O   O4        1.0  0.5336292386054994  0.42470797896385176  0.65628844499588  1.0000
  Pb  Pb1       1.0  0.5311642289161682  0.35642465949058527  0.2776613235473633  1.0000
  Zn  Zn1       1.0  0.4476974606513977  0.5241988897323608  0.02015119045972823  1.0000
  Zr  Zr1       1.0  0.516120195388794  0.13654227554798132  0.6643566489219666  1.0000
