data_image0
_chemical_formula_structural       BrClErFePrSbSe2Te
_chemical_formula_sum              "Br1 Cl1 Er1 Fe1 Pr1 Sb1 Se2 Te1"
_cell_length_a       6.330636808191425
_cell_length_b       6.8760536412608895
_cell_length_c       6.84529972076416
_cell_angle_alpha    119.34919645674745
_cell_angle_beta     90.12107774568089
_cell_angle_gamma    90.01233459230104

_space_group_name_H-M_alt    "P 1"
_space_group_IT_number       1

loop_
  _space_group_symop_operation_xyz
  'x, y, z'

loop_
  _atom_site_type_symbol
  _atom_site_label
  _atom_site_symmetry_multiplicity
  _atom_site_fract_x
  _atom_site_fract_y
  _atom_site_fract_z
  _atom_site_occupancy
  Br  Br1       1.0  0.7189988493919373  0.877280056476593  0.02397261746227748  1.0000
  Cl  Cl1       1.0  0.10816449671983719  0.6732232570648193  0.35873848199844366  1.0000
  Er  Er1       1.0  0.5868183374404907  0.9624249339103699  0.6456109285354614  1.0000
  Fe  Fe1       1.0  0.9502938389778137  0.34113752841949463  0.08937674015760423  1.0000
  Pr  Pr1       1.0  0.15654733777046204  0.6583995819091797  0.8530760407447816  1.0000
  Sb  Sb1       1.0  0.5820572972297668  0.4841492176055908  0.24333150684833527  1.0000
  Se  Se1       1.0  0.8973243236541748  0.2662353813648224  0.7220288515090942  1.0000
  Se  Se2       1.0  0.2400428056716919  0.10713719576597214  0.9632622599601746  1.0000
  Te  Te1       1.0  0.40659600496292114  0.26869824528694153  0.5034515261650085  1.0000
