data_image0
_chemical_formula_structural       Br2ClErFGeNSbSe
_chemical_formula_sum              "Br2 Cl1 Er1 F1 Ge1 N1 Sb1 Se1"
_cell_length_a       6.456028377091757
_cell_length_b       6.430794702068619
_cell_length_c       6.442318439483643
_cell_angle_alpha    99.60385486150807
_cell_angle_beta     99.20286362252023
_cell_angle_gamma    98.49107149659707

_space_group_name_H-M_alt    "P 1"
_space_group_IT_number       1

loop_
  _space_group_symop_operation_xyz
  'x, y, z'

loop_
  _atom_site_type_symbol
  _atom_site_label
  _atom_site_symmetry_multiplicity
  _atom_site_fract_x
  _atom_site_fract_y
  _atom_site_fract_z
  _atom_site_occupancy
  Br  Br1       1.0  0.2255341112613678  0.7450592517852783  0.21125003695487976  1.0000
  Br  Br2       1.0  0.9491855502128601  0.12639281153678894  0.9793795347213745  1.0000
  Cl  Cl1       1.0  0.008039474487304688  0.49642103910446167  0.6270081996917725  1.0000
  Er  Er1       1.0  0.8088281750679016  0.6322830319404602  0.9804352521896362  1.0000
  F   F1        1.0  0.5518221259117126  0.6808469891548157  0.7276561260223389  1.0000
  Ge  Ge1       1.0  0.3668797016143799  0.4330081343650818  0.7083896398544312  1.0000
  N   N1        1.0  0.5095348954200745  0.35892146825790405  0.9301498532295227  1.0000
  Sb  Sb1       1.0  0.47693583369255066  0.15422023832798004  0.16617819666862488  1.0000
  Se  Se1       1.0  0.7414563298225403  0.9381014704704285  0.3473646640777588  1.0000
