data_image0
_chemical_formula_structural       Cl3Se3Te3
_chemical_formula_sum              "Cl3 Se3 Te3"
_cell_length_a       6.59743384032225
_cell_length_b       6.569154370754677
_cell_length_c       6.579533576965332
_cell_angle_alpha    97.64653745377385
_cell_angle_beta     97.69584909603788
_cell_angle_gamma    97.08902957326626

_space_group_name_H-M_alt    "P 1"
_space_group_IT_number       1

loop_
  _space_group_symop_operation_xyz
  'x, y, z'

loop_
  _atom_site_type_symbol
  _atom_site_label
  _atom_site_symmetry_multiplicity
  _atom_site_fract_x
  _atom_site_fract_y
  _atom_site_fract_z
  _atom_site_occupancy
  Cl  Cl1       1.0  0.7055922150611877  0.3824354112148285  0.8944527506828308  1.0000
  Cl  Cl2       1.0  0.9601165652275085  0.9588429927825928  0.1457257568836212  1.0000
  Cl  Cl3       1.0  0.5392824411392212  0.1677771657705307  0.31122466921806335  1.0000
  Se  Se1       1.0  0.06589218229055405  0.5197446942329407  0.5100083351135254  1.0000
  Se  Se2       1.0  0.10179196298122406  0.1898212432861328  0.7565910816192627  1.0000
  Se  Se3       1.0  0.8286908268928528  0.8344712257385254  0.6104438900947571  1.0000
  Te  Te1       1.0  0.47003263235092163  0.720039963722229  0.6176252961158752  1.0000
  Te  Te2       1.0  0.3931792676448822  0.8339462876319885  0.03437618166208267  1.0000
  Te  Te3       1.0  0.20330536365509033  0.48548081517219543  0.10687624663114548  1.0000
