data_image0
_chemical_formula_structural       ClSe5Te3
_chemical_formula_sum              "Cl1 Se5 Te3"
_cell_length_a       6.581696893122141
_cell_length_b       6.570161648435126
_cell_length_c       6.567727565765381
_cell_angle_alpha    94.66463010809623
_cell_angle_beta     94.59478210493876
_cell_angle_gamma    94.19602892860138

_space_group_name_H-M_alt    "P 1"
_space_group_IT_number       1

loop_
  _space_group_symop_operation_xyz
  'x, y, z'

loop_
  _atom_site_type_symbol
  _atom_site_label
  _atom_site_symmetry_multiplicity
  _atom_site_fract_x
  _atom_site_fract_y
  _atom_site_fract_z
  _atom_site_occupancy
  Cl  Cl1       1.0  0.048374392092227936  0.10472266376018524  0.04540998488664627  1.0000
  Se  Se1       1.0  0.3727447986602783  0.6152961850166321  0.11873777210712433  1.0000
  Se  Se2       1.0  0.5997634530067444  0.8615578413009644  0.1273813247680664  1.0000
  Se  Se3       1.0  0.7050696611404419  0.0059754326939582825  0.4980809986591339  1.0000
  Se  Se4       1.0  0.3653198182582855  0.114835724234581  0.631587564945221  1.0000
  Se  Se5       1.0  0.014375499449670315  0.49687328934669495  0.49033287167549133  1.0000
  Te  Te1       1.0  0.5985445976257324  0.35411131381988525  0.42882269620895386  1.0000
  Te  Te2       1.0  0.694067656993866  0.520405113697052  0.9327073097229004  1.0000
  Te  Te3       1.0  0.18568898737430573  0.7905589938163757  0.7080816626548767  1.0000
