data_image0
_chemical_formula_structural       AlAuB2CuLu3Ni
_chemical_formula_sum              "Al1 Au1 B2 Cu1 Lu3 Ni1"
_cell_length_a       5.453741657761057
_cell_length_b       5.6582757151245895
_cell_length_c       5.766630172729492
_cell_angle_alpha    61.854156203761015
_cell_angle_beta     60.17466128005306
_cell_angle_gamma    60.05389532169624

_space_group_name_H-M_alt    "P 1"
_space_group_IT_number       1

loop_
  _space_group_symop_operation_xyz
  'x, y, z'

loop_
  _atom_site_type_symbol
  _atom_site_label
  _atom_site_symmetry_multiplicity
  _atom_site_fract_x
  _atom_site_fract_y
  _atom_site_fract_z
  _atom_site_occupancy
  Al  Al1       1.0  0.8033507466316223  0.7899320125579834  0.1783694177865982  1.0000
  Au  Au1       1.0  0.10553880780935287  0.1493479311466217  0.47221958637237543  1.0000
  B   B1        1.0  0.3449370563030243  0.5553044676780701  0.4723266959190368  1.0000
  B   B2        1.0  0.5389849543571472  0.15063641965389252  0.996401011943817  1.0000
  Cu  Cu1       1.0  0.7169422507286072  0.6194621324539185  0.8708977699279784  1.0000
  Lu  Lu1       1.0  0.08458191156387329  0.7957034707069397  0.34316474199295044  1.0000
  Lu  Lu2       1.0  0.050172511488199234  0.14506180584430695  0.9601058959960936  1.0000
  Lu  Lu3       1.0  0.09324397146701813  0.14111733436584473  0.6717031598091125  1.0000
  Ni  Ni1       1.0  0.5206223726272583  0.6418392062187195  0.8949860334396361  1.0000
