data_image0
_chemical_formula_structural       AuB2CuLu2Ni3
_chemical_formula_sum              "Au1 B2 Cu1 Lu2 Ni3"
_cell_length_a       5.818474878154042
_cell_length_b       5.776168750902351
_cell_length_c       6.4040141105651855
_cell_angle_alpha    62.78293058755488
_cell_angle_beta     61.6001985631201
_cell_angle_gamma    57.71545004471002

_space_group_name_H-M_alt    "P 1"
_space_group_IT_number       1

loop_
  _space_group_symop_operation_xyz
  'x, y, z'

loop_
  _atom_site_type_symbol
  _atom_site_label
  _atom_site_symmetry_multiplicity
  _atom_site_fract_x
  _atom_site_fract_y
  _atom_site_fract_z
  _atom_site_occupancy
  Au  Au1       1.0  0.4129193425178528  0.2606699466705322  0.40186718106269836  1.0000
  B   B1        1.0  0.43549802899360657  0.9558112025260925  0.1490444839000702  1.0000
  B   B2        1.0  0.23457804322242737  0.7005102634429932  0.9078845977783203  1.0000
  Cu  Cu1       1.0  0.44077974557876587  0.9541351199150085  0.42354658246040344  1.0000
  Lu  Lu1       1.0  0.9790817499160767  0.49486783146858215  0.3897964060306549  1.0000
  Lu  Lu2       1.0  0.9372775554656982  0.9483915567398071  0.6464771032333374  1.0000
  Ni  Ni1       1.0  0.724565327167511  0.24953074753284454  0.9141485691070557  1.0000
  Ni  Ni2       1.0  0.23269152641296387  0.20843005180358887  0.8939172029495239  1.0000
  Ni  Ni3       1.0  0.980327844619751  0.002404856961220503  0.399696946144104  1.0000
