data_image0
_chemical_formula_structural       Au2B4CaLu2
_chemical_formula_sum              "Au2 B4 Ca1 Lu2"
_cell_length_a       5.252049213677772
_cell_length_b       5.247296291483119
_cell_length_c       5.784548282623291
_cell_angle_alpha    113.94316569108778
_cell_angle_beta     107.76549358949649
_cell_angle_gamma    88.94486514082057

_space_group_name_H-M_alt    "P 1"
_space_group_IT_number       1

loop_
  _space_group_symop_operation_xyz
  'x, y, z'

loop_
  _atom_site_type_symbol
  _atom_site_label
  _atom_site_symmetry_multiplicity
  _atom_site_fract_x
  _atom_site_fract_y
  _atom_site_fract_z
  _atom_site_occupancy
  Au  Au1       1.0  0.9754660725593566  0.5499781966209412  0.3056904971599579  1.0000
  Au  Au2       1.0  0.7107241749763489  0.033624131232500076  0.9335373640060424  1.0000
  B   B1        1.0  0.9664347767829894  0.7680330276489258  0.9371575713157653  1.0000
  B   B2        1.0  0.23430456221103665  0.5240525007247925  0.9416781663894652  1.0000
  B   B3        1.0  0.4779867827892303  0.305954247713089  0.4395018517971038  1.0000
  B   B4        1.0  0.976412534713745  0.8600701689720154  0.44076934456825245  1.0000
  Ca  Ca1       1.0  0.6908815503120422  0.013549147173762321  0.30448728799819946  1.0000
  Lu  Lu1       1.0  0.2305704653263092  0.47813549637794495  0.6637943387031555  1.0000
  Lu  Lu2       1.0  0.46565884351730347  0.06667940318584442  0.9501224160194396  1.0000
