data_image0
_chemical_formula_structural       Au3Cu5Dy
_chemical_formula_sum              "Au3 Cu5 Dy1"
_cell_length_a       5.8006730522962915
_cell_length_b       5.733248782426585
_cell_length_c       5.615345478057861
_cell_angle_alpha    94.41605342428714
_cell_angle_beta     91.54283852774728
_cell_angle_gamma    84.64021285959188

_space_group_name_H-M_alt    "P 1"
_space_group_IT_number       1

loop_
  _space_group_symop_operation_xyz
  'x, y, z'

loop_
  _atom_site_type_symbol
  _atom_site_label
  _atom_site_symmetry_multiplicity
  _atom_site_fract_x
  _atom_site_fract_y
  _atom_site_fract_z
  _atom_site_occupancy
  Au  Au1       1.0  0.5864623785018921  0.99240243434906  0.9908577799797057  1.0000
  Au  Au2       1.0  0.809124231338501  0.7455207705497742  0.7210420966148376  1.0000
  Au  Au3       1.0  0.2999100089073181  0.7289507389068604  0.7304915189743042  1.0000
  Cu  Cu1       1.0  0.34792959690093994  0.7583242654800415  0.35840535163879395  1.0000
  Cu  Cu2       1.0  0.8480880260467528  0.3166777789592743  0.010883636772632599  1.0000
  Cu  Cu3       1.0  0.8250525593757629  0.7484987378120422  0.3475245237350464  1.0000
  Cu  Cu4       1.0  0.556934654712677  0.30974072217941284  0.5160380005836487  1.0000
  Cu  Cu5       1.0  0.0846068859100342  0.9902032017707824  0.8439223766326903  1.0000
  Dy  Dy1       1.0  0.8528031706809996  0.7686134576797485  0.04120250418782234  1.0000
