data_image0
_chemical_formula_structural       Au2CoCu5Dy
_chemical_formula_sum              "Au2 Co1 Cu5 Dy1"
_cell_length_a       5.384147632672115
_cell_length_b       5.530805053968232
_cell_length_c       5.297608375549316
_cell_angle_alpha    91.69982541706445
_cell_angle_beta     90.39621212703459
_cell_angle_gamma    89.60340167559502

_space_group_name_H-M_alt    "P 1"
_space_group_IT_number       1

loop_
  _space_group_symop_operation_xyz
  'x, y, z'

loop_
  _atom_site_type_symbol
  _atom_site_label
  _atom_site_symmetry_multiplicity
  _atom_site_fract_x
  _atom_site_fract_y
  _atom_site_fract_z
  _atom_site_occupancy
  Au  Au1       1.0  0.7907439470291138  0.04540984332561493  0.4695854783058167  1.0000
  Au  Au2       1.0  0.4380398094654083  0.610140860080719  0.8316736817359924  1.0000
  Co  Co1       1.0  0.4099278450012207  0.3491273522377014  0.9729880094528199  1.0000
  Cu  Cu1       1.0  0.12450699508190155  0.052186861634254456  0.8960904479026796  1.0000
  Cu  Cu2       1.0  0.7595117092132568  0.5689800977706909  0.7422742247581482  1.0000
  Cu  Cu3       1.0  0.017001796513795853  0.31357625126838684  0.2399449944496155  1.0000
  Cu  Cu4       1.0  0.7974271178245544  0.570227324962616  0.023307265713810924  1.0000
  Cu  Cu5       1.0  0.467413991689682  0.8369383215904236  0.3873220682144165  1.0000
  Dy  Dy1       1.0  0.2747766673564911  0.06044594570994377  0.7502020001411438  1.0000
