data_image0
_chemical_formula_structural       Au2B3CuLu3
_chemical_formula_sum              "Au2 B3 Cu1 Lu3"
_cell_length_a       5.696494479593863
_cell_length_b       5.49303095628888
_cell_length_c       6.107577800750732
_cell_angle_alpha    111.3958669298489
_cell_angle_beta     105.7854310648048
_cell_angle_gamma    107.22196051065116

_space_group_name_H-M_alt    "P 1"
_space_group_IT_number       1

loop_
  _space_group_symop_operation_xyz
  'x, y, z'

loop_
  _atom_site_type_symbol
  _atom_site_label
  _atom_site_symmetry_multiplicity
  _atom_site_fract_x
  _atom_site_fract_y
  _atom_site_fract_z
  _atom_site_occupancy
  Au  Au1       1.0  0.6164543628692627  0.7176145315170288  0.4023086130619049  1.0000
  Au  Au2       1.0  0.6209121346473694  0.6915905475616455  0.6273443102836608  1.0000
  B   B1        1.0  0.9330364465713501  0.3651268780231476  0.6443498730659485  1.0000
  B   B2        1.0  0.5989517569541931  0.17078731954097748  0.3329934775829315  1.0000
  B   B3        1.0  0.12336303293704985  0.7034668326377869  0.006855342537164688  1.0000
  Cu  Cu1       1.0  0.6306688785552979  0.9488852620124817  0.007969191297888683  1.0000
  Lu  Lu1       1.0  0.10224603116512299  0.6865814924240112  0.14791099727153778  1.0000
  Lu  Lu2       1.0  0.6138643026351929  0.8617591857910156  0.11730746179819107  1.0000
  Lu  Lu3       1.0  0.37277525663375854  0.35050076246261597  0.6768572330474854  1.0000
