data_image0
_chemical_formula_structural       LaNb2Si4
_chemical_formula_sum              "La1 Nb2 Si4"
_cell_length_a       4.5436500490361595
_cell_length_b       5.0393001132265045
_cell_length_c       6.740419864654541
_cell_angle_alpha    114.5838680130096
_cell_angle_beta     109.62973736729114
_cell_angle_gamma    88.63494152437616

_space_group_name_H-M_alt    "P 1"
_space_group_IT_number       1

loop_
  _space_group_symop_operation_xyz
  'x, y, z'

loop_
  _atom_site_type_symbol
  _atom_site_label
  _atom_site_symmetry_multiplicity
  _atom_site_fract_x
  _atom_site_fract_y
  _atom_site_fract_z
  _atom_site_occupancy
  La  La1       1.0  0.2703402042388916  0.37127020955085754  0.12055355310440065  1.0000
  Nb  Nb1       1.0  0.4229423999786377  0.838232696056366  0.15610896050930018  1.0000
  Nb  Nb2       1.0  0.9356556534767151  0.018096616491675377  0.8355364799499513  1.0000
  Si  Si1       1.0  0.5217915177345276  0.69245445728302  0.35634878277778625  1.0000
  Si  Si2       1.0  0.028033100068569183  0.5099472403526306  0.5345358848571777  1.0000
  Si  Si3       1.0  0.5932832956314087  0.01608496531844139  0.8303836584091188  1.0000
  Si  Si4       1.0  0.7452504634857178  0.2616497576236725  0.12531794607639313  1.0000
