data_image0
_chemical_formula_structural       Nb5Si2
_chemical_formula_sum              "Nb5 Si2"
_cell_length_a       4.36040989355524
_cell_length_b       4.304532824917653
_cell_length_c       6.527101516723633
_cell_angle_alpha    113.71022317682288
_cell_angle_beta     110.11115926938247
_cell_angle_gamma    84.42631461861102

_space_group_name_H-M_alt    "P 1"
_space_group_IT_number       1

loop_
  _space_group_symop_operation_xyz
  'x, y, z'

loop_
  _atom_site_type_symbol
  _atom_site_label
  _atom_site_symmetry_multiplicity
  _atom_site_fract_x
  _atom_site_fract_y
  _atom_site_fract_z
  _atom_site_occupancy
  Nb  Nb1       1.0  0.1819497048854828  0.041833993047475815  0.9071265459060668  1.0000
  Nb  Nb2       1.0  0.8703470230102539  0.5516458749771118  0.219384491443634  1.0000
  Nb  Nb3       1.0  0.4376501441001892  0.745749831199646  0.30848851799964905  1.0000
  Nb  Nb4       1.0  0.33875641226768494  0.5520539879798889  0.23201945424079892  1.0000
  Nb  Nb5       1.0  0.7160966992378235  0.24537208676338196  0.7161905169487  1.0000
  Si  Si1       1.0  0.33337241411209106  0.34965574741363525  0.2993607819080353  1.0000
  Si  Si2       1.0  0.602441132068634  0.01082304771989584  0.4752704799175262  1.0000
