data_image0
_chemical_formula_structural       BiLa3OZn2Zr2
_chemical_formula_sum              "Bi1 La3 O1 Zn2 Zr2"
_cell_length_a       5.604142690797504
_cell_length_b       5.84602760710878
_cell_length_c       7.5412821769714355
_cell_angle_alpha    114.40412692645918
_cell_angle_beta     110.80823877799699
_cell_angle_gamma    91.40875144588166

_space_group_name_H-M_alt    "P 1"
_space_group_IT_number       1

loop_
  _space_group_symop_operation_xyz
  'x, y, z'

loop_
  _atom_site_type_symbol
  _atom_site_label
  _atom_site_symmetry_multiplicity
  _atom_site_fract_x
  _atom_site_fract_y
  _atom_site_fract_z
  _atom_site_occupancy
  Bi  Bi1       1.0  0.5847454071044922  0.44339922070503235  0.17935067415237432  1.0000
  La  La1       1.0  0.08896174281835556  0.3044167757034302  0.9960427284240723  1.0000
  La  La2       1.0  0.08420652896165848  0.8960080742835999  0.7270202040672302  1.0000
  La  La3       1.0  0.588689386844635  0.1525605320930481  0.39631545543670654  1.0000
  O   O1        1.0  0.8775821924209596  0.4258584678173065  0.2798985540866852  1.0000
  Zn  Zn1       1.0  0.09110236912965775  0.6331092119216919  0.029496392235159905  1.0000
  Zn  Zn2       1.0  0.09075351059436798  0.3067186772823334  0.44344252347946167  1.0000
  Zr  Zr1       1.0  0.5875719785690308  0.47119057178497314  0.5718496441841125  1.0000
  Zr  Zr2       1.0  0.5914507508277893  0.8525218963623047  0.31040170788764954  1.0000
