data_image0
_chemical_formula_structural       BiGeHLa4OTb
_chemical_formula_sum              "Bi1 Ge1 H1 La4 O1 Tb1"
_cell_length_a       4.344896645774277
_cell_length_b       6.992179128583391
_cell_length_c       8.476329803466797
_cell_angle_alpha    116.67293607633364
_cell_angle_beta     90.22247514340505
_cell_angle_gamma    89.70394620084477

_space_group_name_H-M_alt    "P 1"
_space_group_IT_number       1

loop_
  _space_group_symop_operation_xyz
  'x, y, z'

loop_
  _atom_site_type_symbol
  _atom_site_label
  _atom_site_symmetry_multiplicity
  _atom_site_fract_x
  _atom_site_fract_y
  _atom_site_fract_z
  _atom_site_occupancy
  Bi  Bi1       1.0  0.8367184400558472  0.12953445315361023  0.5871025323867798  1.0000
  Ge  Ge1       1.0  0.8384445905685425  0.8580037355422975  0.23313564062118525  1.0000
  H   H1        1.0  0.8431392312049866  0.7203322052955627  0.9838824272155762  1.0000
  La  La1       1.0  0.3372684419155121  0.9242621064186097  0.8846445083618164  1.0000
  La  La2       1.0  0.8434641361236572  0.054253939539194114  0.8450539112091064  1.0000
  La  La3       1.0  0.3407358229160309  0.14466167986392975  0.39105653762817383  1.0000
  La  La4       1.0  0.3380158841609955  0.3778970539569855  0.25099503993988037  1.0000
  O   O1        1.0  0.35181593894958496  0.057324469089508064  0.8237712979316711  1.0000
  Tb  Tb1       1.0  0.839432954788208  0.3661591112613678  0.8268452882766724  1.0000
