data_image0
_chemical_formula_structural       Bi5La4
_chemical_formula_sum              "Bi5 La4"
_cell_length_a       4.907745669703076
_cell_length_b       4.214170975017838
_cell_length_c       10.567627906799316
_cell_angle_alpha    106.20818338341871
_cell_angle_beta     101.00925385580729
_cell_angle_gamma    90.08006318772892

_space_group_name_H-M_alt    "P 1"
_space_group_IT_number       1

loop_
  _space_group_symop_operation_xyz
  'x, y, z'

loop_
  _atom_site_type_symbol
  _atom_site_label
  _atom_site_symmetry_multiplicity
  _atom_site_fract_x
  _atom_site_fract_y
  _atom_site_fract_z
  _atom_site_occupancy
  Bi  Bi1       1.0  0.47672727704048157  0.9508837461471558  0.40667811036109924  1.0000
  Bi  Bi2       1.0  0.7345644235610962  0.7647356390953064  0.20522001385688782  1.0000
  Bi  Bi3       1.0  0.1698862910270691  0.15140052139759064  0.8177029490470886  1.0000
  Bi  Bi4       1.0  0.6617230772972107  0.5645419359207153  0.43917837738990784  1.0000
  Bi  Bi5       1.0  0.16573436558246613  0.7151159644126892  0.5378630757331848  1.0000
  La  La1       1.0  0.17206157743930817  0.4897163510322571  0.8704742193222046  1.0000
  La  La2       1.0  0.6649013757705688  0.93142169713974  0.6810347437858582  1.0000
  La  La3       1.0  0.6793460845947266  0.973517119884491  0.5176678895950317  1.0000
  La  La4       1.0  0.20811207592487335  0.3719285726547241  0.37194550037384033  1.0000
