data_image0
_chemical_formula_structural       Bi3La6
_chemical_formula_sum              "Bi3 La6"
_cell_length_a       4.881461928083344
_cell_length_b       4.325078349946938
_cell_length_c       9.491377830505371
_cell_angle_alpha    112.52598812579141
_cell_angle_beta     111.11527331923158
_cell_angle_gamma    88.77513575221494

_space_group_name_H-M_alt    "P 1"
_space_group_IT_number       1

loop_
  _space_group_symop_operation_xyz
  'x, y, z'

loop_
  _atom_site_type_symbol
  _atom_site_label
  _atom_site_symmetry_multiplicity
  _atom_site_fract_x
  _atom_site_fract_y
  _atom_site_fract_z
  _atom_site_occupancy
  Bi  Bi1       1.0  0.24842172861099243  0.7546381950378418  0.8227664232254028  1.0000
  Bi  Bi2       1.0  0.8325051665306091  0.8733655214309692  0.15009407699108124  1.0000
  Bi  Bi3       1.0  0.6930580139160156  0.7325746417045593  0.24444976449012756  1.0000
  La  La1       1.0  0.6927351951599121  0.7561554908752441  0.5616867542266846  1.0000
  La  La2       1.0  0.2086903303861618  0.6819559931755066  0.34899911284446716  1.0000
  La  La3       1.0  0.8448389172554016  0.042871806770563126  0.8762947916984558  1.0000
  La  La4       1.0  0.028476644307374954  0.8028099536895752  0.1688270568847656  1.0000
  La  La5       1.0  0.36258935928344727  0.4304754137992859  0.9391948580741882  1.0000
  La  La6       1.0  0.17972274124622345  0.4937172830104828  0.9257287979125977  1.0000
