data_image0
_chemical_formula_structural       AsBi2CoLa2LuOZr
_chemical_formula_sum              "As1 Bi2 Co1 La2 Lu1 O1 Zr1"
_cell_length_a       4.340057941038797
_cell_length_b       4.737332663264133
_cell_length_c       9.888314247131348
_cell_angle_alpha    95.84925204230316
_cell_angle_beta     91.50605865607756
_cell_angle_gamma    90.37325476187993

_space_group_name_H-M_alt    "P 1"
_space_group_IT_number       1

loop_
  _space_group_symop_operation_xyz
  'x, y, z'

loop_
  _atom_site_type_symbol
  _atom_site_label
  _atom_site_symmetry_multiplicity
  _atom_site_fract_x
  _atom_site_fract_y
  _atom_site_fract_z
  _atom_site_occupancy
  As  As1       1.0  0.33161661028862  0.271029531955719  0.32543715834617615  1.0000
  Bi  Bi1       1.0  0.8065875172615051  0.21511369943618774  0.4248171746730805  1.0000
  Bi  Bi2       1.0  0.10859479755163193  0.328123539686203  0.683796226978302  1.0000
  Co  Co1       1.0  0.3216628134250641  0.5846843123435974  0.8725599646568298  1.0000
  La  La1       1.0  0.6226559281349182  0.7565993666648865  0.637837827205658  1.0000
  La  La2       1.0  0.11367670446634293  0.9899652004241943  0.6732053756713867  1.0000
  Lu  Lu1       1.0  0.6140305995941162  0.31856146454811096  0.12548001110553741  1.0000
  O   O1        1.0  0.1041579470038414  0.21975338459014893  0.17668883502483368  1.0000
  Zr  Zr1       1.0  0.1006767600774765  0.8446996212005615  0.9643573760986327  1.0000
