data_image0
_chemical_formula_structural       Hg2Mg4O
_chemical_formula_sum              "Hg2 Mg4 O1"
_cell_length_a       5.808228636809267
_cell_length_b       5.51861020502662
_cell_length_c       5.363117694854736
_cell_angle_alpha    61.94550602431812
_cell_angle_beta     61.140005707482416
_cell_angle_gamma    61.64071464246313

_space_group_name_H-M_alt    "P 1"
_space_group_IT_number       1

loop_
  _space_group_symop_operation_xyz
  'x, y, z'

loop_
  _atom_site_type_symbol
  _atom_site_label
  _atom_site_symmetry_multiplicity
  _atom_site_fract_x
  _atom_site_fract_y
  _atom_site_fract_z
  _atom_site_occupancy
  Hg  Hg1       1.0  0.21234776079654694  0.25602254271507263  0.6843340396881104  1.0000
  Hg  Hg2       1.0  0.2149234414100647  0.23926596343517303  0.6824380159378052  1.0000
  Mg  Mg1       1.0  0.21958492696285248  0.7418816089630127  0.19699594378471375  1.0000
  Mg  Mg2       1.0  0.21321624517440796  0.007359771989285946  0.8672822713851929  1.0000
  Mg  Mg3       1.0  0.712033212184906  0.2744736969470978  0.056496284902095795  1.0000
  Mg  Mg4       1.0  0.7173886895179749  0.761182427406311  0.4324319362640381  1.0000
  O   O1        1.0  0.7173706293106079  0.7211711406707764  0.40203049778938293  1.0000
