data_image0
_chemical_formula_structural       Hg3Mg3Te
_chemical_formula_sum              "Hg3 Mg3 Te1"
_cell_length_a       4.788541831310287
_cell_length_b       6.242512416603476
_cell_length_c       5.596584796905518
_cell_angle_alpha    130.3996666783712
_cell_angle_beta     89.47718081347199
_cell_angle_gamma    88.92244662942888

_space_group_name_H-M_alt    "P 1"
_space_group_IT_number       1

loop_
  _space_group_symop_operation_xyz
  'x, y, z'

loop_
  _atom_site_type_symbol
  _atom_site_label
  _atom_site_symmetry_multiplicity
  _atom_site_fract_x
  _atom_site_fract_y
  _atom_site_fract_z
  _atom_site_occupancy
  Hg  Hg1       1.0  0.3714948296546936  0.45542818307876587  0.9385443925857544  1.0000
  Hg  Hg2       1.0  0.8691104650497437  0.4591246247291565  0.386282742023468  1.0000
  Hg  Hg3       1.0  0.855388879776001  0.2948024868965149  0.844424843788147  1.0000
  Mg  Mg1       1.0  0.8550286293029785  0.9259741902351379  0.13971136510372162  1.0000
  Mg  Mg2       1.0  0.8654237985610962  0.2190883606672287  0.47688037157058716  1.0000
  Mg  Mg3       1.0  0.3778533339500427  0.9447610378265381  0.848018229007721  1.0000
  Te  Te1       1.0  0.36176028847694397  0.7339672446250916  0.3554743528366088  1.0000
