data_image0
_chemical_formula_structural       CuHg2Mg3V
_chemical_formula_sum              "Cu1 Hg2 Mg3 V1"
_cell_length_a       5.60601924062224
_cell_length_b       5.782083687922113
_cell_length_c       5.49238920211792
_cell_angle_alpha    63.760210371198724
_cell_angle_beta     61.132725242527115
_cell_angle_gamma    62.66455195560423

_space_group_name_H-M_alt    "P 1"
_space_group_IT_number       1

loop_
  _space_group_symop_operation_xyz
  'x, y, z'

loop_
  _atom_site_type_symbol
  _atom_site_label
  _atom_site_symmetry_multiplicity
  _atom_site_fract_x
  _atom_site_fract_y
  _atom_site_fract_z
  _atom_site_occupancy
  Cu  Cu1       1.0  0.6263717412948608  0.42193493247032166  0.5097355246543885  1.0000
  Hg  Hg1       1.0  0.13796845078468323  0.4145795404911041  0.29440584778785706  1.0000
  Hg  Hg2       1.0  0.1809946745634079  0.11833181977272034  0.07838352024555208  1.0000
  Mg  Mg1       1.0  0.6329680681228638  0.9178852438926697  0.8161957263946533  1.0000
  Mg  Mg2       1.0  0.6064319014549255  0.6107131242752075  0.8046103119850159  1.0000
  Mg  Mg3       1.0  0.16739554703235626  0.9248831272125244  0.5017114281654358  1.0000
  V   V1        1.0  0.8536205291748047  0.11037098616361618  0.9994244575500488  1.0000
