data_image0
_chemical_formula_structural       I2Ir5NiSe
_chemical_formula_sum              "I2 Ir5 Ni1 Se1"
_cell_length_a       5.0225012941481255
_cell_length_b       5.9070457540832235
_cell_length_c       6.2288312911987305
_cell_angle_alpha    88.41564471203263
_cell_angle_beta     89.92250626877197
_cell_angle_gamma    90.53516270885947

_space_group_name_H-M_alt    "P 1"
_space_group_IT_number       1

loop_
  _space_group_symop_operation_xyz
  'x, y, z'

loop_
  _atom_site_type_symbol
  _atom_site_label
  _atom_site_symmetry_multiplicity
  _atom_site_fract_x
  _atom_site_fract_y
  _atom_site_fract_z
  _atom_site_occupancy
  I   I1        1.0  0.19925226271152496  0.0733700543642044  0.41783466935157776  1.0000
  I   I2        1.0  0.20128998160362244  0.6704871654510498  0.26306137442588806  1.0000
  Ir  Ir1       1.0  0.6976042985916138  0.35790902376174927  0.31150439381599426  1.0000
  Ir  Ir2       1.0  0.1949514001607895  0.3858969211578369  0.38630229234695435  1.0000
  Ir  Ir3       1.0  0.6978724002838135  0.5926869511604309  0.8993834853172302  1.0000
  Ir  Ir4       1.0  0.20183832943439484  0.771102249622345  0.14642699062824246  1.0000
  Ir  Ir5       1.0  0.19650711119174957  0.42461758852005005  0.36662721633911133  1.0000
  Ni  Ni1       1.0  0.701991081237793  0.12123037874698639  0.12872986495494843  1.0000
  Se  Se1       1.0  0.19816623628139496  0.6823856234550476  0.8529642820358276  1.0000
