data_image0
_chemical_formula_structural       I3Ir4NiSe
_chemical_formula_sum              "I3 Ir4 Ni1 Se1"
_cell_length_a       5.002650401452649
_cell_length_b       7.422821207708524
_cell_length_c       7.456961154937744
_cell_angle_alpha    125.3335916064972
_cell_angle_beta     90.60470086577928
_cell_angle_gamma    87.78483586122697

_space_group_name_H-M_alt    "P 1"
_space_group_IT_number       1

loop_
  _space_group_symop_operation_xyz
  'x, y, z'

loop_
  _atom_site_type_symbol
  _atom_site_label
  _atom_site_symmetry_multiplicity
  _atom_site_fract_x
  _atom_site_fract_y
  _atom_site_fract_z
  _atom_site_occupancy
  I   I1        1.0  0.63217693567276  0.46439123153686523  0.38204592466354376  1.0000
  I   I2        1.0  0.6361566185951233  0.4022766351699829  0.21280144155025477  1.0000
  I   I3        1.0  0.14765749871730804  0.22036702930927277  0.5933230519294739  1.0000
  Ir  Ir1       1.0  0.1487841159105301  0.2085312455892563  0.2659664750099182  1.0000
  Ir  Ir2       1.0  0.6494401097297668  0.7471062541007996  0.6846141815185547  1.0000
  Ir  Ir3       1.0  0.14691108465194702  0.7025277614593506  0.7026029825210571  1.0000
  Ir  Ir4       1.0  0.6464292407035828  0.7895959615707397  0.7923662662506104  1.0000
  Ni  Ni1       1.0  0.647396981716156  0.08510713279247284  0.035042405128479004  1.0000
  Se  Se1       1.0  0.15316055715084076  0.18969278037548065  0.815037190914154  1.0000
