data_image0
_chemical_formula_structural       Ir6NiSe2
_chemical_formula_sum              "Ir6 Ni1 Se2"
_cell_length_a       4.351996845175812
_cell_length_b       4.378352780861962
_cell_length_c       7.805667877197266
_cell_angle_alpha    81.53142389996437
_cell_angle_beta     76.73954844347118
_cell_angle_gamma    67.97518784922856

_space_group_name_H-M_alt    "P 1"
_space_group_IT_number       1

loop_
  _space_group_symop_operation_xyz
  'x, y, z'

loop_
  _atom_site_type_symbol
  _atom_site_label
  _atom_site_symmetry_multiplicity
  _atom_site_fract_x
  _atom_site_fract_y
  _atom_site_fract_z
  _atom_site_occupancy
  Ir  Ir1       1.0  0.3711302876472473  0.6907699704170227  0.06064064428210259  1.0000
  Ir  Ir2       1.0  0.12743620574474335  0.21192985773086548  0.9540877342224122  1.0000
  Ir  Ir3       1.0  0.867794930934906  0.36715447902679443  0.7485926747322084  1.0000
  Ir  Ir4       1.0  0.37897998094558716  0.1493956744670868  0.22654613852500918  1.0000
  Ir  Ir5       1.0  0.13008341193199158  0.3889217674732208  0.07565924525260925  1.0000
  Ir  Ir6       1.0  0.6450458765029907  0.45974966883659363  0.034160323441028595  1.0000
  Ni  Ni1       1.0  0.800990104675293  0.5659303665161133  0.9646440744400026  1.0000
  Se  Se1       1.0  0.4532836377620697  0.16174501180648804  0.8394415974617006  1.0000
  Se  Se2       1.0  0.3006032109260559  0.5871918201446533  0.7587319612503053  1.0000
