data_image0
_chemical_formula_structural       HI2InIr4Ni
_chemical_formula_sum              "H1 I2 In1 Ir4 Ni1"
_cell_length_a       5.588711088088134
_cell_length_b       5.693870225590597
_cell_length_c       6.748600959777832
_cell_angle_alpha    76.24359498867794
_cell_angle_beta     67.85912487470527
_cell_angle_gamma    62.63087032910488

_space_group_name_H-M_alt    "P 1"
_space_group_IT_number       1

loop_
  _space_group_symop_operation_xyz
  'x, y, z'

loop_
  _atom_site_type_symbol
  _atom_site_label
  _atom_site_symmetry_multiplicity
  _atom_site_fract_x
  _atom_site_fract_y
  _atom_site_fract_z
  _atom_site_occupancy
  H   H1        1.0  0.8576915264129639  0.07258666306734085  0.583920419216156  1.0000
  I   I1        1.0  0.1832977831363678  0.6981374621391296  0.5871542096138  1.0000
  I   I2        1.0  0.3769792914390564  0.7895963788032532  0.5335971117019653  1.0000
  In  In1       1.0  0.852706253528595  0.3968377411365509  0.7588139772415161  1.0000
  Ir  Ir1       1.0  0.8667376041412354  0.8515065908432007  0.76554936170578  1.0000
  Ir  Ir2       1.0  0.3651762306690216  0.8154131174087524  0.8678144216537476  1.0000
  Ir  Ir3       1.0  0.9067452549934387  0.9306430220603943  0.44695746898651123  1.0000
  Ir  Ir4       1.0  0.4359366297721863  0.7063906788825989  0.6483452320098877  1.0000
  Ni  Ni1       1.0  0.4172615706920624  0.018184933811426163  0.7136371731758118  1.0000
