data_image0
_chemical_formula_structural       Ir6NiSe2
_chemical_formula_sum              "Ir6 Ni1 Se2"
_cell_length_a       3.896271939221904
_cell_length_b       3.6086037799239974
_cell_length_c       7.14676570892334
_cell_angle_alpha    88.0391658912274
_cell_angle_beta     87.40612238702226
_cell_angle_gamma    84.16973843063047

_space_group_name_H-M_alt    "P 1"
_space_group_IT_number       1

loop_
  _space_group_symop_operation_xyz
  'x, y, z'

loop_
  _atom_site_type_symbol
  _atom_site_label
  _atom_site_symmetry_multiplicity
  _atom_site_fract_x
  _atom_site_fract_y
  _atom_site_fract_z
  _atom_site_occupancy
  Ir  Ir1       1.0  0.3489384949207306  0.9394445419311523  0.508484959602356  1.0000
  Ir  Ir2       1.0  0.84687739610672  0.24488714337348938  0.7404093742370605  1.0000
  Ir  Ir3       1.0  0.5384721159934998  0.07425861805677414  0.21080644428730014  1.0000
  Ir  Ir4       1.0  0.3517223596572876  0.9265814423561096  0.7322375774383545  1.0000
  Ir  Ir5       1.0  0.34866586327552795  0.20826317369937897  0.6571687459945679  1.0000
  Ir  Ir6       1.0  0.8492385149002075  0.7559900879859924  0.09035627543926239  1.0000
  Ni  Ni1       1.0  0.8455439209938049  0.30102792382240295  0.5501219630241394  1.0000
  Se  Se1       1.0  0.34388720989227295  0.37317633628845215  0.41877409815788275  1.0000
  Se  Se2       1.0  0.8574449419975281  0.6415908336639404  0.9779011011123658  1.0000
