data_image0
_chemical_formula_structural       IIr6NiSe
_chemical_formula_sum              "I1 Ir6 Ni1 Se1"
_cell_length_a       5.5049049654571585
_cell_length_b       5.709218603267727
_cell_length_c       6.107115745544434
_cell_angle_alpha    88.98881397166005
_cell_angle_beta     89.21538481805743
_cell_angle_gamma    90.25374825338636

_space_group_name_H-M_alt    "P 1"
_space_group_IT_number       1

loop_
  _space_group_symop_operation_xyz
  'x, y, z'

loop_
  _atom_site_type_symbol
  _atom_site_label
  _atom_site_symmetry_multiplicity
  _atom_site_fract_x
  _atom_site_fract_y
  _atom_site_fract_z
  _atom_site_occupancy
  I   I1        1.0  0.6171194314956665  0.3488776683807373  0.9254117012023926  1.0000
  Ir  Ir1       1.0  0.617591142654419  0.9622607827186584  0.7486925721168518  1.0000
  Ir  Ir2       1.0  0.11167072504758835  0.5074974298477173  0.10279262065887451  1.0000
  Ir  Ir3       1.0  0.12168321013450623  0.8927199244499207  0.41859525442123413  1.0000
  Ir  Ir4       1.0  0.6182590126991272  0.26993653178215027  0.8397732377052307  1.0000
  Ir  Ir5       1.0  0.6179309487342834  0.6855347752571106  0.9847779273986816  1.0000
  Ir  Ir6       1.0  0.1145232543349266  0.9881524443626404  0.24011634290218353  1.0000
  Ni  Ni1       1.0  0.401796817779541  0.5284112691879272  0.6550160646438599  1.0000
  Se  Se1       1.0  0.1083436980843544  0.11873115599155426  0.03991539776325226  1.0000
