data_image0
_chemical_formula_structural       HI5OPTi
_chemical_formula_sum              "H1 I5 O1 P1 Ti1"
_cell_length_a       6.384461485697974
_cell_length_b       6.015450831256236
_cell_length_c       8.33326244354248
_cell_angle_alpha    75.19327354925775
_cell_angle_beta     70.57211747410186
_cell_angle_gamma    61.4499061182129

_space_group_name_H-M_alt    "P 1"
_space_group_IT_number       1

loop_
  _space_group_symop_operation_xyz
  'x, y, z'

loop_
  _atom_site_type_symbol
  _atom_site_label
  _atom_site_symmetry_multiplicity
  _atom_site_fract_x
  _atom_site_fract_y
  _atom_site_fract_z
  _atom_site_occupancy
  H   H1        1.0  0.021227823570370674  0.5210539102554321  0.0007647235179319978  1.0000
  I   I1        1.0  0.4085393846035004  0.8231759667396545  0.7714579105377197  1.0000
  I   I2        1.0  0.8605406880378724  0.7103549838066101  0.7540987730026245  1.0000
  I   I3        1.0  0.3788158297538757  0.9927198886871339  0.7973177433013916  1.0000
  I   I4        1.0  0.39176967740058904  0.587392270565033  0.9504594206809998  1.0000
  I   I5        1.0  0.8902390003204347  0.7521560192108154  0.765902042388916  1.0000
  O   O1        1.0  0.45776271820068365  0.5788004398345947  0.610042929649353  1.0000
  P   P1        1.0  0.5452762842178345  0.08064070343971252  0.4970151484012603  1.0000
  Ti  Ti1       1.0  0.21034485101699832  0.6217794418334961  0.9005816578865051  1.0000
