data_image0
_chemical_formula_structural       I4O2PTbTi
_chemical_formula_sum              "I4 O2 P1 Tb1 Ti1"
_cell_length_a       6.148584904794035
_cell_length_b       6.197153535574709
_cell_length_c       6.815833568572998
_cell_angle_alpha    68.40407044499057
_cell_angle_beta     66.57991677535394
_cell_angle_gamma    63.50295322395395

_space_group_name_H-M_alt    "P 1"
_space_group_IT_number       1

loop_
  _space_group_symop_operation_xyz
  'x, y, z'

loop_
  _atom_site_type_symbol
  _atom_site_label
  _atom_site_symmetry_multiplicity
  _atom_site_fract_x
  _atom_site_fract_y
  _atom_site_fract_z
  _atom_site_occupancy
  I   I1        1.0  0.3194395005702973  0.8593970537185668  0.5008887052536011  1.0000
  I   I2        1.0  0.8970955610275269  0.18986181914806366  0.2206508964300156  1.0000
  I   I3        1.0  0.14569666981697083  0.24677821993827817  0.8150302171707154  1.0000
  I   I4        1.0  0.8891432881355286  0.40447792410850525  0.5453211665153503  1.0000
  O   O1        1.0  0.3809031546115875  0.5722060203552246  0.011675370857119562  1.0000
  O   O2        1.0  0.35278928279876715  0.9741808176040648  0.8347573280334474  1.0000
  P   P1        1.0  0.9145724177360535  0.2730448842048645  0.0037200399674475523  1.0000
  Tb  Tb1       1.0  0.7472953200340271  0.4785372614860534  0.8649876713752748  1.0000
  Ti  Ti1       1.0  0.3986523449420929  0.3660501539707184  0.39523294568061834  1.0000
