data_image0
_chemical_formula_structural       I3O3Ti3
_chemical_formula_sum              "I3 O3 Ti3"
_cell_length_a       5.268678444635207
_cell_length_b       4.573304463762646
_cell_length_c       6.57894229888916
_cell_angle_alpha    90.10161748596157
_cell_angle_beta     90.53045748183281
_cell_angle_gamma    100.52303052502421

_space_group_name_H-M_alt    "P 1"
_space_group_IT_number       1

loop_
  _space_group_symop_operation_xyz
  'x, y, z'

loop_
  _atom_site_type_symbol
  _atom_site_label
  _atom_site_symmetry_multiplicity
  _atom_site_fract_x
  _atom_site_fract_y
  _atom_site_fract_z
  _atom_site_occupancy
  I   I1        1.0  0.38855513930320745  0.4597907066345215  0.8372123837471008  1.0000
  I   I2        1.0  0.8688482642173768  0.6855050921440125  0.22401349246501923  1.0000
  I   I3        1.0  0.9136802554130555  0.6357651948928833  0.9934514164924622  1.0000
  O   O1        1.0  0.2051406800746918  0.922090470790863  0.50416100025177  1.0000
  O   O2        1.0  0.45206272602081304  0.6552209854125977  0.9264504909515381  1.0000
  O   O3        1.0  0.7173389196395874  0.19382710754871368  0.7148664593696594  1.0000
  Ti  Ti1       1.0  0.1493627279996872  0.3565714657306671  0.3769565522670746  1.0000
  Ti  Ti2       1.0  0.46764123439788824  0.8052635192871094  0.5613172054290771  1.0000
  Ti  Ti3       1.0  0.9603217244148256  0.4456571936607361  0.3868487775325775  1.0000
