data_image0
_chemical_formula_structural       I5OPTiZr
_chemical_formula_sum              "I5 O1 P1 Ti1 Zr1"
_cell_length_a       5.606925598200112
_cell_length_b       5.990613172988714
_cell_length_c       8.210894584655762
_cell_angle_alpha    89.92621235525002
_cell_angle_beta     90.10362722765295
_cell_angle_gamma    112.92301310603861

_space_group_name_H-M_alt    "P 1"
_space_group_IT_number       1

loop_
  _space_group_symop_operation_xyz
  'x, y, z'

loop_
  _atom_site_type_symbol
  _atom_site_label
  _atom_site_symmetry_multiplicity
  _atom_site_fract_x
  _atom_site_fract_y
  _atom_site_fract_z
  _atom_site_occupancy
  I   I1        1.0  0.5913776755332947  0.9733888506889343  0.2754659652709961  1.0000
  I   I2        1.0  0.13395564258098602  0.9244809150695801  0.18286055326461792  1.0000
  I   I3        1.0  0.6025582551956177  0.6586315035820007  0.5907562375068665  1.0000
  I   I4        1.0  0.07883711904287338  0.28065821528434753  0.6923725605010986  1.0000
  I   I5        1.0  0.13177445530891418  0.35604268312454224  0.304479718208313  1.0000
  O   O1        1.0  0.7222976684570312  0.08393605798482895  0.5623756051063538  1.0000
  P   P1        1.0  0.7447662949562073  0.21458227932453156  0.5996337532997131  1.0000
  Ti  Ti1       1.0  0.14167816936969757  0.1625344455242157  0.9730115532875061  1.0000
  Zr  Zr1       1.0  0.10945173352956772  0.7977827191352844  0.1390620619058609  1.0000
