data_image0
_chemical_formula_structural       I3O2Ti4
_chemical_formula_sum              "I3 O2 Ti4"
_cell_length_a       5.603901612757358
_cell_length_b       5.362633580258455
_cell_length_c       5.482997894287109
_cell_angle_alpha    108.58346950380354
_cell_angle_beta     104.66817862758549
_cell_angle_gamma    103.35018181626572

_space_group_name_H-M_alt    "P 1"
_space_group_IT_number       1

loop_
  _space_group_symop_operation_xyz
  'x, y, z'

loop_
  _atom_site_type_symbol
  _atom_site_label
  _atom_site_symmetry_multiplicity
  _atom_site_fract_x
  _atom_site_fract_y
  _atom_site_fract_z
  _atom_site_occupancy
  I   I1        1.0  0.853083610534668  0.965435802936554  0.6745945811271667  1.0000
  I   I2        1.0  0.8609961271286011  0.11960655450820923  0.6435283422470093  1.0000
  I   I3        1.0  0.6127834916114807  0.03038862533867359  0.06172008439898491  1.0000
  O   O1        1.0  0.6842463612556458  0.262916624546051  0.22735175490379333  1.0000
  O   O2        1.0  0.08523942530155182  0.42578092217445374  0.959252655506134  1.0000
  Ti  Ti1       1.0  0.37435436248779297  0.5176190733909607  0.2520122230052948  1.0000
  Ti  Ti2       1.0  0.3729914128780365  0.4048524796962738  0.15378820896148682  1.0000
  Ti  Ti3       1.0  0.3800138533115387  0.30838486552238464  0.11323795467615128  1.0000
  Ti  Ti4       1.0  0.9942148923873901  0.24305394291877747  0.0016396840801462531  1.0000
