data_image0
_chemical_formula_structural       KLi7PZn
_chemical_formula_sum              "K1 Li7 P1 Zn1"
_cell_length_a       4.621363614829579
_cell_length_b       5.001491292462106
_cell_length_c       5.512880802154541
_cell_angle_alpha    98.96405902104979
_cell_angle_beta     102.07786055948507
_cell_angle_gamma    114.75094289898301

_space_group_name_H-M_alt    "P 1"
_space_group_IT_number       1

loop_
  _space_group_symop_operation_xyz
  'x, y, z'

loop_
  _atom_site_type_symbol
  _atom_site_label
  _atom_site_symmetry_multiplicity
  _atom_site_fract_x
  _atom_site_fract_y
  _atom_site_fract_z
  _atom_site_occupancy
  K   K1        1.0  0.856372594833374  0.49601343274116516  0.6237727403640747  1.0000
  Li  Li1       1.0  0.8546828627586365  0.7361316680908203  0.8240602016448975  1.0000
  Li  Li2       1.0  0.3701050281524658  0.9712440967559814  0.24481607973575586  1.0000
  Li  Li3       1.0  0.37862351536750793  0.983726441860199  0.38463714718818665  1.0000
  Li  Li4       1.0  0.3617393374443054  0.7798464298248291  0.4732508659362793  1.0000
  Li  Li5       1.0  0.36946505308151245  0.46751102805137634  0.7227072715759277  1.0000
  Li  Li6       1.0  0.01561969704926014  0.5700975060462952  0.08898274600505826  1.0000
  Li  Li7       1.0  0.8935774564743042  0.8495592474937439  0.6514437198638916  1.0000
  P   P1        1.0  0.8554165363311768  0.682268500328064  0.8229287266731262  1.0000
  Zn  Zn1       1.0  0.871135413646698  0.4863578677177429  0.1116858720779419  1.0000
