data_image0
_chemical_formula_structural       FeGaI2Li6
_chemical_formula_sum              "Fe1 Ga1 I2 Li6"
_cell_length_a       4.797147876833497
_cell_length_b       4.779473706684703
_cell_length_c       5.367825508117676
_cell_angle_alpha    95.33793308807131
_cell_angle_beta     106.14677658649067
_cell_angle_gamma    116.57065574786145

_space_group_name_H-M_alt    "P 1"
_space_group_IT_number       1

loop_
  _space_group_symop_operation_xyz
  'x, y, z'

loop_
  _atom_site_type_symbol
  _atom_site_label
  _atom_site_symmetry_multiplicity
  _atom_site_fract_x
  _atom_site_fract_y
  _atom_site_fract_z
  _atom_site_occupancy
  Fe  Fe1       1.0  0.4136165976524353  0.4054400622844696  0.02878228761255741  1.0000
  Ga  Ga1       1.0  0.10168485343456268  0.8260933756828308  0.8453813195228577  1.0000
  I   I1        1.0  0.7909165620803833  0.8629441857337952  0.8925382494926453  1.0000
  I   I2        1.0  0.4028467833995819  0.3882678151130676  0.2062372863292694  1.0000
  Li  Li1       1.0  0.833842933177948  0.7737433910369873  0.2689250707626343  1.0000
  Li  Li2       1.0  0.40273532271385193  0.015316438861191273  0.6264066696166992  1.0000
  Li  Li3       1.0  0.04970673471689224  0.08545180410146713  0.7154076099395752  1.0000
  Li  Li4       1.0  0.39748087525367737  0.6854567527770996  0.9217187762260437  1.0000
  Li  Li5       1.0  0.8963006138801575  0.4426286518573761  0.5840515494346619  1.0000
  Li  Li6       1.0  0.8352370262145996  0.536345362663269  0.4454871714115143  1.0000
