data_image0
_chemical_formula_structural       Li9Mg
_chemical_formula_sum              "Li9 Mg1"
_cell_length_a       5.4358510221666
_cell_length_b       5.0780354250862585
_cell_length_c       5.15748405456543
_cell_angle_alpha    67.98560567630506
_cell_angle_beta     65.48560782468061
_cell_angle_gamma    61.67103266494833

_space_group_name_H-M_alt    "P 1"
_space_group_IT_number       1

loop_
  _space_group_symop_operation_xyz
  'x, y, z'

loop_
  _atom_site_type_symbol
  _atom_site_label
  _atom_site_symmetry_multiplicity
  _atom_site_fract_x
  _atom_site_fract_y
  _atom_site_fract_z
  _atom_site_occupancy
  Li  Li1       1.0  0.25253432989120483  0.0113324960693717  0.23731333017349243  1.0000
  Li  Li2       1.0  0.87945955991745  0.2933802306652069  0.40248775482177734  1.0000
  Li  Li3       1.0  0.45198139548301697  0.04346220940351486  0.2686440646648407  1.0000
  Li  Li4       1.0  0.7527478933334351  0.7864051461219788  0.7579406499862671  1.0000
  Li  Li5       1.0  0.4124511480331421  0.8158531785011292  0.9342874884605408  1.0000
  Li  Li6       1.0  0.7368214130401611  0.6575776934623718  0.5954225659370423  1.0000
  Li  Li7       1.0  0.742128312587738  0.540998637676239  0.5828819870948792  1.0000
  Li  Li8       1.0  0.02656569518148899  0.1707015186548233  0.6175287961959839  1.0000
  Li  Li9       1.0  0.7553437948226929  0.9478242993354797  0.7654060125350952  1.0000
  Mg  Mg1       1.0  0.16642941534519196  0.18541571497917175  0.8309118747711182  1.0000
