data_image0
_chemical_formula_structural       Li9Ni
_chemical_formula_sum              "Li9 Ni1"
_cell_length_a       4.320674924780038
_cell_length_b       3.2869524934318877
_cell_length_c       3.775599241256714
_cell_angle_alpha    64.23102969486172
_cell_angle_beta     85.54107393225642
_cell_angle_gamma    79.49977684647469

_space_group_name_H-M_alt    "P 1"
_space_group_IT_number       1

loop_
  _space_group_symop_operation_xyz
  'x, y, z'

loop_
  _atom_site_type_symbol
  _atom_site_label
  _atom_site_symmetry_multiplicity
  _atom_site_fract_x
  _atom_site_fract_y
  _atom_site_fract_z
  _atom_site_occupancy
  Li  Li1       1.0  0.18666088581085205  0.0003726560098584742  0.5523718595504761  1.0000
  Li  Li2       1.0  0.730201780796051  0.09209935367107393  0.9339292645454407  1.0000
  Li  Li3       1.0  0.502896249294281  0.7111009955406189  0.06265734881162638  1.0000
  Li  Li4       1.0  0.2854500710964203  0.703300952911377  0.2598363757133484  1.0000
  Li  Li5       1.0  0.5055591464042664  0.08674424886703491  0.9945640563964844  1.0000
  Li  Li6       1.0  0.47508135437965393  0.21498602628707889  0.43665406107902527  1.0000
  Li  Li7       1.0  0.7431327104568481  0.7628310322761537  0.7976236343383789  1.0000
  Li  Li8       1.0  0.18592992424964905  0.5224071741104126  0.27037879824638367  1.0000
  Li  Li9       1.0  0.007625750266015517  0.9292426705360414  0.26544612646102894  1.0000
  Ni  Ni1       1.0  0.9527755379676819  0.35626375675201416  0.864730954170227  1.0000
