data_image0
_chemical_formula_structural       GaILi6NiP
_chemical_formula_sum              "Ga1 I1 Li6 Ni1 P1"
_cell_length_a       4.271799286509622
_cell_length_b       3.653661546694163
_cell_length_c       4.118875026702881
_cell_angle_alpha    74.17883954101406
_cell_angle_beta     81.7332046755384
_cell_angle_gamma    67.56009041605869

_space_group_name_H-M_alt    "P 1"
_space_group_IT_number       1

loop_
  _space_group_symop_operation_xyz
  'x, y, z'

loop_
  _atom_site_type_symbol
  _atom_site_label
  _atom_site_symmetry_multiplicity
  _atom_site_fract_x
  _atom_site_fract_y
  _atom_site_fract_z
  _atom_site_occupancy
  Ga  Ga1       1.0  0.3707311153411865  0.7775677442550659  0.4449451267719269  1.0000
  I   I1        1.0  0.7110128402709961  0.413953959941864  0.4355239272117615  1.0000
  Li  Li1       1.0  0.9256150722503662  0.3093623220920563  0.450135201215744  1.0000
  Li  Li2       1.0  0.9013504981994629  0.7631514668464661  0.902923583984375  1.0000
  Li  Li3       1.0  0.4226354658603668  0.8324364423751831  0.6664480566978455  1.0000
  Li  Li4       1.0  0.24271973967552185  0.8964604139328003  0.4700146019458771  1.0000
  Li  Li5       1.0  0.30997201800346375  0.6113412976264954  0.06726046651601791  1.0000
  Li  Li6       1.0  0.878836452960968  0.868026852607727  0.7484145164489746  1.0000
  Ni  Ni1       1.0  0.5574116706848145  0.27721643447875977  0.39866676926612854  1.0000
  P   P1        1.0  0.32243767380714417  0.8244748711585999  0.2975212335586548  1.0000
