data_image0
_chemical_formula_structural       GaI2Li5ZnZr
_chemical_formula_sum              "Ga1 I2 Li5 Zn1 Zr1"
_cell_length_a       5.665253091417057
_cell_length_b       5.894650348270422
_cell_length_c       6.203600883483887
_cell_angle_alpha    69.11483949352255
_cell_angle_beta     63.49975315935969
_cell_angle_gamma    63.761155504630615

_space_group_name_H-M_alt    "P 1"
_space_group_IT_number       1

loop_
  _space_group_symop_operation_xyz
  'x, y, z'

loop_
  _atom_site_type_symbol
  _atom_site_label
  _atom_site_symmetry_multiplicity
  _atom_site_fract_x
  _atom_site_fract_y
  _atom_site_fract_z
  _atom_site_occupancy
  Ga  Ga1       1.0  0.2405468076467514  0.7683611512184143  0.602033257484436  1.0000
  I   I1        1.0  0.7009388208389282  0.18854637444019318  0.32620054483413696  1.0000
  I   I2        1.0  0.17848007380962372  0.021224964410066605  0.7609655857086182  1.0000
  Li  Li1       1.0  0.5568373799324036  0.6125504970550537  0.03836860507726669  1.0000
  Li  Li2       1.0  0.7981091737747192  0.01436944492161274  0.938262403011322  1.0000
  Li  Li3       1.0  0.7213735580444336  0.7607533931732178  0.40684065222740173  1.0000
  Li  Li4       1.0  0.08134964853525162  0.6261904835700989  0.48918312788009644  1.0000
  Li  Li5       1.0  0.06677424162626266  0.5712857246398926  0.9061453938484192  1.0000
  Zn  Zn1       1.0  0.08874883502721786  0.5145502686500549  0.9844222068786621  1.0000
  Zr  Zr1       1.0  0.75103360414505  0.8053100109100342  0.9209403991699219  1.0000
