data_image0
_chemical_formula_structural       As4UZn
_chemical_formula_sum              "As4 U1 Zn1"
_cell_length_a       4.825935298357124
_cell_length_b       4.622349743249407
_cell_length_c       7.1563191413879395
_cell_angle_alpha    108.59493346963711
_cell_angle_beta     90.35645821705212
_cell_angle_gamma    90.58680194831865

_space_group_name_H-M_alt    "P 1"
_space_group_IT_number       1

loop_
  _space_group_symop_operation_xyz
  'x, y, z'

loop_
  _atom_site_type_symbol
  _atom_site_label
  _atom_site_symmetry_multiplicity
  _atom_site_fract_x
  _atom_site_fract_y
  _atom_site_fract_z
  _atom_site_occupancy
  As  As1       1.0  0.1499779224395752  0.7681618332862854  0.195512592792511  1.0000
  As  As2       1.0  0.4082778990268707  0.27164778113365173  0.3338087201118469  1.0000
  As  As3       1.0  0.653973400592804  0.9119231700897217  0.015138110145926507  1.0000
  As  As4       1.0  0.6555483341217041  0.8765692114830017  0.24301728606224063  1.0000
  U   U1        1.0  0.6587331295013428  0.827376663684845  0.449129581451416  1.0000
  Zn  Zn1       1.0  0.13914652168750763  0.0647178515791893  0.4115784168243408  1.0000
