data_image0
_chemical_formula_structural       As2FNp3
_chemical_formula_sum              "As2 F1 Np3"
_cell_length_a       4.607847693760302
_cell_length_b       5.692572080813289
_cell_length_c       6.735404968261719
_cell_angle_alpha    120.43831462639756
_cell_angle_beta     90.49867716934226
_cell_angle_gamma    89.04411029287375

_space_group_name_H-M_alt    "P 1"
_space_group_IT_number       1

loop_
  _space_group_symop_operation_xyz
  'x, y, z'

loop_
  _atom_site_type_symbol
  _atom_site_label
  _atom_site_symmetry_multiplicity
  _atom_site_fract_x
  _atom_site_fract_y
  _atom_site_fract_z
  _atom_site_occupancy
  As  As1       1.0  0.315326064825058  0.6413583159446716  0.5275463461875916  1.0000
  As  As2       1.0  0.3156008720397949  0.22024616599082947  0.02157478593289852  1.0000
  F   F1        1.0  0.3995172083377838  0.2517009675502777  0.7261795997619629  1.0000
  Np  Np1       1.0  0.8170427083969116  0.9934666752815247  0.41248512268066406  1.0000
  Np  Np2       1.0  0.8147814273834229  0.00658793468028307  0.21576550602912903  1.0000
  Np  Np3       1.0  0.8138150572776794  0.08753064274787903  0.03649960830807686  1.0000
