data_image0
_chemical_formula_structural       As5Np
_chemical_formula_sum              "As5 Np1"
_cell_length_a       4.3796647750976945
_cell_length_b       3.868070035145003
_cell_length_c       11.021635055541992
_cell_angle_alpha    92.29819382791979
_cell_angle_beta     89.67833727693008
_cell_angle_gamma    115.71438086834998

_space_group_name_H-M_alt    "P 1"
_space_group_IT_number       1

loop_
  _space_group_symop_operation_xyz
  'x, y, z'

loop_
  _atom_site_type_symbol
  _atom_site_label
  _atom_site_symmetry_multiplicity
  _atom_site_fract_x
  _atom_site_fract_y
  _atom_site_fract_z
  _atom_site_occupancy
  As  As1       1.0  0.08071834594011307  0.9753641486167908  0.8172491192817688  1.0000
  As  As2       1.0  0.9891324639320374  0.24663621187210083  0.4501657485961914  1.0000
  As  As3       1.0  0.4190713167190552  0.9122664928436279  0.3845902383327484  1.0000
  As  As4       1.0  0.7621758580207825  0.1202397570014  0.1969249993562698  1.0000
  As  As5       1.0  0.46771255135536194  0.11552564799785614  0.9686077237129211  1.0000
  Np  Np1       1.0  0.9556605219841003  0.8896883726119995  0.511432409286499  1.0000
