data_image0
_chemical_formula_structural       As3Np2Pr
_chemical_formula_sum              "As3 Np2 Pr1"
_cell_length_a       4.998541259527691
_cell_length_b       5.331312578306721
_cell_length_c       7.362637042999268
_cell_angle_alpha    106.5664645085727
_cell_angle_beta     89.10748658771543
_cell_angle_gamma    104.72969505185397

_space_group_name_H-M_alt    "P 1"
_space_group_IT_number       1

loop_
  _space_group_symop_operation_xyz
  'x, y, z'

loop_
  _atom_site_type_symbol
  _atom_site_label
  _atom_site_symmetry_multiplicity
  _atom_site_fract_x
  _atom_site_fract_y
  _atom_site_fract_z
  _atom_site_occupancy
  As  As1       1.0  0.08629988133907318  0.281304270029068  0.40965491533279413  1.0000
  As  As2       1.0  0.9046674370765686  0.5255492925643921  0.039847537875175455  1.0000
  As  As3       1.0  0.6021512746810913  0.3426606357097626  0.03964780271053314  1.0000
  Np  Np1       1.0  0.5666834712028503  0.4963066577911377  0.8387834429740904  1.0000
  Np  Np2       1.0  0.12167654931545258  0.42186734080314636  0.41350230574607844  1.0000
  Pr  Pr1       1.0  0.6010135412216187  0.3368067443370819  0.12240455299615859  1.0000
