data_image0
_chemical_formula_structural       As4NpPr
_chemical_formula_sum              "As4 Np1 Pr1"
_cell_length_a       5.015551132664741
_cell_length_b       5.700783898351649
_cell_length_c       6.546850681304932
_cell_angle_alpha    90.35017152288253
_cell_angle_beta     89.96388983553744
_cell_angle_gamma    91.04275002474719

_space_group_name_H-M_alt    "P 1"
_space_group_IT_number       1

loop_
  _space_group_symop_operation_xyz
  'x, y, z'

loop_
  _atom_site_type_symbol
  _atom_site_label
  _atom_site_symmetry_multiplicity
  _atom_site_fract_x
  _atom_site_fract_y
  _atom_site_fract_z
  _atom_site_occupancy
  As  As1       1.0  0.15012973546981812  0.43759465217590326  0.09826518595218658  1.0000
  As  As2       1.0  0.6475623846054077  0.013960898853838442  0.26265668869018555  1.0000
  As  As3       1.0  0.6474726796150208  0.8996847867965697  0.03956887498497963  1.0000
  As  As4       1.0  0.13794884085655212  0.9712496995925902  0.7712587714195251  1.0000
  Np  Np1       1.0  0.12762737274169922  0.4511484503746032  0.7302398681640625  1.0000
  Pr  Pr1       1.0  0.6473419666290283  0.30252501368522644  0.021876411512494087  1.0000
