data_image0
_chemical_formula_structural       As4Np2
_chemical_formula_sum              "As4 Np2"
_cell_length_a       4.477754102033703
_cell_length_b       4.979453417462728
_cell_length_c       7.725893020629883
_cell_angle_alpha    111.3495273194385
_cell_angle_beta     92.14077025551963
_cell_angle_gamma    90.60923960150664

_space_group_name_H-M_alt    "P 1"
_space_group_IT_number       1

loop_
  _space_group_symop_operation_xyz
  'x, y, z'

loop_
  _atom_site_type_symbol
  _atom_site_label
  _atom_site_symmetry_multiplicity
  _atom_site_fract_x
  _atom_site_fract_y
  _atom_site_fract_z
  _atom_site_occupancy
  As  As1       1.0  0.07436227053403854  0.34625107049942017  0.9560543894767762  1.0000
  As  As2       1.0  0.2651125490665436  0.8017933964729309  0.7152156233787537  1.0000
  As  As3       1.0  0.7734752297401428  0.9505919218063354  0.029824960976839038  1.0000
  As  As4       1.0  0.282297283411026  0.46105992794036865  0.2335207611322403  1.0000
  Np  Np1       1.0  0.5725452899932861  0.9244908690452576  0.6167095899581909  1.0000
  Np  Np2       1.0  0.7502394318580627  0.3511972427368164  0.8892345428466797  1.0000
