data_image0
_chemical_formula_structural       As3Ru2ScZn
_chemical_formula_sum              "As3 Ru2 Sc1 Zn1"
_cell_length_a       3.9275639535062927
_cell_length_b       5.654049398346567
_cell_length_c       6.498152732849121
_cell_angle_alpha    120.16268103059531
_cell_angle_beta     86.16583568055277
_cell_angle_gamma    100.63803999105068

_space_group_name_H-M_alt    "P 1"
_space_group_IT_number       1

loop_
  _space_group_symop_operation_xyz
  'x, y, z'

loop_
  _atom_site_type_symbol
  _atom_site_label
  _atom_site_symmetry_multiplicity
  _atom_site_fract_x
  _atom_site_fract_y
  _atom_site_fract_z
  _atom_site_occupancy
  As  As1       1.0  0.3951411247253418  0.07118808478116989  0.6826416254043579  1.0000
  As  As2       1.0  0.8498406410217285  0.06555045396089554  0.35699406266212463  1.0000
  As  As3       1.0  0.8633757829666138  0.719603419303894  0.5761234164237976  1.0000
  Ru  Ru1       1.0  0.11034346371889114  0.07479968667030334  0.7955282926559447  1.0000
  Ru  Ru2       1.0  0.37701666355133057  0.4923352003097534  0.11292773485183716  1.0000
  Sc  Sc1       1.0  0.36473166942596436  0.7191886901855469  0.26456525921821594  1.0000
  Zn  Zn1       1.0  0.8907350301742554  0.21368148922920227  0.309646874666214  1.0000
