data_image0
_chemical_formula_structural       As3Ru3Sc
_chemical_formula_sum              "As3 Ru3 Sc1"
_cell_length_a       4.207807949025475
_cell_length_b       6.000755533245875
_cell_length_c       6.296126842498779
_cell_angle_alpha    123.73049699965833
_cell_angle_beta     90.48859729872235
_cell_angle_gamma    87.51131268680405

_space_group_name_H-M_alt    "P 1"
_space_group_IT_number       1

loop_
  _space_group_symop_operation_xyz
  'x, y, z'

loop_
  _atom_site_type_symbol
  _atom_site_label
  _atom_site_symmetry_multiplicity
  _atom_site_fract_x
  _atom_site_fract_y
  _atom_site_fract_z
  _atom_site_occupancy
  As  As1       1.0  0.17846271395683289  0.714166522026062  0.4790942370891571  1.0000
  As  As2       1.0  0.6798699498176575  0.20803815126419067  0.2361121028661728  1.0000
  As  As3       1.0  0.6647340059280396  0.22504866123199463  0.6103668212890625  1.0000
  Ru  Ru1       1.0  0.6823888421058655  0.4600975215435028  0.49727144837379456  1.0000
  Ru  Ru2       1.0  0.6827221512794495  0.4733627736568451  0.501694917678833  1.0000
  Ru  Ru3       1.0  0.16362489759922028  0.7207279205322266  0.005170878954231669  1.0000
  Sc  Sc1       1.0  0.17132289707660675  0.7498599886894226  0.7938351631164551  1.0000
