data_image0
_chemical_formula_structural       As3Ru3Sc
_chemical_formula_sum              "As3 Ru3 Sc1"
_cell_length_a       4.454908826524199
_cell_length_b       5.537294206970683
_cell_length_c       6.638979434967041
_cell_angle_alpha    120.17509240862816
_cell_angle_beta     101.80701484667348
_cell_angle_gamma    88.37399819312964

_space_group_name_H-M_alt    "P 1"
_space_group_IT_number       1

loop_
  _space_group_symop_operation_xyz
  'x, y, z'

loop_
  _atom_site_type_symbol
  _atom_site_label
  _atom_site_symmetry_multiplicity
  _atom_site_fract_x
  _atom_site_fract_y
  _atom_site_fract_z
  _atom_site_occupancy
  As  As1       1.0  0.14963671565055847  0.48099157214164734  0.9314256906509398  1.0000
  As  As2       1.0  0.8998135924339294  0.20520846545696259  0.8730746507644652  1.0000
  As  As3       1.0  0.38978785276412964  0.19051215052604675  0.5901457071304321  1.0000
  Ru  Ru1       1.0  0.1772782951593399  0.46614301204681396  0.4481744766235351  1.0000
  Ru  Ru2       1.0  0.9119418263435364  0.8963788151741028  0.10477728396654128  1.0000
  Ru  Ru3       1.0  0.40507784485816956  0.8061867952346802  0.6977382898330687  1.0000
  Sc  Sc1       1.0  0.6832932233810425  0.5023052096366882  0.43336245417594904  1.0000
