data_image0
_chemical_formula_structural       As2Ru5
_chemical_formula_sum              "As2 Ru5"
_cell_length_a       3.67084028742288
_cell_length_b       5.463614460399595
_cell_length_c       5.601036071777344
_cell_angle_alpha    122.84515557397073
_cell_angle_beta     86.89685204043877
_cell_angle_gamma    90.40248337955045

_space_group_name_H-M_alt    "P 1"
_space_group_IT_number       1

loop_
  _space_group_symop_operation_xyz
  'x, y, z'

loop_
  _atom_site_type_symbol
  _atom_site_label
  _atom_site_symmetry_multiplicity
  _atom_site_fract_x
  _atom_site_fract_y
  _atom_site_fract_z
  _atom_site_occupancy
  As  As1       1.0  0.28357067704200745  0.950873076915741  0.032640814781188965  1.0000
  As  As2       1.0  0.27754998207092285  0.012174922041594982  0.002423333935439588  1.0000
  Ru  Ru1       1.0  0.7860233783721924  0.00884273648262024  0.9934536814689636  1.0000
  Ru  Ru2       1.0  0.7872145771980286  0.5118442177772522  0.7763460874557495  1.0000
  Ru  Ru3       1.0  0.7751551866531372  0.3496004343032837  0.2740132212638855  1.0000
  Ru  Ru4       1.0  0.28716951608657837  0.9978944063186646  0.29259932041168213  1.0000
  Ru  Ru5       1.0  0.7849887013435364  0.2952321767807007  0.7848032712936401  1.0000
