data_image0
_chemical_formula_structural       AsCoGe3In2PPbThU
_chemical_formula_sum              "As1 Co1 Ge3 In2 P1 Pb1 Th1 U1"
_cell_length_a       5.683138890181537
_cell_length_b       6.750239798634113
_cell_length_c       6.8641510009765625
_cell_angle_alpha    118.90940060211149
_cell_angle_beta     90.0245022703629
_cell_angle_gamma    101.00817855572073

_space_group_name_H-M_alt    "P 1"
_space_group_IT_number       1

loop_
  _space_group_symop_operation_xyz
  'x, y, z'

loop_
  _atom_site_type_symbol
  _atom_site_label
  _atom_site_symmetry_multiplicity
  _atom_site_fract_x
  _atom_site_fract_y
  _atom_site_fract_z
  _atom_site_occupancy
  As  As1       1.0  0.7435445785522461  0.9648263454437256  0.5513990521430968  1.0000
  Co  Co1       1.0  0.5007200837135315  0.3491767346858978  0.4905301034450531  1.0000
  Ge  Ge1       1.0  0.7602980136871338  0.25598540902137756  0.35567939281463623  1.0000
  Ge  Ge2       1.0  0.7647706270217896  0.3810683488845825  0.7853691577911377  1.0000
  Ge  Ge3       1.0  0.9835448265075684  0.3301168978214264  0.6249552965164185  1.0000
  In  In1       1.0  0.8988232612609863  0.7755452394485474  0.20821727812290192  1.0000
  In  In2       1.0  0.24765776097774506  0.811271607875824  0.1509190946817398  1.0000
  P   P1        1.0  0.42928510904312134  0.7803086638450623  0.44544699788093567  1.0000
  Pb  Pb1       1.0  0.6934611797332764  0.5547072887420654  0.07834625989198682  1.0000
  Th  Th1       1.0  0.2617807686328888  0.8830076456069946  0.6762098670005798  1.0000
  U   U1        1.0  0.2559754550457001  0.7239927053451538  0.05319340527057648  1.0000
