data_image0
_chemical_formula_structural       Ge3IIrPPb2ReTbZn
_chemical_formula_sum              "Ge3 I1 Ir1 P1 Pb2 Re1 Tb1 Zn1"
_cell_length_a       5.357445523711477
_cell_length_b       6.480904355022915
_cell_length_c       7.203008651733398
_cell_angle_alpha    103.16193161096928
_cell_angle_beta     90.52829340842412
_cell_angle_gamma    89.06824754702541

_space_group_name_H-M_alt    "P 1"
_space_group_IT_number       1

loop_
  _space_group_symop_operation_xyz
  'x, y, z'

loop_
  _atom_site_type_symbol
  _atom_site_label
  _atom_site_symmetry_multiplicity
  _atom_site_fract_x
  _atom_site_fract_y
  _atom_site_fract_z
  _atom_site_occupancy
  Ge  Ge1       1.0  0.36573776602745056  0.6280883550643921  0.04682173207402231  1.0000
  Ge  Ge2       1.0  0.3124544024467468  0.9404166340827943  0.6552978754043579  1.0000
  Ge  Ge3       1.0  0.33749809861183167  0.7148763537406921  0.917432963848114  1.0000
  I   I1        1.0  0.8154885768890381  0.7338197231292726  0.13543477654457095  1.0000
  Ir  Ir1       1.0  0.7947396039962769  0.05244963616132737  0.7163337469100952  1.0000
  P   P1        1.0  0.5989177823066711  0.6441080570220947  0.35862642526626587  1.0000
  Pb  Pb1       1.0  0.5818017721176147  0.13786061108112335  0.9464547634124756  1.0000
  Pb  Pb2       1.0  0.8476706147193909  0.47720366716384893  0.9195544123649597  1.0000
  Re  Re1       1.0  0.2728383243083954  0.037044718861579895  0.22934716939926147  1.0000
  Tb  Tb1       1.0  0.08355887979269028  0.6621381640434265  0.3698744475841522  1.0000
  Zn  Zn1       1.0  0.8064460158348083  0.6615192294120789  0.5240070819854736  1.0000
