data_image0
_chemical_formula_structural       Ge2Os9
_chemical_formula_sum              "Ge2 Os9"
_cell_length_a       4.528781365698852
_cell_length_b       5.442574008827556
_cell_length_c       5.166757583618164
_cell_angle_alpha    131.42000722438837
_cell_angle_beta     89.07379977761819
_cell_angle_gamma    97.8128550782321

_space_group_name_H-M_alt    "P 1"
_space_group_IT_number       1

loop_
  _space_group_symop_operation_xyz
  'x, y, z'

loop_
  _atom_site_type_symbol
  _atom_site_label
  _atom_site_symmetry_multiplicity
  _atom_site_fract_x
  _atom_site_fract_y
  _atom_site_fract_z
  _atom_site_occupancy
  Ge  Ge1       1.0  0.27013978362083435  0.06332141160964966  0.40514102578163147  1.0000
  Ge  Ge2       1.0  0.7654234170913696  0.24465785920619965  0.827674150466919  1.0000
  Os  Os1       1.0  0.7714926600456238  0.6231582760810852  0.3794150352478027  1.0000
  Os  Os2       1.0  0.7643110752105713  0.2186039239168167  0.5484070181846619  1.0000
  Os  Os3       1.0  0.26937273144721985  0.8080683946609497  0.5045660138130187  1.0000
  Os  Os4       1.0  0.27214276790618896  0.513606071472168  0.532036304473877  1.0000
  Os  Os5       1.0  0.767053484916687  0.13914594054222107  0.9122225642204285  1.0000
  Os  Os6       1.0  0.2705744206905365  0.1269739717245102  0.9568400382995605  1.0000
  Os  Os7       1.0  0.7684187889099121  0.8397741317749023  0.8950368762016296  1.0000
  Os  Os8       1.0  0.27475425601005554  0.8678508996963501  0.1677175611257553  1.0000
  Os  Os9       1.0  0.2704242467880249  0.6038841009140015  0.6526827812194823  1.0000
