data_image0
_chemical_formula_structural       Ge2Os6SeTh2
_chemical_formula_sum              "Ge2 Os6 Se1 Th2"
_cell_length_a       5.0107732843122035
_cell_length_b       5.291589983493618
_cell_length_c       5.099007606506348
_cell_angle_alpha    124.89607886098376
_cell_angle_beta     89.19149200272766
_cell_angle_gamma    89.62784509913499

_space_group_name_H-M_alt    "P 1"
_space_group_IT_number       1

loop_
  _space_group_symop_operation_xyz
  'x, y, z'

loop_
  _atom_site_type_symbol
  _atom_site_label
  _atom_site_symmetry_multiplicity
  _atom_site_fract_x
  _atom_site_fract_y
  _atom_site_fract_z
  _atom_site_occupancy
  Ge  Ge1       1.0  0.6533692479133606  0.050944678485393524  0.32187163829803467  1.0000
  Ge  Ge2       1.0  0.6828324794769287  0.14105422794818878  0.8110917806625365  1.0000
  Os  Os1       1.0  0.18693232536315918  0.7503739595413208  0.15401194989681244  1.0000
  Os  Os2       1.0  0.3519914448261261  0.8614551424980164  0.41833934187889094  1.0000
  Os  Os3       1.0  0.08957143127918243  0.4730658531188965  0.9675816893577575  1.0000
  Os  Os4       1.0  0.6827186346054077  0.16259486973285675  0.7208787202835083  1.0000
  Os  Os5       1.0  0.6879481673240662  0.04708307236433029  0.04052763432264327  1.0000
  Os  Os6       1.0  0.45100778341293335  0.6850689649581909  0.9729501605033873  1.0000
  Se  Se1       1.0  0.36675137281417847  0.05010935664176941  0.4885896444320678  1.0000
  Th  Th1       1.0  0.8596681356430054  0.4325510561466217  0.23372595012187955  1.0000
  Th  Th2       1.0  0.12040721625089645  0.17406493425369263  0.420320838689804  1.0000
