data_image0
_chemical_formula_structural       DyGa2Ge2Pb3SeTh2
_chemical_formula_sum              "Dy1 Ga2 Ge2 Pb3 Se1 Th2"
_cell_length_a       5.694633920711164
_cell_length_b       5.906806786741221
_cell_length_c       6.476500511169434
_cell_angle_alpha    103.24187409496004
_cell_angle_beta     87.78328072756797
_cell_angle_gamma    100.67908383799481

_space_group_name_H-M_alt    "P 1"
_space_group_IT_number       1

loop_
  _space_group_symop_operation_xyz
  'x, y, z'

loop_
  _atom_site_type_symbol
  _atom_site_label
  _atom_site_symmetry_multiplicity
  _atom_site_fract_x
  _atom_site_fract_y
  _atom_site_fract_z
  _atom_site_occupancy
  Dy  Dy1       1.0  0.08884026855230331  0.09607310593128204  0.12908828258514404  1.0000
  Ga  Ga1       1.0  0.10640442371368408  0.9481082558631897  0.7594749927520752  1.0000
  Ga  Ga2       1.0  0.10262222588062286  0.7166367173194885  0.441928893327713  1.0000
  Ge  Ge1       1.0  0.6022388935089111  0.05956767499446869  0.8450184464454651  1.0000
  Ge  Ge2       1.0  0.5574920773506165  0.570806622505188  0.9161202311515808  1.0000
  Pb  Pb1       1.0  0.5911787152290344  0.031211795285344124  0.23772720992565155  1.0000
  Pb  Pb2       1.0  0.5935428142547607  0.5586007833480835  0.07361650466918945  1.0000
  Pb  Pb3       1.0  0.09017891436815262  0.7852972149848938  0.8583382368087769  1.0000
  Se  Se1       1.0  0.08594629168510437  0.03194040805101395  0.4757528007030487  1.0000
  Th  Th1       1.0  0.10539107024669647  0.45990005135536194  0.8060508370399475  1.0000
  Th  Th2       1.0  0.6130432486534119  0.37864968180656433  0.4094545841217041  1.0000
