data_image0
_chemical_formula_structural       Ge4Os2Pb3ZnZr
_chemical_formula_sum              "Ge4 Os2 Pb3 Zn1 Zr1"
_cell_length_a       5.634681733343133
_cell_length_b       5.919224141310219
_cell_length_c       6.86348819732666
_cell_angle_alpha    111.16666512321503
_cell_angle_beta     97.56078199387075
_cell_angle_gamma    116.51959195525949

_space_group_name_H-M_alt    "P 1"
_space_group_IT_number       1

loop_
  _space_group_symop_operation_xyz
  'x, y, z'

loop_
  _atom_site_type_symbol
  _atom_site_label
  _atom_site_symmetry_multiplicity
  _atom_site_fract_x
  _atom_site_fract_y
  _atom_site_fract_z
  _atom_site_occupancy
  Ge  Ge1       1.0  0.5020636916160583  0.6210455894470215  0.1890971511602402  1.0000
  Ge  Ge2       1.0  0.0231088325381279  0.37666571140289307  0.9501261115074157  1.0000
  Ge  Ge3       1.0  0.208208292722702  0.18339096009731293  0.3460785746574402  1.0000
  Ge  Ge4       1.0  0.672028124332428  0.10348199307918549  0.5246562361717224  1.0000
  Os  Os1       1.0  0.24348630011081693  0.8910964727401733  0.20788985490798947  1.0000
  Os  Os2       1.0  0.020334627479314804  0.6099521517753601  0.04059530422091487  1.0000
  Pb  Pb1       1.0  0.01627945341169834  0.08365439623594284  0.11018642783164977  1.0000
  Pb  Pb2       1.0  0.23650334775447843  0.06638725101947784  0.8725832700729369  1.0000
  Pb  Pb3       1.0  0.6816346645355225  0.6706176996231079  0.9965670704841613  1.0000
  Zn  Zn1       1.0  0.6620807647705078  0.2563723623752594  0.8247269392013549  1.0000
  Zr  Zr1       1.0  0.7415695786476135  0.6474795341491699  0.6044780015945435  1.0000
