data_image0
_chemical_formula_structural       Ba4IrORuZr2
_chemical_formula_sum              "Ba4 Ir1 O1 Ru1 Zr2"
_cell_length_a       5.596618668858524
_cell_length_b       6.138174634910876
_cell_length_c       8.845769882202148
_cell_angle_alpha    78.9695945192916
_cell_angle_beta     72.40305525488922
_cell_angle_gamma    65.37372750987772

_space_group_name_H-M_alt    "P 1"
_space_group_IT_number       1

loop_
  _space_group_symop_operation_xyz
  'x, y, z'

loop_
  _atom_site_type_symbol
  _atom_site_label
  _atom_site_symmetry_multiplicity
  _atom_site_fract_x
  _atom_site_fract_y
  _atom_site_fract_z
  _atom_site_occupancy
  Ba  Ba1       1.0  0.23117178678512573  0.4920749366283417  0.5929060578346252  1.0000
  Ba  Ba2       1.0  0.7245523929595947  0.46661967039108276  0.6716006994247437  1.0000
  Ba  Ba3       1.0  0.2305246740579605  0.6183035969734192  0.10666000097990036  1.0000
  Ba  Ba4       1.0  0.7316650748252869  0.05590110644698143  0.28745999932289124  1.0000
  Ir  Ir1       1.0  0.7334916591644287  0.5681759715080261  0.7889002561569214  1.0000
  O   O1        1.0  0.21533337235450745  0.597476601600647  0.47833237051963806  1.0000
  Ru  Ru1       1.0  0.23658829927444458  0.08234477043151855  0.8922315835952759  1.0000
  Zr  Zr1       1.0  0.7371859550476074  0.1269867718219757  0.9018346071243286  1.0000
  Zr  Zr2       1.0  0.22971276938915253  0.36870038509368896  0.0988646149635315  1.0000
