data_image0
_chemical_formula_structural       Ba4HIrPdRhS
_chemical_formula_sum              "Ba4 H1 Ir1 Pd1 Rh1 S1"
_cell_length_a       5.413681212726382
_cell_length_b       6.087699752358628
_cell_length_c       5.8997015953063965
_cell_angle_alpha    58.6172746762064
_cell_angle_beta     71.71826654584896
_cell_angle_gamma    71.96540865391306

_space_group_name_H-M_alt    "P 1"
_space_group_IT_number       1

loop_
  _space_group_symop_operation_xyz
  'x, y, z'

loop_
  _atom_site_type_symbol
  _atom_site_label
  _atom_site_symmetry_multiplicity
  _atom_site_fract_x
  _atom_site_fract_y
  _atom_site_fract_z
  _atom_site_occupancy
  Ba  Ba1       1.0  0.03411593288183212  0.2990487217903137  0.9584402441978453  1.0000
  Ba  Ba2       1.0  0.5233163833618164  0.3085704445838928  0.2511362433433532  1.0000
  Ba  Ba3       1.0  0.5279439091682434  0.2612084448337555  0.8191877603530884  1.0000
  Ba  Ba4       1.0  0.5242679715156555  0.08853655308485031  0.5700304508209229  1.0000
  H   H1        1.0  0.5318719148635864  0.3284836411476135  0.6406028270721436  1.0000
  Ir  Ir1       1.0  0.015356084331870079  0.9206753969192505  0.5699570775032041  1.0000
  Pd  Pd1       1.0  0.26039350032806396  0.654739499092102  0.5183746218681334  1.0000
  Rh  Rh1       1.0  0.023106910288333893  0.29132792353630066  0.8213862776756287  1.0000
  S   S1        1.0  0.9858025312423706  0.11776658892631532  0.38986220955848694  1.0000
