data_image0
_chemical_formula_structural       Ba3Ir6
_chemical_formula_sum              "Ba3 Ir6"
_cell_length_a       4.949179341223063
_cell_length_b       4.720893428348632
_cell_length_c       10.793774604797363
_cell_angle_alpha    94.19295124976466
_cell_angle_beta     93.8585549860872
_cell_angle_gamma    95.82713672081685

_space_group_name_H-M_alt    "P 1"
_space_group_IT_number       1

loop_
  _space_group_symop_operation_xyz
  'x, y, z'

loop_
  _atom_site_type_symbol
  _atom_site_label
  _atom_site_symmetry_multiplicity
  _atom_site_fract_x
  _atom_site_fract_y
  _atom_site_fract_z
  _atom_site_occupancy
  Ba  Ba1       1.0  0.3477519750595093  0.9139954447746277  0.8209147453308107  1.0000
  Ba  Ba2       1.0  0.35500603914260864  0.6558699607849121  0.698071300983429  1.0000
  Ba  Ba3       1.0  0.5611509680747986  0.6543947458267212  0.3837890326976776  1.0000
  Ir  Ir1       1.0  0.3448791205883026  0.9495545625686646  0.517169713973999  1.0000
  Ir  Ir2       1.0  0.8555627465248108  0.03538079187273979  0.7153891324996948  1.0000
  Ir  Ir3       1.0  0.07270579785108566  0.4526332914829254  0.3928585052490235  1.0000
  Ir  Ir4       1.0  0.8478969931602478  0.9428133368492126  0.9341374635696412  1.0000
  Ir  Ir5       1.0  0.035650547593832016  0.9648545384407043  0.28449776768684387  1.0000
  Ir  Ir6       1.0  0.8449196815490723  0.15579986572265625  0.5811030268669128  1.0000
