data_image0
_chemical_formula_structural       Ba4HIr2OsRh
_chemical_formula_sum              "Ba4 H1 Ir2 Os1 Rh1"
_cell_length_a       4.4838498412479355
_cell_length_b       6.176937665250603
_cell_length_c       7.117851734161377
_cell_angle_alpha    123.14776475903982
_cell_angle_beta     91.68429493928511
_cell_angle_gamma    87.22305528696221

_space_group_name_H-M_alt    "P 1"
_space_group_IT_number       1

loop_
  _space_group_symop_operation_xyz
  'x, y, z'

loop_
  _atom_site_type_symbol
  _atom_site_label
  _atom_site_symmetry_multiplicity
  _atom_site_fract_x
  _atom_site_fract_y
  _atom_site_fract_z
  _atom_site_occupancy
  Ba  Ba1       1.0  0.030145250260829922  0.9177664518356323  0.5108856558799743  1.0000
  Ba  Ba2       1.0  0.5321378707885742  0.0681317150592804  0.37976688146591187  1.0000
  Ba  Ba3       1.0  0.02719203010201454  0.9158167243003845  0.17266020178794853  1.0000
  Ba  Ba4       1.0  0.030170001089572903  0.019721530377864838  0.6598014831542969  1.0000
  H   H1        1.0  0.5292930603027344  0.8277775049209595  0.31638327240943903  1.0000
  Ir  Ir1       1.0  0.02766159549355507  0.421968936920166  0.25524407625198364  1.0000
  Ir  Ir2       1.0  0.029390942305326465  0.9757614731788634  0.24910989403724662  1.0000
  Os  Os1       1.0  0.02920560352504253  0.9247048497200012  0.4601232409477233  1.0000
  Rh  Rh1       1.0  0.5305058360099792  0.5134321451187134  0.7851402163505554  1.0000
