data_image0
_chemical_formula_structural       Ba2HInIr3RhZr
_chemical_formula_sum              "Ba2 H1 In1 Ir3 Rh1 Zr1"
_cell_length_a       5.144775202782299
_cell_length_b       5.119692891425554
_cell_length_c       7.770918846130371
_cell_angle_alpha    106.31445998096001
_cell_angle_beta     91.14983958504646
_cell_angle_gamma    89.61850467955111

_space_group_name_H-M_alt    "P 1"
_space_group_IT_number       1

loop_
  _space_group_symop_operation_xyz
  'x, y, z'

loop_
  _atom_site_type_symbol
  _atom_site_label
  _atom_site_symmetry_multiplicity
  _atom_site_fract_x
  _atom_site_fract_y
  _atom_site_fract_z
  _atom_site_occupancy
  Ba  Ba1       1.0  0.6835625767707825  0.08245096355676651  0.7312110066413879  1.0000
  Ba  Ba2       1.0  0.6790834665298462  0.2772672474384308  0.7560817003250122  1.0000
  H   H1        1.0  0.44496285915374756  0.8250819444656372  0.4461256563663482  1.0000
  In  In1       1.0  0.18216080963611603  0.1120215505361557  0.6423126459121704  1.0000
  Ir  Ir1       1.0  0.18483789265155792  0.1054900512099266  0.48756402730941767  1.0000
  Ir  Ir2       1.0  0.1830667108297348  0.9310934543609619  0.572541356086731  1.0000
  Ir  Ir3       1.0  0.1839720904827118  0.6253408789634705  0.3127509653568268  1.0000
  Rh  Rh1       1.0  0.6803531646728516  0.6702659726142883  0.1681775152683258  1.0000
  Zr  Zr1       1.0  0.960019052028656  0.6844990849494934  0.09539458155632019  1.0000
