data_image0
_chemical_formula_structural       HNd5O3Si
_chemical_formula_sum              "H1 Nd5 O3 Si1"
_cell_length_a       5.376149863861695
_cell_length_b       6.624346451210684
_cell_length_c       6.920322418212891
_cell_angle_alpha    116.97937270243386
_cell_angle_beta     104.30175073225764
_cell_angle_gamma    94.53240959359903

_space_group_name_H-M_alt    "P 1"
_space_group_IT_number       1

loop_
  _space_group_symop_operation_xyz
  'x, y, z'

loop_
  _atom_site_type_symbol
  _atom_site_label
  _atom_site_symmetry_multiplicity
  _atom_site_fract_x
  _atom_site_fract_y
  _atom_site_fract_z
  _atom_site_occupancy
  H   H1        1.0  0.04514424502849579  0.7809742093086243  0.3089702725410462  1.0000
  Nd  Nd1       1.0  0.5380909442901611  0.2587890028953552  0.7254283428192139  1.0000
  Nd  Nd2       1.0  0.03325992450118065  0.5858283638954163  0.6769922971725464  1.0000
  Nd  Nd3       1.0  0.04765252023935318  0.841606616973877  0.26115611195564276  1.0000
  Nd  Nd4       1.0  0.5601954460144043  0.3134516179561615  0.9711707234382629  1.0000
  Nd  Nd5       1.0  0.5376289486885071  0.9958199262619019  0.4249438345432282  1.0000
  O   O1        1.0  0.31211307644844055  0.6440967321395874  0.9828447103500366  1.0000
  O   O2        1.0  0.8093979358673096  0.5250890254974365  0.05065901577472687  1.0000
  O   O3        1.0  0.8206857442855835  0.8032063245773315  0.4017151892185211  1.0000
  Si  Si1       1.0  0.629844069480896  0.2706502079963684  0.5542813539505005  1.0000
