data_image0
_chemical_formula_structural       Nd4NiO4Si
_chemical_formula_sum              "Nd4 Ni1 O4 Si1"
_cell_length_a       4.88637062904559
_cell_length_b       6.916840501246604
_cell_length_c       7.148536205291748
_cell_angle_alpha    114.13022276361143
_cell_angle_beta     104.26405013606974
_cell_angle_gamma    90.48991466362186

_space_group_name_H-M_alt    "P 1"
_space_group_IT_number       1

loop_
  _space_group_symop_operation_xyz
  'x, y, z'

loop_
  _atom_site_type_symbol
  _atom_site_label
  _atom_site_symmetry_multiplicity
  _atom_site_fract_x
  _atom_site_fract_y
  _atom_site_fract_z
  _atom_site_occupancy
  Nd  Nd1       1.0  0.10908731818199158  0.7993698120117188  0.8443093299865723  1.0000
  Nd  Nd2       1.0  0.022853141650557518  0.8647909760475159  0.37082788348197937  1.0000
  Nd  Nd3       1.0  0.6431512832641602  0.47788384556770325  0.13734710216522217  1.0000
  Nd  Nd4       1.0  0.9667621254920961  0.9818924069404602  0.6627626419067383  1.0000
  Ni  Ni1       1.0  0.44698184728622437  0.7985053658485413  0.6989048719406128  1.0000
  O   O1        1.0  0.6972285509109497  0.46639391779899597  0.3357447385787964  1.0000
  O   O2        1.0  0.14040856063365936  0.24487394094467163  0.16999976336956024  1.0000
  O   O3        1.0  0.4969893097877503  0.9673643112182617  0.7369232773780823  1.0000
  O   O4        1.0  0.5959583520889282  0.474078893661499  0.7108133435249329  1.0000
  Si  Si1       1.0  0.6398134827613831  0.7671766877174377  0.9426520466804504  1.0000
