data_image0
_chemical_formula_structural       BNd4Ni3O2
_chemical_formula_sum              "B1 Nd4 Ni3 O2"
_cell_length_a       5.0151079947956685
_cell_length_b       7.485769308662521
_cell_length_c       7.613758087158203
_cell_angle_alpha    120.07063773181565
_cell_angle_beta     105.11870705249
_cell_angle_gamma    87.08656852192237

_space_group_name_H-M_alt    "P 1"
_space_group_IT_number       1

loop_
  _space_group_symop_operation_xyz
  'x, y, z'

loop_
  _atom_site_type_symbol
  _atom_site_label
  _atom_site_symmetry_multiplicity
  _atom_site_fract_x
  _atom_site_fract_y
  _atom_site_fract_z
  _atom_site_occupancy
  B   B1        1.0  0.3561209440231323  0.06621886789798737  0.9812192916870117  1.0000
  Nd  Nd1       1.0  0.90425044298172  0.7720534205436707  0.11672329157590866  1.0000
  Nd  Nd2       1.0  0.4015871584415436  0.20022720098495483  0.6649205684661865  1.0000
  Nd  Nd3       1.0  0.40247273445129395  0.7289862036705017  0.7252971529960632  1.0000
  Nd  Nd4       1.0  0.8642407655715942  0.5379661917686462  0.9751582145690918  1.0000
  Ni  Ni1       1.0  0.11077774316072464  0.3219628632068634  0.9087240099906921  1.0000
  Ni  Ni2       1.0  0.6153112649917603  0.13547874987125397  0.93076092004776  1.0000
  Ni  Ni3       1.0  0.449479341506958  0.6255859136581421  0.1835281103849411  1.0000
  O   O1        1.0  0.8127601146697998  0.4648977518081665  0.8536202907562256  1.0000
  O   O2        1.0  0.6994739770889282  0.26289311051368713  0.4413432478904724  1.0000
