data_image0
_chemical_formula_structural       BCs2Nd3Ni3O
_chemical_formula_sum              "B1 Cs2 Nd3 Ni3 O1"
_cell_length_a       5.009504656981511
_cell_length_b       6.559247605950499
_cell_length_c       7.4207072257995605
_cell_angle_alpha    119.21211934328373
_cell_angle_beta     109.86006709248201
_cell_angle_gamma    87.59915895774019

_space_group_name_H-M_alt    "P 1"
_space_group_IT_number       1

loop_
  _space_group_symop_operation_xyz
  'x, y, z'

loop_
  _atom_site_type_symbol
  _atom_site_label
  _atom_site_symmetry_multiplicity
  _atom_site_fract_x
  _atom_site_fract_y
  _atom_site_fract_z
  _atom_site_occupancy
  B   B1        1.0  0.9718568325042725  0.8428263068199158  0.49378964304924006  1.0000
  Cs  Cs1       1.0  0.18040454387664795  0.9183703064918518  0.596147060394287  1.0000
  Cs  Cs2       1.0  0.07759290933609009  0.4089996814727783  0.9589817523956298  1.0000
  Nd  Nd1       1.0  0.7190913558006287  0.296806663274765  0.5373456478118896  1.0000
  Nd  Nd2       1.0  0.6085984706878662  0.8930395841598511  0.8553965687751769  1.0000
  Nd  Nd3       1.0  0.18520109355449677  0.42516568303108215  0.3408909440040588  1.0000
  Ni  Ni1       1.0  0.7102881073951721  0.9276385307312012  0.5286629796028137  1.0000
  Ni  Ni2       1.0  0.8189566135406494  0.8211981058120728  0.2932435274124145  1.0000
  Ni  Ni3       1.0  0.698244035243988  0.41878628730773926  0.6243000626564025  1.0000
  O   O1        1.0  0.6599753499031067  0.053076595067977905  0.669551908969879  1.0000
