data_image0
_chemical_formula_structural       Nd5Ni2O3
_chemical_formula_sum              "Nd5 Ni2 O3"
_cell_length_a       4.863710111310638
_cell_length_b       7.3042349241308
_cell_length_c       7.576909065246582
_cell_angle_alpha    118.35247644236144
_cell_angle_beta     104.77568061765363
_cell_angle_gamma    87.98632980309871

_space_group_name_H-M_alt    "P 1"
_space_group_IT_number       1

loop_
  _space_group_symop_operation_xyz
  'x, y, z'

loop_
  _atom_site_type_symbol
  _atom_site_label
  _atom_site_symmetry_multiplicity
  _atom_site_fract_x
  _atom_site_fract_y
  _atom_site_fract_z
  _atom_site_occupancy
  Nd  Nd1       1.0  0.15292571485042572  0.394215077161789  0.03314396739006046  1.0000
  Nd  Nd2       1.0  0.6487123966217041  0.7344223260879518  0.5540559291839602  1.0000
  Nd  Nd3       1.0  0.6505967378616333  0.8847070336341859  0.49502259492874157  1.0000
  Nd  Nd4       1.0  0.6576288342475891  0.37730288505554205  0.1192548796534539  1.0000
  Nd  Nd5       1.0  0.03491155058145523  0.5773722529411316  0.8717162609100343  1.0000
  Ni  Ni1       1.0  0.2744777500629425  0.16580624878406525  0.6172207593917848  1.0000
  Ni  Ni2       1.0  0.545369565486908  0.9393420815467836  0.8249403238296511  1.0000
  O   O1        1.0  0.5567885637283325  0.12603509426116943  0.8162217140197755  1.0000
  O   O2        1.0  0.23100247979164124  0.9043428301811219  0.3193151354789735  1.0000
  O   O3        1.0  0.5917384624481201  0.13712430000305176  0.16602261364459997  1.0000
