data_image0
_chemical_formula_structural       Nd6Ni2O2
_chemical_formula_sum              "Nd6 Ni2 O2"
_cell_length_a       5.51825029027435
_cell_length_b       8.412222752855621
_cell_length_c       8.543736457824707
_cell_angle_alpha    122.14550193507914
_cell_angle_beta     107.75751439423925
_cell_angle_gamma    88.80092677772687

_space_group_name_H-M_alt    "P 1"
_space_group_IT_number       1

loop_
  _space_group_symop_operation_xyz
  'x, y, z'

loop_
  _atom_site_type_symbol
  _atom_site_label
  _atom_site_symmetry_multiplicity
  _atom_site_fract_x
  _atom_site_fract_y
  _atom_site_fract_z
  _atom_site_occupancy
  Nd  Nd1       1.0  0.29339322447776794  0.6388278007507324  0.29662668704986583  1.0000
  Nd  Nd2       1.0  0.40143170952796936  0.9764008522033693  0.061281695961952314  1.0000
  Nd  Nd3       1.0  0.2818956673145294  0.16036078333854675  0.3792782723903656  1.0000
  Nd  Nd4       1.0  0.8232343792915344  0.6466580033302307  0.719800889492035  1.0000
  Nd  Nd5       1.0  0.8716425895690918  0.3580172955989838  0.18602289259433746  1.0000
  Nd  Nd6       1.0  0.8600783944129944  0.9917588233947755  0.5348531007766725  1.0000
  Ni  Ni1       1.0  0.28582236170768743  0.9838976860046388  0.5616153478622438  1.0000
  Ni  Ni2       1.0  0.8630135655403137  0.4124960005283356  0.4419055581092835  1.0000
  O   O1        1.0  0.1732906848192215  0.29664984345436096  0.03776128217577937  1.0000
  O   O2        1.0  0.6191340684890747  0.6051837801933289  0.2499233484268189  1.0000
