data_image0
_chemical_formula_structural       GeI2K2Li2ZnZr
_chemical_formula_sum              "Ge1 I2 K2 Li2 Zn1 Zr1"
_cell_length_a       6.0798152980492475
_cell_length_b       6.082125646548583
_cell_length_c       7.299978733062744
_cell_angle_alpha    101.51622298504915
_cell_angle_beta     101.06434179125792
_cell_angle_gamma    113.40080091538857

_space_group_name_H-M_alt    "P 1"
_space_group_IT_number       1

loop_
  _space_group_symop_operation_xyz
  'x, y, z'

loop_
  _atom_site_type_symbol
  _atom_site_label
  _atom_site_symmetry_multiplicity
  _atom_site_fract_x
  _atom_site_fract_y
  _atom_site_fract_z
  _atom_site_occupancy
  Ge  Ge1       1.0  0.916505753993988  0.5613023638725281  0.7897319197654723  1.0000
  I   I1        1.0  0.9542195200920105  0.9973320364952087  0.77663916349411  1.0000
  I   I2        1.0  0.1134849265217781  0.4336087703704834  0.42165872454643244  1.0000
  K   K1        1.0  0.03285928815603256  0.7579347491264343  0.0011994382366538048  1.0000
  K   K2        1.0  0.4888714849948883  0.021720251068472862  0.33259487152099604  1.0000
  Li  Li1       1.0  0.452694296836853  0.8803451061248779  0.059920366853475536  1.0000
  Li  Li2       1.0  0.9457858204841614  0.4312777519226074  0.983010172843933  1.0000
  Zn  Zn1       1.0  0.4667501747608185  0.7303059101104736  0.5676708817481995  1.0000
  Zr  Zr1       1.0  0.0485360212624073  0.16898798942565918  0.3916755020618438  1.0000
