data_image0
_chemical_formula_structural       K6Mn3
_chemical_formula_sum              "K6 Mn3"
_cell_length_a       6.231620164126635
_cell_length_b       6.088045754766347
_cell_length_c       7.702572345733643
_cell_angle_alpha    106.30158713230186
_cell_angle_beta     102.96264247270771
_cell_angle_gamma    120.81022672865426

_space_group_name_H-M_alt    "P 1"
_space_group_IT_number       1

loop_
  _space_group_symop_operation_xyz
  'x, y, z'

loop_
  _atom_site_type_symbol
  _atom_site_label
  _atom_site_symmetry_multiplicity
  _atom_site_fract_x
  _atom_site_fract_y
  _atom_site_fract_z
  _atom_site_occupancy
  K   K1        1.0  0.2317923903465271  0.7459504008293152  0.5926402807235719  1.0000
  K   K2        1.0  0.7239671945571899  0.23730741441249847  0.783822000026703  1.0000
  K   K3        1.0  0.5102704167366028  0.10075519233942032  0.6965946555137635  1.0000
  K   K4        1.0  0.2648666203022003  0.32357949018478394  0.3598971366882325  1.0000
  K   K5        1.0  0.7913429141044617  0.4627150893211365  0.4460975825786591  1.0000
  K   K6        1.0  0.31340062618255615  0.6680407524108887  0.05936954542994497  1.0000
  Mn  Mn1       1.0  0.3154776990413666  0.8851805925369263  0.07044942677021027  1.0000
  Mn  Mn2       1.0  0.15782530605793  0.14973264932632446  0.6200809478759767  1.0000
  Mn  Mn3       1.0  0.8044275045394897  0.012277037836611271  0.22201596200466156  1.0000
