data_image0
_chemical_formula_structural       K5Mn3Rb
_chemical_formula_sum              "K5 Mn3 Rb1"
_cell_length_a       6.733962328787402
_cell_length_b       6.727414696895116
_cell_length_c       7.422774791717529
_cell_angle_alpha    72.27587218735118
_cell_angle_beta     66.60748247953329
_cell_angle_gamma    66.72433143649256

_space_group_name_H-M_alt    "P 1"
_space_group_IT_number       1

loop_
  _space_group_symop_operation_xyz
  'x, y, z'

loop_
  _atom_site_type_symbol
  _atom_site_label
  _atom_site_symmetry_multiplicity
  _atom_site_fract_x
  _atom_site_fract_y
  _atom_site_fract_z
  _atom_site_occupancy
  K   K1        1.0  0.6484900116920471  0.53602135181427  0.7523007392883302  1.0000
  K   K2        1.0  0.14502692222595215  0.01106276549398899  0.27593061327934265  1.0000
  K   K3        1.0  0.6496387720108032  0.049993403255939484  0.24766458570957184  1.0000
  K   K4        1.0  0.6429224610328674  0.37858936190605164  0.25885656476020813  1.0000
  K   K5        1.0  0.14089646935462952  0.3467138707637787  0.31564027070999146  1.0000
  Mn  Mn1       1.0  0.14642660319805145  0.9025375843048096  0.516426146030426  1.0000
  Mn  Mn2       1.0  0.1445683091878891  0.9881048202514648  0.20541743934154513  1.0000
  Mn  Mn3       1.0  0.6428165435791016  0.1163281798362732  0.4375509917736054  1.0000
  Rb  Rb1       1.0  0.6459835171699524  0.9590368270874023  0.22844974696636194  1.0000
