data_image0
_chemical_formula_structural       Hg3Re3V2
_chemical_formula_sum              "Hg3 Re3 V2"
_cell_length_a       4.7540111599476065
_cell_length_b       5.973867420760723
_cell_length_c       5.9681596755981445
_cell_angle_alpha    119.91472128666247
_cell_angle_beta     90.00282358496602
_cell_angle_gamma    90.00707989227818

_space_group_name_H-M_alt    "P 1"
_space_group_IT_number       1

loop_
  _space_group_symop_operation_xyz
  'x, y, z'

loop_
  _atom_site_type_symbol
  _atom_site_label
  _atom_site_symmetry_multiplicity
  _atom_site_fract_x
  _atom_site_fract_y
  _atom_site_fract_z
  _atom_site_occupancy
  Hg  Hg1       1.0  0.37857499718666077  0.1654033064842224  0.9402805566787721  1.0000
  Hg  Hg2       1.0  0.377975195646286  0.6658748984336853  0.4475443959236145  1.0000
  Hg  Hg3       1.0  0.3738363981246948  0.16578233242034912  0.4466734528541565  1.0000
  Re  Re1       1.0  0.8788902759552002  0.51791912317276  0.0886877179145813  1.0000
  Re  Re2       1.0  0.8787858486175537  0.9831289052963257  0.08774815499782569  1.0000
  Re  Re3       1.0  0.3780340254306793  0.6638322472572327  0.9414451718330383  1.0000
  V   V1        1.0  0.8796349167823792  0.006720962934195995  0.6222139596939086  1.0000
  V   V2        1.0  0.8815128207206726  0.5174788236618042  0.6316533088684082  1.0000
