data_image0
_chemical_formula_structural       BiGeHgI2TeVZr
_chemical_formula_sum              "Bi1 Ge1 Hg1 I2 Te1 V1 Zr1"
_cell_length_a       6.639631936059926
_cell_length_b       6.61493565405229
_cell_length_c       6.832350730895996
_cell_angle_alpha    90.00981773522354
_cell_angle_beta     89.98637039332802
_cell_angle_gamma    119.84792053197845

_space_group_name_H-M_alt    "P 1"
_space_group_IT_number       1

loop_
  _space_group_symop_operation_xyz
  'x, y, z'

loop_
  _atom_site_type_symbol
  _atom_site_label
  _atom_site_symmetry_multiplicity
  _atom_site_fract_x
  _atom_site_fract_y
  _atom_site_fract_z
  _atom_site_occupancy
  Bi  Bi1       1.0  0.5099257230758667  0.07345166057348251  0.3512718975543976  1.0000
  Ge  Ge1       1.0  0.889653742313385  0.7885152101516724  0.3542710244655609  1.0000
  Hg  Hg1       1.0  0.21233707666397095  0.44261443614959717  0.3506290316581726  1.0000
  I   I1        1.0  0.21974284946918488  0.7913621664047241  0.8356453776359558  1.0000
  I   I2        1.0  0.8891682624816895  0.13226662576198578  0.840957522392273  1.0000
  Te  Te1       1.0  0.5320941805839539  0.438535213470459  0.8374048471450806  1.0000
  V   V1        1.0  0.187981978058815  0.10778293758630753  0.5806885957717896  1.0000
  Zr  Zr1       1.0  0.8577724099159241  0.45508912205696106  0.5759480595588684  1.0000
