data_image0
_chemical_formula_structural       ClGeHfHgScTe2V
_chemical_formula_sum              "Cl1 Ge1 Hf1 Hg1 Sc1 Te2 V1"
_cell_length_a       5.583318235482584
_cell_length_b       5.57594669733551
_cell_length_c       7.21270751953125
_cell_angle_alpha    90.01121731387046
_cell_angle_beta     90.00153073760771
_cell_angle_gamma    120.00439080620642

_space_group_name_H-M_alt    "P 1"
_space_group_IT_number       1

loop_
  _space_group_symop_operation_xyz
  'x, y, z'

loop_
  _atom_site_type_symbol
  _atom_site_label
  _atom_site_symmetry_multiplicity
  _atom_site_fract_x
  _atom_site_fract_y
  _atom_site_fract_z
  _atom_site_occupancy
  Cl  Cl1       1.0  0.6091977953910828  0.08604744076728821  0.31912699341773987  1.0000
  Ge  Ge1       1.0  0.9544262886047363  0.09243747591972351  0.9518640637397766  1.0000
  Hf  Hf1       1.0  0.15671449899673462  0.7284174561500549  0.9796847701072692  1.0000
  Hg  Hg1       1.0  0.27933406829833984  0.4315792918205261  0.3055710196495056  1.0000
  Sc  Sc1       1.0  0.615204930305481  0.08604554831981659  0.6685179471969604  1.0000
  Te  Te1       1.0  0.9507808089256287  0.7521599531173706  0.5844148993492126  1.0000
  Te  Te2       1.0  0.6034271717071533  0.43481847643852234  0.9532980918884277  1.0000
  V   V1        1.0  0.2736963927745819  0.43097633123397827  0.6824026107788087  1.0000
