data_image0
_chemical_formula_structural       Al3ClH2P
_chemical_formula_sum              "Al3 Cl1 H2 P1"
_cell_length_a       4.842637323939944
_cell_length_b       5.147877185673968
_cell_length_c       5.720498085021973
_cell_angle_alpha    67.38607640051895
_cell_angle_beta     66.30012320042351
_cell_angle_gamma    62.90106615739656

_space_group_name_H-M_alt    "P 1"
_space_group_IT_number       1

loop_
  _space_group_symop_operation_xyz
  'x, y, z'

loop_
  _atom_site_type_symbol
  _atom_site_label
  _atom_site_symmetry_multiplicity
  _atom_site_fract_x
  _atom_site_fract_y
  _atom_site_fract_z
  _atom_site_occupancy
  Al  Al1       1.0  0.926514744758606  0.33489540219306946  0.6694865226745605  1.0000
  Al  Al2       1.0  0.36701759696006775  0.20889344811439514  0.49061813950538635  1.0000
  Al  Al3       1.0  0.057920049875974655  0.10874731838703156  0.38358941674232483  1.0000
  Cl  Cl1       1.0  0.7751034498214722  0.7387281060218811  0.38592708110809326  1.0000
  H   H1        1.0  0.2833479046821594  0.39761975407600403  0.7422405481338501  1.0000
  H   H2        1.0  0.5563555359840393  0.8674606084823608  0.7412161231040955  1.0000
  P   P1        1.0  0.680298924446106  0.5940564274787903  0.7666810154914856  1.0000
