data_image0
_chemical_formula_structural       GeI4Li5P2V
_chemical_formula_sum              "Ge1 I4 Li5 P2 V1"
_cell_length_a       5.724132749409134
_cell_length_b       6.670792755733198
_cell_length_c       7.428465843200684
_cell_angle_alpha    89.67551794832724
_cell_angle_beta     89.67472873915088
_cell_angle_gamma    90.69712536109483

_space_group_name_H-M_alt    "P 1"
_space_group_IT_number       1

loop_
  _space_group_symop_operation_xyz
  'x, y, z'

loop_
  _atom_site_type_symbol
  _atom_site_label
  _atom_site_symmetry_multiplicity
  _atom_site_fract_x
  _atom_site_fract_y
  _atom_site_fract_z
  _atom_site_occupancy
  Ge  Ge1       1.0  0.5596924424171448  0.36003249883651733  0.35329562425613403  1.0000
  I   I1        1.0  0.5607077479362488  0.4250751733779908  0.7730469107627869  1.0000
  I   I2        1.0  0.8514000773429871  0.25059276819229126  0.026712922379374504  1.0000
  I   I3        1.0  0.5556122064590454  0.17869387567043304  0.7622213959693909  1.0000
  I   I4        1.0  0.35026413202285767  0.7288604974746704  0.4700135290622711  1.0000
  Li  Li1       1.0  0.551605761051178  0.0513397864997387  0.6284188032150269  1.0000
  Li  Li2       1.0  0.056118130683898926  0.7860277295112611  0.2767218053340912  1.0000
  Li  Li3       1.0  0.07404016703367233  0.7807317376136781  0.0032258653081953526  1.0000
  Li  Li4       1.0  0.5802242755889893  0.7803458571434022  0.5275146961212158  1.0000
  Li  Li5       1.0  0.05484272167086601  0.4124757647514344  0.3541177213191986  1.0000
  P   P1        1.0  0.06370357424020767  0.7685251235961915  0.9066570401191711  1.0000
  P   P2        1.0  0.042446546256542206  0.28899770975112915  0.2592197358608246  1.0000
  V   V1        1.0  0.5573475956916809  0.08022014796733856  0.962907075881958  1.0000
