data_image0
_chemical_formula_structural       GaGe2I2Li3OPTiVZn
_chemical_formula_sum              "Ga1 Ge2 I2 Li3 O1 P1 Ti1 V1 Zn1"
_cell_length_a       4.079578918484541
_cell_length_b       4.5515485537868585
_cell_length_c       6.552187442779541
_cell_angle_alpha    115.77296169714447
_cell_angle_beta     94.9466852004924
_cell_angle_gamma    113.76668239625658

_space_group_name_H-M_alt    "P 1"
_space_group_IT_number       1

loop_
  _space_group_symop_operation_xyz
  'x, y, z'

loop_
  _atom_site_type_symbol
  _atom_site_label
  _atom_site_symmetry_multiplicity
  _atom_site_fract_x
  _atom_site_fract_y
  _atom_site_fract_z
  _atom_site_occupancy
  Ga  Ga1       1.0  0.831221878528595  0.3170139193534851  0.764060914516449  1.0000
  Ge  Ge1       1.0  0.3032502233982086  0.024241752922534943  0.5823796391487122  1.0000
  Ge  Ge2       1.0  0.8639819025993347  0.2568694055080414  0.40437790751457214  1.0000
  I   I1        1.0  0.4901525378227234  0.3249810039997101  0.7411619424819946  1.0000
  I   I2        1.0  0.046419862657785416  0.27987557649612427  0.6299190521240234  1.0000
  Li  Li1       1.0  0.9696083068847656  0.9035114645957946  0.7209288477897644  1.0000
  Li  Li2       1.0  0.900934100151062  0.11833608895540236  0.20406590402126312  1.0000
  Li  Li3       1.0  0.40399703383445734  0.976628541946411  0.14978912472724915  1.0000
  O   O1        1.0  0.47846150398254395  0.3625120520591736  0.9720825552940369  1.0000
  P   P1        1.0  0.8734000325202942  0.9390621185302733  0.48409971594810486  1.0000
  Ti  Ti1       1.0  0.8665968775749207  0.02231205441057682  0.13770730793476105  1.0000
  V   V1        1.0  0.33373793959617615  0.02200441248714924  0.17808939516544342  1.0000
  Zn  Zn1       1.0  0.24392656981945038  0.024488726630806923  0.1965351104736328  1.0000
