data_image0
_chemical_formula_structural       ILi3O3P2TeV3
_chemical_formula_sum              "I1 Li3 O3 P2 Te1 V3"
_cell_length_a       2.640426003776648
_cell_length_b       4.304781243506134
_cell_length_c       7.8933515548706055
_cell_angle_alpha    95.50259271272601
_cell_angle_beta     87.74117255581325
_cell_angle_gamma    117.39139745777564

_space_group_name_H-M_alt    "P 1"
_space_group_IT_number       1

loop_
  _space_group_symop_operation_xyz
  'x, y, z'

loop_
  _atom_site_type_symbol
  _atom_site_label
  _atom_site_symmetry_multiplicity
  _atom_site_fract_x
  _atom_site_fract_y
  _atom_site_fract_z
  _atom_site_occupancy
  I   I1        1.0  0.6509573459625244  0.870492160320282  0.6906148791313171  1.0000
  Li  Li1       1.0  0.1359715461730957  0.16285692155361176  0.08755997568368912  1.0000
  Li  Li2       1.0  0.09743364155292511  0.6654881238937378  0.20868511497974396  1.0000
  Li  Li3       1.0  0.598183810710907  0.322011262178421  0.1001507043838501  1.0000
  O   O1        1.0  0.19524270296096802  0.26255542039871216  0.12675504386425018  1.0000
  O   O2        1.0  0.34494268894195557  0.40539902448654175  0.30772635340690613  1.0000
  O   O3        1.0  0.6731153130531311  0.5244475603103638  0.339406818151474  1.0000
  P   P1        1.0  0.13863086700439453  0.7744835019111633  0.9573194980621338  1.0000
  P   P2        1.0  0.3644721806049347  0.4029766321182251  0.636063277721405  1.0000
  Te  Te1       1.0  0.574092447757721  0.2337026298046112  0.057072680443525314  1.0000
  V   V1        1.0  0.1031661108136177  0.36397290229797363  0.6965521574020386  1.0000
  V   V2        1.0  0.09678658097982407  0.06965389102697372  0.6194559931755066  1.0000
  V   V3        1.0  0.1425202190876007  0.7933014631271362  0.875998854637146  1.0000
