data_image0
_chemical_formula_structural       AsGa2GeILi5OPV
_chemical_formula_sum              "As1 Ga2 Ge1 I1 Li5 O1 P1 V1"
_cell_length_a       5.708766614909154
_cell_length_b       6.064888640630267
_cell_length_c       6.598264694213867
_cell_angle_alpha    89.5231975388092
_cell_angle_beta     89.29421135070793
_cell_angle_gamma    105.94354805523146

_space_group_name_H-M_alt    "P 1"
_space_group_IT_number       1

loop_
  _space_group_symop_operation_xyz
  'x, y, z'

loop_
  _atom_site_type_symbol
  _atom_site_label
  _atom_site_symmetry_multiplicity
  _atom_site_fract_x
  _atom_site_fract_y
  _atom_site_fract_z
  _atom_site_occupancy
  As  As1       1.0  0.4110923111438751  0.8433012962341309  0.609732985496521  1.0000
  Ga  Ga1       1.0  0.3171389400959015  0.5634346008300781  0.6112756133079529  1.0000
  Ga  Ga2       1.0  0.3096558451652527  0.3773863911628723  0.9741365313529969  1.0000
  Ge  Ge1       1.0  0.8147935271263123  0.9739410877227783  0.16881155967712402  1.0000
  I   I1        1.0  0.022636234760284424  0.22594445943832397  0.7732691764831544  1.0000
  Li  Li1       1.0  0.33208540081977844  0.18657025694847107  0.3477357625961304  1.0000
  Li  Li2       1.0  0.3107665479183197  0.9770429730415344  0.07280796766281128  1.0000
  Li  Li3       1.0  0.30118781328201294  0.5835683941841125  0.5697053670883179  1.0000
  Li  Li4       1.0  0.813458263874054  0.5340076088905334  0.8612248897552491  1.0000
  Li  Li5       1.0  0.8170149326324463  0.924079179763794  0.7371065020561219  1.0000
  O   O1        1.0  0.021137310191988945  0.07556656748056412  0.14020350575447083  1.0000
  P   P1        1.0  0.3261997401714325  0.7306799292564392  0.9207106232643129  1.0000
  V   V1        1.0  0.8258509635925293  0.7457053065299988  0.7841652631759645  1.0000
