data_image0
_chemical_formula_structural       I2Li5O4PV
_chemical_formula_sum              "I2 Li5 O4 P1 V1"
_cell_length_a       4.644926093805916
_cell_length_b       5.490198463332943
_cell_length_c       5.747180938720703
_cell_angle_alpha    110.07534504915357
_cell_angle_beta     112.01273857235958
_cell_angle_gamma    102.54894411502163

_space_group_name_H-M_alt    "P 1"
_space_group_IT_number       1

loop_
  _space_group_symop_operation_xyz
  'x, y, z'

loop_
  _atom_site_type_symbol
  _atom_site_label
  _atom_site_symmetry_multiplicity
  _atom_site_fract_x
  _atom_site_fract_y
  _atom_site_fract_z
  _atom_site_occupancy
  I   I1        1.0  0.7655910849571228  0.4507501125335694  0.8194540143013  1.0000
  I   I2        1.0  0.26754191517829895  0.5140180587768555  0.6598853468894958  1.0000
  Li  Li1       1.0  0.3149333894252777  0.8261750340461731  0.5637098550796509  1.0000
  Li  Li2       1.0  0.7548142075538635  0.18704012036323547  0.16701237857341766  1.0000
  Li  Li3       1.0  0.22909326851367956  0.9518646001815797  0.14397427439689636  1.0000
  Li  Li4       1.0  0.793423593044281  0.9337292313575746  0.7449988722801208  1.0000
  Li  Li5       1.0  0.8367037177085876  0.06340610980987549  0.9625405073165894  1.0000
  O   O1        1.0  0.14563144743442538  0.4548174738883973  0.9889167547225952  1.0000
  O   O2        1.0  0.09795678406953812  0.6960801482200623  0.5865293741226196  1.0000
  O   O3        1.0  0.6172285676002502  0.6471993923187256  0.2965658903121948  1.0000
  O   O4        1.0  0.5563840866088867  0.34788790345191956  0.2915651202201843  1.0000
  P   P1        1.0  0.7703930735588074  0.300776869058609  0.6116108894348145  1.0000
  V   V1        1.0  0.29302898049354553  0.17842698097229004  0.7616750597953796  1.0000
