data_image0
_chemical_formula_structural       GeI2Li3OP3TlV2
_chemical_formula_sum              "Ge1 I2 Li3 O1 P3 Tl1 V2"
_cell_length_a       4.9445734650384905
_cell_length_b       5.669253336239107
_cell_length_c       6.418661117553711
_cell_angle_alpha    88.67411628377926
_cell_angle_beta     89.61994054384463
_cell_angle_gamma    111.96094754698848

_space_group_name_H-M_alt    "P 1"
_space_group_IT_number       1

loop_
  _space_group_symop_operation_xyz
  'x, y, z'

loop_
  _atom_site_type_symbol
  _atom_site_label
  _atom_site_symmetry_multiplicity
  _atom_site_fract_x
  _atom_site_fract_y
  _atom_site_fract_z
  _atom_site_occupancy
  Ge  Ge1       1.0  0.8813169002532959  0.08001342415809631  0.059243734925985336  1.0000
  I   I1        1.0  0.903940737247467  0.5713263154029846  0.5831986665725708  1.0000
  I   I2        1.0  0.40721821784973145  0.18170511722564697  0.7197117805480957  1.0000
  Li  Li1       1.0  0.8948195576667786  0.7012607455253601  0.9679889678955078  1.0000
  Li  Li2       1.0  0.8780773878097534  0.5597354173660278  0.946839451789856  1.0000
  Li  Li3       1.0  0.3803153336048126  0.25210076570510864  0.6348570585250854  1.0000
  O   O1        1.0  0.39420950412750244  0.13457255065441132  0.12228084355592728  1.0000
  P   P1        1.0  0.894993782043457  0.22466020286083221  0.9859653115272522  1.0000
  P   P2        1.0  0.40226492285728455  0.43715864419937134  0.1515192687511444  1.0000
  P   P3        1.0  0.38076111674308777  0.7011221647262573  0.6498449444770813  1.0000
  Tl  Tl1       1.0  0.37812721729278564  0.15431182086467743  0.2339153289794922  1.0000
  V   V1        1.0  0.37644603848457336  0.686387836933136  0.9757067561149597  1.0000
  V   V2        1.0  0.8909580707550049  0.8018409609794617  0.08161689341068268  1.0000
