data_image0
_chemical_formula_structural       Eu6P3Zn
_chemical_formula_sum              "Eu6 P3 Zn1"
_cell_length_a       6.06182603472976
_cell_length_b       6.610025924983915
_cell_length_c       9.701216697692871
_cell_angle_alpha    89.72281890427216
_cell_angle_beta     90.65575185705679
_cell_angle_gamma    112.38415028578517

_space_group_name_H-M_alt    "P 1"
_space_group_IT_number       1

loop_
  _space_group_symop_operation_xyz
  'x, y, z'

loop_
  _atom_site_type_symbol
  _atom_site_label
  _atom_site_symmetry_multiplicity
  _atom_site_fract_x
  _atom_site_fract_y
  _atom_site_fract_z
  _atom_site_occupancy
  Eu  Eu1       1.0  0.19539792835712433  0.7337540984153748  0.6738999485969543  1.0000
  Eu  Eu2       1.0  0.5288637876510621  0.9041770100593568  0.21550165116786957  1.0000
  Eu  Eu3       1.0  0.519362211227417  0.3240008056163788  0.10680925101041794  1.0000
  Eu  Eu4       1.0  0.01963808760046959  0.40122631192207336  0.09857410192489624  1.0000
  Eu  Eu5       1.0  0.8649380207061768  0.3260137736797333  0.8733385801315308  1.0000
  Eu  Eu6       1.0  0.5182327032089235  0.8443463444709779  0.027253413572907448  1.0000
  P   P1        1.0  0.20364125072956085  0.6515434384346008  0.5753142833709717  1.0000
  P   P2        1.0  0.1765250414609909  0.8025045990943909  0.30581143498420715  1.0000
  P   P3        1.0  0.5269263982772827  0.6000785231590271  0.18047043681144714  1.0000
  Zn  Zn1       1.0  0.19881582260131836  0.19693106412887573  0.9809895157814026  1.0000
