data_image0
_chemical_formula_structural       Eu5P2Zn3
_chemical_formula_sum              "Eu5 P2 Zn3"
_cell_length_a       4.4639453461953975
_cell_length_b       4.741325392389214
_cell_length_c       11.207315444946289
_cell_angle_alpha    91.04279901897812
_cell_angle_beta     89.9633937323031
_cell_angle_gamma    84.24575863039225

_space_group_name_H-M_alt    "P 1"
_space_group_IT_number       1

loop_
  _space_group_symop_operation_xyz
  'x, y, z'

loop_
  _atom_site_type_symbol
  _atom_site_label
  _atom_site_symmetry_multiplicity
  _atom_site_fract_x
  _atom_site_fract_y
  _atom_site_fract_z
  _atom_site_occupancy
  Eu  Eu1       1.0  0.1247064471244812  0.28515857458114624  0.5698584914207458  1.0000
  Eu  Eu2       1.0  0.13067775964736938  0.8842326998710632  0.7519511580467224  1.0000
  Eu  Eu3       1.0  0.1483035683631897  0.968601405620575  0.5561287999153137  1.0000
  Eu  Eu4       1.0  0.18311208486557007  0.8686731457710266  0.5347141027450562  1.0000
  Eu  Eu5       1.0  0.18350553512573242  0.9458523392677307  0.6136265993118286  1.0000
  P   P1        1.0  0.6934477090835571  0.998380184173584  0.5497719645500183  1.0000
  P   P2        1.0  0.643423855304718  0.28573793172836304  0.7321584224700928  1.0000
  Zn  Zn1       1.0  0.6533999443054199  0.3916742205619812  0.37764498591423035  1.0000
  Zn  Zn2       1.0  0.6353476643562317  0.9387008547782898  0.2632374167442322  1.0000
  Zn  Zn3       1.0  0.9118424654006958  0.6955318450927734  0.04913310334086418  1.0000
