data_image0
_chemical_formula_structural       Eu5P3Zn2
_chemical_formula_sum              "Eu5 P3 Zn2"
_cell_length_a       5.288954321234556
_cell_length_b       5.431113196957228
_cell_length_c       11.25487995147705
_cell_angle_alpha    89.00459416428494
_cell_angle_beta     89.89929511279436
_cell_angle_gamma    112.2145082136154

_space_group_name_H-M_alt    "P 1"
_space_group_IT_number       1

loop_
  _space_group_symop_operation_xyz
  'x, y, z'

loop_
  _atom_site_type_symbol
  _atom_site_label
  _atom_site_symmetry_multiplicity
  _atom_site_fract_x
  _atom_site_fract_y
  _atom_site_fract_z
  _atom_site_occupancy
  Eu  Eu1       1.0  0.03329751268029213  0.34038567543029785  0.43338459730148315  1.0000
  Eu  Eu2       1.0  0.3052140474319458  0.7790255546569824  0.09677290171384811  1.0000
  Eu  Eu3       1.0  0.3119870126247406  0.487091600894928  0.24212472140789032  1.0000
  Eu  Eu4       1.0  0.8142343759536743  0.5087529420852661  0.3084748387336731  1.0000
  Eu  Eu5       1.0  0.26236477494239807  0.6814613938331604  0.3190845549106598  1.0000
  P   P1        1.0  0.30329301953315735  0.7246326208114624  0.07050225138664246  1.0000
  P   P2        1.0  0.8175909519195557  0.46004799008369446  0.8601846694946289  1.0000
  P   P3        1.0  0.8054299354553223  0.4732442796230316  0.5084607005119324  1.0000
  Zn  Zn1       1.0  0.3026193380355835  0.6140683889389038  0.21667133271694183  1.0000
  Zn  Zn2       1.0  0.8062369227409363  0.8762186169624329  0.47647830843925476  1.0000
