data_image0
_chemical_formula_structural       Eu4GePZn4
_chemical_formula_sum              "Eu4 Ge1 P1 Zn4"
_cell_length_a       4.274390472834993
_cell_length_b       4.935779939067038
_cell_length_c       11.077579498291016
_cell_angle_alpha    90.69871452538847
_cell_angle_beta     92.11047790408655
_cell_angle_gamma    91.32422423088302

_space_group_name_H-M_alt    "P 1"
_space_group_IT_number       1

loop_
  _space_group_symop_operation_xyz
  'x, y, z'

loop_
  _atom_site_type_symbol
  _atom_site_label
  _atom_site_symmetry_multiplicity
  _atom_site_fract_x
  _atom_site_fract_y
  _atom_site_fract_z
  _atom_site_occupancy
  Eu  Eu1       1.0  0.7793028354644775  0.6879450082778931  0.36052390933036804  1.0000
  Eu  Eu2       1.0  0.26752540469169617  0.6938436627388  0.9246514439582824  1.0000
  Eu  Eu3       1.0  0.26675209403038025  0.4531559348106384  0.5619160532951355  1.0000
  Eu  Eu4       1.0  0.7652990818023682  0.37864598631858826  0.9372179508209227  1.0000
  Ge  Ge1       1.0  0.7724514007568359  0.6879114508628845  0.6411111950874329  1.0000
  P   P1        1.0  0.277273565530777  0.8250004053115845  0.22630865871906278  1.0000
  Zn  Zn1       1.0  0.7786838412284851  0.10728418081998825  0.20796999335289  1.0000
  Zn  Zn2       1.0  0.26950719952583313  0.9409546256065369  0.01350556220859289  1.0000
  Zn  Zn3       1.0  0.7930116057395935  0.7450476288795471  0.8331173062324523  1.0000
  Zn  Zn4       1.0  0.26765012741088867  0.5653589963912964  0.9367835521697997  1.0000
