data_image0
_chemical_formula_structural       Eu6P2Zn2
_chemical_formula_sum              "Eu6 P2 Zn2"
_cell_length_a       4.5041670086290395
_cell_length_b       4.18201350179423
_cell_length_c       10.855110168457031
_cell_angle_alpha    91.01614903280851
_cell_angle_beta     95.79053400101463
_cell_angle_gamma    90.07540554707461

_space_group_name_H-M_alt    "P 1"
_space_group_IT_number       1

loop_
  _space_group_symop_operation_xyz
  'x, y, z'

loop_
  _atom_site_type_symbol
  _atom_site_label
  _atom_site_symmetry_multiplicity
  _atom_site_fract_x
  _atom_site_fract_y
  _atom_site_fract_z
  _atom_site_occupancy
  Eu  Eu1       1.0  0.5545991659164429  0.5622667074203491  0.37925606966018677  1.0000
  Eu  Eu2       1.0  0.5536013245582581  0.7184898257255554  0.25568655133247375  1.0000
  Eu  Eu3       1.0  0.0562128871679306  0.07368798553943634  0.7654960751533507  1.0000
  Eu  Eu4       1.0  0.05440260097384453  0.806267499923706  0.25137799978256226  1.0000
  Eu  Eu5       1.0  0.5700214505195618  0.11903724819421768  0.5096099972724915  1.0000
  Eu  Eu6       1.0  0.5489109754562378  0.35255277156829834  0.7132256627082825  1.0000
  P   P1        1.0  0.5685311555862427  0.4694420099258423  0.5998154282569885  1.0000
  P   P2        1.0  0.07229499518871307  0.3432271182537079  0.4105003178119659  1.0000
  Zn  Zn1       1.0  0.5644786357879639  0.20403918623924255  0.3229370713233948  1.0000
  Zn  Zn2       1.0  0.057269416749477386  0.5529731512069702  0.10579344630241393  1.0000
