data_image0
_chemical_formula_structural       Eu5P3Zn2
_chemical_formula_sum              "Eu5 P3 Zn2"
_cell_length_a       4.477793347786693
_cell_length_b       5.254243589215055
_cell_length_c       7.78042459487915
_cell_angle_alpha    90.03380949940882
_cell_angle_beta     90.57097023268949
_cell_angle_gamma    104.6029431752111

_space_group_name_H-M_alt    "P 1"
_space_group_IT_number       1

loop_
  _space_group_symop_operation_xyz
  'x, y, z'

loop_
  _atom_site_type_symbol
  _atom_site_label
  _atom_site_symmetry_multiplicity
  _atom_site_fract_x
  _atom_site_fract_y
  _atom_site_fract_z
  _atom_site_occupancy
  Eu  Eu1       1.0  0.8656118512153625  0.37476828694343567  0.49489966034889216  1.0000
  Eu  Eu2       1.0  0.864082932472229  0.5345854759216309  0.8764032125473021  1.0000
  Eu  Eu3       1.0  0.3854779601097107  0.6173722147941589  0.3319194316864013  1.0000
  Eu  Eu4       1.0  0.9073173999786377  0.9327873587608337  0.2172625362873077  1.0000
  Eu  Eu5       1.0  0.3820336163043976  0.37116876244544983  0.4008012115955352  1.0000
  P   P1        1.0  0.8613329529762268  0.4819488525390625  0.3038505315780639  1.0000
  P   P2        1.0  0.37391191720962524  0.8911038637161255  0.6032326817512511  1.0000
  P   P3        1.0  0.34499242901802063  0.6614125370979309  0.08362276852130889  1.0000
  Zn  Zn1       1.0  0.8918521404266357  0.8212864398956299  0.7447557449340819  1.0000
  Zn  Zn2       1.0  0.38702282309532166  0.5891546010971069  0.4783755540847778  1.0000
