data_image0
_chemical_formula_structural       Fe2I2ZnZr
_chemical_formula_sum              "Fe2 I2 Zn1 Zr1"
_cell_length_a       4.908658006943755
_cell_length_b       4.370318520794698
_cell_length_c       5.614758491516113
_cell_angle_alpha    89.9145006229485
_cell_angle_beta     92.28760907876166
_cell_angle_gamma    105.81201816063954

_space_group_name_H-M_alt    "P 1"
_space_group_IT_number       1

loop_
  _space_group_symop_operation_xyz
  'x, y, z'

loop_
  _atom_site_type_symbol
  _atom_site_label
  _atom_site_symmetry_multiplicity
  _atom_site_fract_x
  _atom_site_fract_y
  _atom_site_fract_z
  _atom_site_occupancy
  Fe  Fe1       1.0  0.505815327167511  0.28087034821510315  0.7591617703437805  1.0000
  Fe  Fe2       1.0  2.0623207092285156e-05  0.22820055484771729  0.017017513513565063  1.0000
  I   I1        1.0  0.4209030270576477  0.7794345021247864  0.0718437060713768  1.0000
  I   I2        1.0  0.0031840000301599503  0.8400791883468628  0.9501376748085022  1.0000
  Zn  Zn1       1.0  0.8243474364280701  0.6559527516365051  0.5285110473632812  1.0000
  Zr  Zr1       1.0  0.37267109751701355  0.5564172267913818  0.05948382616043091  1.0000
