data_image0
_chemical_formula_structural       Fe5W
_chemical_formula_sum              "Fe5 W1"
_cell_length_a       3.2075378662282787
_cell_length_b       2.2409939076425354
_cell_length_c       4.022244930267334
_cell_angle_alpha    125.12353265850987
_cell_angle_beta     94.4324347749294
_cell_angle_gamma    112.38979144380124

_space_group_name_H-M_alt    "P 1"
_space_group_IT_number       1

loop_
  _space_group_symop_operation_xyz
  'x, y, z'

loop_
  _atom_site_type_symbol
  _atom_site_label
  _atom_site_symmetry_multiplicity
  _atom_site_fract_x
  _atom_site_fract_y
  _atom_site_fract_z
  _atom_site_occupancy
  Fe  Fe1       1.0  0.366698294878006  0.4915955066680908  0.19417569041252136  1.0000
  Fe  Fe2       1.0  0.8967519998550414  0.30081695318222046  0.8549084067344666  1.0000
  Fe  Fe3       1.0  0.3965063393115997  0.7442597150802612  0.30350393056869507  1.0000
  Fe  Fe4       1.0  0.39018413424491877  0.2866133749485016  0.10779190063476562  1.0000
  Fe  Fe5       1.0  0.8640792965888976  0.5827206969261169  0.3005222678184509  1.0000
  W   W1        1.0  0.3661321699619293  0.06980869919061661  0.7256627082824707  1.0000
