data_image0
_chemical_formula_structural       DyFeNiZn2Zr
_chemical_formula_sum              "Dy1 Fe1 Ni1 Zn2 Zr1"
_cell_length_a       4.3021919633019525
_cell_length_b       4.663994073427724
_cell_length_c       5.345123291015625
_cell_angle_alpha    119.84577007717552
_cell_angle_beta     96.40070996371175
_cell_angle_gamma    95.5221145721525

_space_group_name_H-M_alt    "P 1"
_space_group_IT_number       1

loop_
  _space_group_symop_operation_xyz
  'x, y, z'

loop_
  _atom_site_type_symbol
  _atom_site_label
  _atom_site_symmetry_multiplicity
  _atom_site_fract_x
  _atom_site_fract_y
  _atom_site_fract_z
  _atom_site_occupancy
  Dy  Dy1       1.0  0.3209676444530487  0.714263379573822  0.6369959712028503  1.0000
  Fe  Fe1       1.0  0.8001628518104553  0.16290101408958435  0.9989318251609802  1.0000
  Ni  Ni1       1.0  0.8259298801422119  0.6667941808700562  0.14603103697299957  1.0000
  Zn  Zn1       1.0  0.30252671241760254  0.3337738811969757  0.06056603789329529  1.0000
  Zn  Zn2       1.0  0.8259102702140808  0.3114962577819824  0.6721674799919128  1.0000
  Zr  Zr1       1.0  0.32173046469688416  0.051740534603595734  0.6417073607444763  1.0000
