data_image0
_chemical_formula_structural       Fe3NiW2
_chemical_formula_sum              "Fe3 Ni1 W2"
_cell_length_a       2.9840101035767144
_cell_length_b       3.902592379988478
_cell_length_c       4.0533223152160645
_cell_angle_alpha    85.62097636653225
_cell_angle_beta     85.11702934960914
_cell_angle_gamma    82.75912839261491

_space_group_name_H-M_alt    "P 1"
_space_group_IT_number       1

loop_
  _space_group_symop_operation_xyz
  'x, y, z'

loop_
  _atom_site_type_symbol
  _atom_site_label
  _atom_site_symmetry_multiplicity
  _atom_site_fract_x
  _atom_site_fract_y
  _atom_site_fract_z
  _atom_site_occupancy
  Fe  Fe1       1.0  0.8479071259498596  0.925002932548523  0.8752318620681763  1.0000
  Fe  Fe2       1.0  0.20179274678230286  0.5468624234199524  0.11624307185411453  1.0000
  Fe  Fe3       1.0  0.7256436347961426  0.22816583514213562  0.24918800592422485  1.0000
  Ni  Ni1       1.0  0.4166584610939026  0.44909557700157166  0.14356893301010132  1.0000
  W   W1        1.0  0.42429882287979126  0.13304001092910767  0.928337812423706  1.0000
  W   W2        1.0  0.41407591104507446  0.07101383805274963  0.4533693194389343  1.0000
