data_image0
_chemical_formula_structural       AsFI2InZn2
_chemical_formula_sum              "As1 F1 I2 In1 Zn2"
_cell_length_a       4.072132874310545
_cell_length_b       4.529427160903717
_cell_length_c       7.463359355926514
_cell_angle_alpha    115.75644855289679
_cell_angle_beta     86.89591610546994
_cell_angle_gamma    100.5964270726309

_space_group_name_H-M_alt    "P 1"
_space_group_IT_number       1

loop_
  _space_group_symop_operation_xyz
  'x, y, z'

loop_
  _atom_site_type_symbol
  _atom_site_label
  _atom_site_symmetry_multiplicity
  _atom_site_fract_x
  _atom_site_fract_y
  _atom_site_fract_z
  _atom_site_occupancy
  As  As1       1.0  0.8966588973999023  0.7112070918083191  0.7169808745384216  1.0000
  F   F1        1.0  0.024727048352360725  0.9285988211631775  0.11111288517713547  1.0000
  I   I1        1.0  0.06072547659277916  0.4103647768497467  0.412122517824173  1.0000
  I   I2        1.0  0.5419870615005493  0.03095141239464283  0.13927069306373596  1.0000
  In  In1       1.0  0.042547307908535004  0.6969574093818665  0.22405825555324552  1.0000
  Zn  Zn1       1.0  0.5343781113624573  0.7342467904090881  0.04709283635020256  1.0000
  Zn  Zn2       1.0  0.5552006363868713  0.2624823749065399  0.8700529336929321  1.0000
