data_image0
_chemical_formula_structural       IIn2V2Zn2
_chemical_formula_sum              "I1 In2 V2 Zn2"
_cell_length_a       3.2951083569706876
_cell_length_b       4.13138918799933
_cell_length_c       10.005290031433105
_cell_angle_alpha    89.47182920241767
_cell_angle_beta     90.39181753521382
_cell_angle_gamma    78.6504475914082

_space_group_name_H-M_alt    "P 1"
_space_group_IT_number       1

loop_
  _space_group_symop_operation_xyz
  'x, y, z'

loop_
  _atom_site_type_symbol
  _atom_site_label
  _atom_site_symmetry_multiplicity
  _atom_site_fract_x
  _atom_site_fract_y
  _atom_site_fract_z
  _atom_site_occupancy
  I   I1        1.0  0.6323827505111694  0.5672346353530884  0.996056318283081  1.0000
  In  In1       1.0  0.6379150748252869  0.7297041416168213  0.46598565578460693  1.0000
  In  In2       1.0  0.11311832070350647  0.9557099938392639  0.30446726083755493  1.0000
  V   V1        1.0  0.11797776818275452  0.9814191460609436  0.39612600207328796  1.0000
  V   V2        1.0  0.11745574325323105  0.0018769922899082303  0.5954121351242065  1.0000
  Zn  Zn1       1.0  0.12136588245630264  0.14887800812721252  0.5623558759689331  1.0000
  Zn  Zn2       1.0  0.6206900477409363  0.8943608999252319  0.9233325123786926  1.0000
