data_image0
_chemical_formula_structural       GeIIn2LiVZn
_chemical_formula_sum              "Ge1 I1 In2 Li1 V1 Zn1"
_cell_length_a       4.049071117867981
_cell_length_b       4.099607905296897
_cell_length_c       8.992263793945312
_cell_angle_alpha    90.61393355460305
_cell_angle_beta     90.96389290999757
_cell_angle_gamma    96.05769603520119

_space_group_name_H-M_alt    "P 1"
_space_group_IT_number       1

loop_
  _space_group_symop_operation_xyz
  'x, y, z'

loop_
  _atom_site_type_symbol
  _atom_site_label
  _atom_site_symmetry_multiplicity
  _atom_site_fract_x
  _atom_site_fract_y
  _atom_site_fract_z
  _atom_site_occupancy
  Ge  Ge1       1.0  0.2852171063423157  0.25377190113067627  0.5270143747329712  1.0000
  I   I1        1.0  0.27649757266044617  0.7418512105941772  0.3457760810852051  1.0000
  In  In1       1.0  0.28076353669166565  0.27456414699554443  0.2967756688594818  1.0000
  In  In2       1.0  0.7835707664489746  0.33045127987861633  0.8641875386238098  1.0000
  Li  Li1       1.0  0.7837649583816528  0.33076757192611694  0.6990832090377808  1.0000
  V   V1        1.0  0.7836959958076477  0.31345444917678833  0.4019850194454193  1.0000
  Zn  Zn1       1.0  0.2813793420791626  0.9339379668235779  0.7788839340209961  1.0000
