data_image0
_chemical_formula_structural       BCuGd4MgMn4O3Zn
_chemical_formula_sum              "B1 Cu1 Gd4 Mg1 Mn4 O3 Zn1"
_cell_length_a       6.864575486494353
_cell_length_b       7.330865163832605
_cell_length_c       7.242482662200928
_cell_angle_alpha    64.13367044162948
_cell_angle_beta     62.930775001164164
_cell_angle_gamma    63.914510693826465

_space_group_name_H-M_alt    "P 1"
_space_group_IT_number       1

loop_
  _space_group_symop_operation_xyz
  'x, y, z'

loop_
  _atom_site_type_symbol
  _atom_site_label
  _atom_site_symmetry_multiplicity
  _atom_site_fract_x
  _atom_site_fract_y
  _atom_site_fract_z
  _atom_site_occupancy
  B   B1        1.0  0.700761079788208  0.8816910982131958  0.3556110560894013  1.0000
  Cu  Cu1       1.0  0.7907933592796326  0.820063591003418  0.6265391111373901  1.0000
  Gd  Gd1       1.0  0.796879231929779  0.4591899812221527  0.9415718913078309  1.0000
  Gd  Gd2       1.0  0.4360809624195099  0.026798907667398453  0.18224471807479864  1.0000
  Gd  Gd3       1.0  0.42273804545402527  0.1059744656085968  0.3673450648784638  1.0000
  Gd  Gd4       1.0  0.4342695474624634  0.6900639533996582  0.7027985453605653  1.0000
  Mg  Mg1       1.0  0.8045862317085266  0.12011773139238358  0.402498483657837  1.0000
  Mn  Mn1       1.0  0.5386051535606384  0.18425147235393524  0.6082445383071899  1.0000
  Mn  Mn2       1.0  0.42240065336227417  0.6400969624519348  0.9000542759895326  1.0000
  Mn  Mn3       1.0  0.1657598465681076  0.5188975930213928  0.10720869153738023  1.0000
  Mn  Mn4       1.0  0.16665565967559814  0.012325141578912735  0.697055757045746  1.0000
  O   O1        1.0  0.5398290753364563  0.5440031290054321  0.6600531339645387  1.0000
  O   O2        1.0  0.43301063776016235  0.020743487402796745  0.10689696669578556  1.0000
  O   O3        1.0  0.9252297282218933  0.5215744972229004  0.6980084776878358  1.0000
  Zn  Zn1       1.0  0.1801569163799286  0.8781217932701111  0.8532444238662721  1.0000
