data_image0
_chemical_formula_structural       FGd5HMn3O4Zn
_chemical_formula_sum              "F1 Gd5 H1 Mn3 O4 Zn1"
_cell_length_a       6.610874483915273
_cell_length_b       6.977250371524037
_cell_length_c       6.733500957489014
_cell_angle_alpha    62.70680300802769
_cell_angle_beta     61.70062205020364
_cell_angle_gamma    62.49569001302217

_space_group_name_H-M_alt    "P 1"
_space_group_IT_number       1

loop_
  _space_group_symop_operation_xyz
  'x, y, z'

loop_
  _atom_site_type_symbol
  _atom_site_label
  _atom_site_symmetry_multiplicity
  _atom_site_fract_x
  _atom_site_fract_y
  _atom_site_fract_z
  _atom_site_occupancy
  F   F1        1.0  0.40452623367309576  0.06824863702058792  0.025041764602065055  1.0000
  Gd  Gd1       1.0  0.021102411672472975  0.43924894928932184  0.025301747024059296  1.0000
  Gd  Gd2       1.0  0.2924673259258271  0.8912720680236815  0.40988072752952576  1.0000
  Gd  Gd3       1.0  0.407976120710373  0.6612913012504578  0.0266843494027853  1.0000
  Gd  Gd4       1.0  0.7672055959701538  0.37471669912338257  0.5707830190658569  1.0000
  Gd  Gd5       1.0  0.766906201839447  0.8749170303344725  0.2873803377151489  1.0000
  H   H1        1.0  0.4011309444904328  0.9713719487190245  0.5779858827590942  1.0000
  Mn  Mn1       1.0  0.7588328123092651  0.5483764410018921  0.5951668620109558  1.0000
  Mn  Mn2       1.0  0.4077917635440827  0.18366175889968872  0.97688889503479  1.0000
  Mn  Mn3       1.0  0.17439182102680206  0.5783439874649048  0.7374967336654663  1.0000
  O   O1        1.0  0.18998287618160248  0.32933953404426575  0.24074561893939972  1.0000
  O   O2        1.0  0.8882596492767335  0.04410785436630249  0.0941635370254516  1.0000
  O   O3        1.0  0.3667905926704407  0.3543575406074524  0.9839433431625366  1.0000
  O   O4        1.0  0.7841618657112122  0.3029962182044983  0.24835316836833954  1.0000
  Zn  Zn1       1.0  0.7587575912475586  0.5991460680961609  0.4350547790527344  1.0000
