data_image0
_chemical_formula_structural       Cu2Gd3Mn4O5Zn
_chemical_formula_sum              "Cu2 Gd3 Mn4 O5 Zn1"
_cell_length_a       6.455306018049534
_cell_length_b       6.6941464099359065
_cell_length_c       6.721400737762451
_cell_angle_alpha    64.77770566562754
_cell_angle_beta     61.28167015520241
_cell_angle_gamma    63.54789664203551

_space_group_name_H-M_alt    "P 1"
_space_group_IT_number       1

loop_
  _space_group_symop_operation_xyz
  'x, y, z'

loop_
  _atom_site_type_symbol
  _atom_site_label
  _atom_site_symmetry_multiplicity
  _atom_site_fract_x
  _atom_site_fract_y
  _atom_site_fract_z
  _atom_site_occupancy
  Cu  Cu1       1.0  0.7880759239196777  0.20048390328884125  0.7326422333717346  1.0000
  Cu  Cu2       1.0  0.7460326552391052  0.2721526622772217  0.12466114014387131  1.0000
  Gd  Gd1       1.0  0.7579888701438904  0.995706021785736  0.18780092895030975  1.0000
  Gd  Gd2       1.0  0.4999397397041321  0.9976094365119933  0.4431501626968384  1.0000
  Gd  Gd3       1.0  0.7562615275382996  0.5037678480148315  0.6037095785140991  1.0000
  Mn  Mn1       1.0  0.49377426505088806  0.7451893091201782  0.5568339228630066  1.0000
  Mn  Mn2       1.0  0.48750805854797363  0.25038284063339233  0.09325716644525528  1.0000
  Mn  Mn3       1.0  0.05789421498775484  0.49079164862632746  0.90671706199646  1.0000
  Mn  Mn4       1.0  0.20238329470157623  0.7463974952697754  0.16487175226211548  1.0000
  O   O1        1.0  0.09673916548490524  0.13428309559822083  0.286914587020874  1.0000
  O   O2        1.0  0.0691632404923439  0.5786386132240295  0.619546115398407  1.0000
  O   O3        1.0  0.48835489153862  0.5052009224891663  0.48215577006340027  1.0000
  O   O4        1.0  0.7611767053604126  0.49556550383567805  0.9275062680244446  1.0000
  O   O5        1.0  0.5029132962226868  0.23901253938674924  0.2485264390707016  1.0000
  Zn  Zn1       1.0  0.19297097623348236  0.24622769653797147  0.7276209592819214  1.0000
