data_image0
_chemical_formula_structural       Cu2FeGd2Mn4O6
_chemical_formula_sum              "Cu2 Fe1 Gd2 Mn4 O6"
_cell_length_a       4.352177903544706
_cell_length_b       7.0577890035303
_cell_length_c       7.095451354980469
_cell_angle_alpha    118.89704667456752
_cell_angle_beta     90.38363430555788
_cell_angle_gamma    88.31355381809539

_space_group_name_H-M_alt    "P 1"
_space_group_IT_number       1

loop_
  _space_group_symop_operation_xyz
  'x, y, z'

loop_
  _atom_site_type_symbol
  _atom_site_label
  _atom_site_symmetry_multiplicity
  _atom_site_fract_x
  _atom_site_fract_y
  _atom_site_fract_z
  _atom_site_occupancy
  Cu  Cu1       1.0  0.28439176082611084  0.4539719820022583  0.5269240140914917  1.0000
  Cu  Cu2       1.0  0.7854345440864563  0.9801382422447205  0.23520663380622867  1.0000
  Fe  Fe1       1.0  0.7792488932609558  0.17013569176197052  0.2917647957801819  1.0000
  Gd  Gd1       1.0  0.2849368453025818  0.7855997085571289  0.7929652333259583  1.0000
  Gd  Gd2       1.0  0.7844229340553284  0.15294793248176575  0.42644062638282776  1.0000
  Mn  Mn1       1.0  0.27565452456474304  0.700566291809082  0.2483969926834106  1.0000
  Mn  Mn2       1.0  0.27693021297454834  0.28626492619514465  0.833407461643219  1.0000
  Mn  Mn3       1.0  0.27703335881233215  0.19514760375022888  0.7872549295425415  1.0000
  Mn  Mn4       1.0  0.7763859033584595  0.1569531261920929  0.6479676961898804  1.0000
  O   O1        1.0  0.2763952612876892  0.7046204805374146  0.8679218292236328  1.0000
  O   O2        1.0  0.26498010754585266  0.9088999629020691  0.35784742236137385  1.0000
  O   O3        1.0  0.7768986225128174  0.3702223002910614  0.11585344374179837  1.0000
  O   O4        1.0  0.27762237191200256  0.653049647808075  0.2546411156654358  1.0000
  O   O5        1.0  0.7862172722816467  0.4835696518421173  0.8392939567565918  1.0000
  O   O6        1.0  0.7871929407119751  0.27262988686561584  0.13316452503204346  1.0000
