data_image0
_chemical_formula_structural       CuGd2Mn5O7
_chemical_formula_sum              "Cu1 Gd2 Mn5 O7"
_cell_length_a       5.700847074525904
_cell_length_b       6.279610417686539
_cell_length_c       6.362870693206787
_cell_angle_alpha    94.02478851888536
_cell_angle_beta     89.95405410419848
_cell_angle_gamma    95.87232022686703

_space_group_name_H-M_alt    "P 1"
_space_group_IT_number       1

loop_
  _space_group_symop_operation_xyz
  'x, y, z'

loop_
  _atom_site_type_symbol
  _atom_site_label
  _atom_site_symmetry_multiplicity
  _atom_site_fract_x
  _atom_site_fract_y
  _atom_site_fract_z
  _atom_site_occupancy
  Cu  Cu1       1.0  0.3636501133441925  0.2788721024990082  0.30977702140808105  1.0000
  Gd  Gd1       1.0  0.059834204614162445  0.7668206691741943  0.320620596408844  1.0000
  Gd  Gd2       1.0  0.3580268621444702  0.28391408920288086  0.8399602770805359  1.0000
  Mn  Mn1       1.0  0.6713038682937622  0.0732075497508049  0.33283644914627075  1.0000
  Mn  Mn2       1.0  0.06615070253610611  0.8851455450057983  0.07196733355522156  1.0000
  Mn  Mn3       1.0  0.0857948362827301  0.5199824571609497  0.5763026475906372  1.0000
  Mn  Mn4       1.0  0.3962306082248688  0.574062705039978  0.07710239291191101  1.0000
  Mn  Mn5       1.0  0.6903929710388184  0.9176102876663208  0.33040788769721985  1.0000
  O   O1        1.0  0.715298593044281  0.4110963046550751  0.5852149724960327  1.0000
  O   O2        1.0  0.12227832525968552  0.5276683568954468  0.8328346610069275  1.0000
  O   O3        1.0  0.8186448812484741  0.08436612784862518  0.5758390426635742  1.0000
  O   O4        1.0  0.4010428190231323  0.458341121673584  0.909931480884552  1.0000
  O   O5        1.0  0.6580224633216858  0.03326530382037163  0.8326097130775452  1.0000
  O   O6        1.0  0.11450473964214325  0.03564820438623428  0.913455069065094  1.0000
  O   O7        1.0  0.4182875454425812  0.6141403317451477  0.32664692401885986  1.0000
