data_image0
_chemical_formula_structural       Cu2Gd4Mn3O5Zn
_chemical_formula_sum              "Cu2 Gd4 Mn3 O5 Zn1"
_cell_length_a       6.241989046361556
_cell_length_b       6.816707814381561
_cell_length_c       6.744397163391113
_cell_angle_alpha    62.35059956222796
_cell_angle_beta     60.567275802901044
_cell_angle_gamma    61.84372548559057

_space_group_name_H-M_alt    "P 1"
_space_group_IT_number       1

loop_
  _space_group_symop_operation_xyz
  'x, y, z'

loop_
  _atom_site_type_symbol
  _atom_site_label
  _atom_site_symmetry_multiplicity
  _atom_site_fract_x
  _atom_site_fract_y
  _atom_site_fract_z
  _atom_site_occupancy
  Cu  Cu1       1.0  0.46783778071403503  0.6592169404029846  0.9713294506072999  1.0000
  Cu  Cu2       1.0  0.47230398654937744  0.40933677554130554  0.14137834310531616  1.0000
  Gd  Gd1       1.0  0.2954549789428711  0.0529521107673645  0.8098042011260987  1.0000
  Gd  Gd2       1.0  0.2917942702770233  0.38869816064834595  0.8191868066787721  1.0000
  Gd  Gd3       1.0  0.8790962100028992  0.4231891632080078  0.6989122033119203  1.0000
  Gd  Gd4       1.0  0.788885772228241  0.04127175733447075  0.9347523450851442  1.0000
  Mn  Mn1       1.0  0.7896235585212708  0.2795986533164978  0.44204911589622503  1.0000
  Mn  Mn2       1.0  0.44811752438545227  0.022437594830989838  0.07181943953037262  1.0000
  Mn  Mn3       1.0  0.1987355500459671  0.7399223446846008  0.32509055733680725  1.0000
  O   O1        1.0  0.8003597855567932  0.8097304105758667  0.4702377915382386  1.0000
  O   O2        1.0  0.1173323318362236  0.6973613500595093  0.6395374536514282  1.0000
  O   O3        1.0  0.4350025951862335  0.5337342023849487  0.5796181559562683  1.0000
  O   O4        1.0  0.8018476963043213  0.44101235270500183  0.331725537776947  1.0000
  O   O5        1.0  0.8023895621299744  0.6791481375694275  0.7628127336502076  1.0000
  Zn  Zn1       1.0  0.7475480437278748  0.7558735013008118  0.3758478164672852  1.0000
