data_image0
_chemical_formula_structural       B3H4NaO3P
_chemical_formula_sum              "B3 H4 Na1 O3 P1"
_cell_length_a       5.3485320117730915
_cell_length_b       4.802792514067486
_cell_length_c       5.246592998504639
_cell_angle_alpha    69.17355697047711
_cell_angle_beta     53.98552895652543
_cell_angle_gamma    46.91679777873172

_space_group_name_H-M_alt    "P 1"
_space_group_IT_number       1

loop_
  _space_group_symop_operation_xyz
  'x, y, z'

loop_
  _atom_site_type_symbol
  _atom_site_label
  _atom_site_symmetry_multiplicity
  _atom_site_fract_x
  _atom_site_fract_y
  _atom_site_fract_z
  _atom_site_occupancy
  B   B1        1.0  0.5411492586135864  0.5626057982444763  0.06339975446462631  1.0000
  B   B2        1.0  0.2496427446603775  0.7384524941444397  0.4485541582107544  1.0000
  B   B3        1.0  0.35458412766456604  0.12787850201129913  0.41840529441833496  1.0000
  H   H1        1.0  0.15189002454280853  0.32849547266960144  0.9318778514862062  1.0000
  H   H2        1.0  0.8817997574806213  0.8746374249458313  0.44545385241508484  1.0000
  H   H3        1.0  0.6359877586364746  0.26057422161102295  0.34466779232025146  1.0000
  H   H4        1.0  0.1465913951396942  0.5068445205688477  0.40853288769721985  1.0000
  Na  Na1       1.0  0.6024749875068665  0.4314942955970764  0.4242822527885437  1.0000
  O   O1        1.0  0.8581591844558716  0.04576551541686058  0.923471748828888  1.0000
  O   O2        1.0  0.22099880874156952  0.7271314859390259  0.0008304119110107422  1.0000
  O   O3        1.0  0.8768743276596069  0.5558016896247864  0.01645486429333687  1.0000
  P   P1        1.0  0.16600024700164795  0.5714168548583984  0.7032943367958069  1.0000
