data_image0
_chemical_formula_structural       B2HNa2O6P
_chemical_formula_sum              "B2 H1 Na2 O6 P1"
_cell_length_a       5.026036784804208
_cell_length_b       4.988127143243714
_cell_length_c       5.186111927032471
_cell_angle_alpha    83.19304188347681
_cell_angle_beta     60.19813011117516
_cell_angle_gamma    55.319731937704105

_space_group_name_H-M_alt    "P 1"
_space_group_IT_number       1

loop_
  _space_group_symop_operation_xyz
  'x, y, z'

loop_
  _atom_site_type_symbol
  _atom_site_label
  _atom_site_symmetry_multiplicity
  _atom_site_fract_x
  _atom_site_fract_y
  _atom_site_fract_z
  _atom_site_occupancy
  B   B1        1.0  0.1979324370622635  0.2931322753429413  0.6195274591445923  1.0000
  B   B2        1.0  0.32314684987068176  0.6249295473098755  0.29784026741981506  1.0000
  H   H1        1.0  0.3913102149963379  0.8702934980392456  0.06366941332817078  1.0000
  Na  Na1       1.0  0.4770103096961975  0.5200396180152893  0.3298811614513397  1.0000
  Na  Na2       1.0  0.81178218126297  0.031801316887140274  0.8860898017883301  1.0000
  O   O1        1.0  0.4730127155780792  0.5515072345733643  0.6702004671096802  1.0000
  O   O2        1.0  0.8220914006233215  0.03002926893532276  0.2699961960315705  1.0000
  O   O3        1.0  0.4349299967288971  0.45963314175605774  0.0863015428185463  1.0000
  O   O4        1.0  0.9794038534164429  0.0090428302064538  0.19150902330875397  1.0000
  O   O5        1.0  0.9700267910957336  0.9118294715881348  0.7664140462875366  1.0000
  O   O6        1.0  0.9447737336158752  0.4950543940067291  0.5984935164451599  1.0000
  P   P1        1.0  0.28686174750328064  0.5530815124511719  0.4328296482563019  1.0000
