data_image0
_chemical_formula_structural       B3H3NaO4P
_chemical_formula_sum              "B3 H3 Na1 O4 P1"
_cell_length_a       4.938539973703185
_cell_length_b       4.96139078747209
_cell_length_c       4.653154373168945
_cell_angle_alpha    68.03701332525438
_cell_angle_beta     58.11027626893404
_cell_angle_gamma    57.6611922518712

_space_group_name_H-M_alt    "P 1"
_space_group_IT_number       1

loop_
  _space_group_symop_operation_xyz
  'x, y, z'

loop_
  _atom_site_type_symbol
  _atom_site_label
  _atom_site_symmetry_multiplicity
  _atom_site_fract_x
  _atom_site_fract_y
  _atom_site_fract_z
  _atom_site_occupancy
  B   B1        1.0  0.6456342339515686  0.30471307039260864  0.29972007870674133  1.0000
  B   B2        1.0  0.43409812450408936  0.34167158603668213  0.4243108928203583  1.0000
  B   B3        1.0  0.39298632740974426  0.9365911483764648  0.07721845805644989  1.0000
  H   H1        1.0  0.9050484299659729  0.03856206312775612  0.9112212061882019  1.0000
  H   H2        1.0  0.9116237759590149  0.544788658618927  0.6791742444038391  1.0000
  H   H3        1.0  0.8680477738380432  0.5335596203804016  0.2850867807865143  1.0000
  Na  Na1       1.0  0.25134292244911194  0.6535347104072571  0.4351843297481537  1.0000
  O   O1        1.0  0.7168089747428894  0.3099369406700134  0.9739436507225037  1.0000
  O   O2        1.0  0.5442472696304321  0.5358627438545227  0.17145571112632751  1.0000
  O   O3        1.0  0.24964281916618347  0.042030949145555496  0.5664615631103516  1.0000
  O   O4        1.0  0.2302129566669464  0.2333260029554367  0.48687171936035156  1.0000
  P   P1        1.0  0.9041721224784851  0.030200384557247162  0.67094886302948  1.0000
