data_image0
_chemical_formula_structural       B4H2NaO3P2
_chemical_formula_sum              "B4 H2 Na1 O3 P2"
_cell_length_a       7.067658629622548
_cell_length_b       6.908487262397235
_cell_length_c       6.846617221832275
_cell_angle_alpha    76.74827596705808
_cell_angle_beta     61.23114315780164
_cell_angle_gamma    61.09385992581935

_space_group_name_H-M_alt    "P 1"
_space_group_IT_number       1

loop_
  _space_group_symop_operation_xyz
  'x, y, z'

loop_
  _atom_site_type_symbol
  _atom_site_label
  _atom_site_symmetry_multiplicity
  _atom_site_fract_x
  _atom_site_fract_y
  _atom_site_fract_z
  _atom_site_occupancy
  B   B1        1.0  0.5493316054344177  0.785113513469696  0.575274646282196  1.0000
  B   B2        1.0  0.5569358468055725  0.3533865511417389  0.5221740007400513  1.0000
  B   B3        1.0  0.4411032199859619  0.358635812997818  0.34006261825561523  1.0000
  B   B4        1.0  0.9145315885543823  0.11875847727060318  0.07049837708473206  1.0000
  H   H1        1.0  0.25814491510391235  0.010579874739050865  0.5102002024650573  1.0000
  H   H2        1.0  0.6055108308792114  0.29877719283103943  0.7760763168334961  1.0000
  Na  Na1       1.0  0.25461679697036743  0.769832193851471  0.49384620785713196  1.0000
  O   O1        1.0  0.8088390231132507  0.8443462252616882  0.8030220866203308  1.0000
  O   O2        1.0  0.826693594455719  0.5047476887702942  0.7957047820091248  1.0000
  O   O3        1.0  0.6002904176712036  0.002353763673454523  0.2733448445796967  1.0000
  P   P1        1.0  0.2270255833864212  0.7412908673286438  0.08144717663526535  1.0000
  P   P2        1.0  0.17985916137695312  0.838256299495697  0.3263600468635559  1.0000
