data_image0
_chemical_formula_structural       B3H2NaO5P
_chemical_formula_sum              "B3 H2 Na1 O5 P1"
_cell_length_a       4.920793129811312
_cell_length_b       5.512516435832801
_cell_length_c       5.309906959533691
_cell_angle_alpha    125.31645490437599
_cell_angle_beta     85.23906114361917
_cell_angle_gamma    91.29423383884152

_space_group_name_H-M_alt    "P 1"
_space_group_IT_number       1

loop_
  _space_group_symop_operation_xyz
  'x, y, z'

loop_
  _atom_site_type_symbol
  _atom_site_label
  _atom_site_symmetry_multiplicity
  _atom_site_fract_x
  _atom_site_fract_y
  _atom_site_fract_z
  _atom_site_occupancy
  B   B1        1.0  0.3965913653373718  0.27763471007347107  0.6491842865943909  1.0000
  B   B2        1.0  0.9194511771202087  0.27885857224464417  0.8756855726242065  1.0000
  B   B3        1.0  0.6777004599571228  0.9488910436630249  0.223420187830925  1.0000
  H   H1        1.0  0.9185929298400879  0.9772257208824158  0.37890440225601185  1.0000
  H   H2        1.0  0.39513641595840454  0.3175596296787262  0.5805156230926514  1.0000
  Na  Na1       1.0  0.16678819060325623  0.7217410206794739  0.973465085029602  1.0000
  O   O1        1.0  0.915631115436554  0.6198787093162537  0.4320290982723236  1.0000
  O   O2        1.0  0.36767545342445374  0.3566277325153351  0.13971254229545593  1.0000
  O   O3        1.0  0.88533616065979  0.8507713079452515  0.24621166288852683  1.0000
  O   O4        1.0  0.9152086973190308  0.27856889367103577  0.3866141140460968  1.0000
  O   O5        1.0  0.4183216691017151  0.9495243430137634  0.1610958278179168  1.0000
  P   P1        1.0  0.4036264419555664  0.13264115154743195  0.6474194526672363  1.0000
