data_image0
_chemical_formula_structural       B3H2Na2O5
_chemical_formula_sum              "B3 H2 Na2 O5"
_cell_length_a       4.3874000826410535
_cell_length_b       5.578392569780064
_cell_length_c       4.929815292358398
_cell_angle_alpha    125.61561042722533
_cell_angle_beta     94.0374585243582
_cell_angle_gamma    87.42111665573134

_space_group_name_H-M_alt    "P 1"
_space_group_IT_number       1

loop_
  _space_group_symop_operation_xyz
  'x, y, z'

loop_
  _atom_site_type_symbol
  _atom_site_label
  _atom_site_symmetry_multiplicity
  _atom_site_fract_x
  _atom_site_fract_y
  _atom_site_fract_z
  _atom_site_occupancy
  B   B1        1.0  0.9207161068916321  0.5995994210243225  0.11207427084445953  1.0000
  B   B2        1.0  0.925102710723877  0.09308557212352753  0.5254235863685608  1.0000
  B   B3        1.0  0.31998202204704285  0.3097629249095917  0.3477076590061187  1.0000
  H   H1        1.0  0.9667325019836426  0.563111424446106  0.7064537405967712  1.0000
  H   H2        1.0  0.9237598776817322  0.6145869493484497  0.029658224433660417  1.0000
  Na  Na1       1.0  0.6415673494338989  0.58231121301651  0.46016404032707214  1.0000
  Na  Na2       1.0  0.4044305980205536  0.10895967483520508  0.8055238723754883  1.0000
  O   O1        1.0  0.902555525302887  0.10929843783378601  0.8182618618011475  1.0000
  O   O2        1.0  0.65807044506073  0.06037119403481483  0.16256731748580933  1.0000
  O   O3        1.0  0.41260987520217896  0.40226414799690247  0.45760947465896606  1.0000
  O   O4        1.0  0.15070021152496338  0.09363260120153427  0.46838146448135376  1.0000
  O   O5        1.0  0.4055987000465393  0.10819932818412781  0.06828363239765167  1.0000
