data_image0
_chemical_formula_structural       IIrPt3SSnSr3Zn
_chemical_formula_sum              "I1 Ir1 Pt3 S1 Sn1 Sr3 Zn1"
_cell_length_a       6.939200297653916
_cell_length_b       7.008812708242509
_cell_length_c       7.262612819671631
_cell_angle_alpha    119.9114319669645
_cell_angle_beta     90.16423117680993
_cell_angle_gamma    90.45668870701338

_space_group_name_H-M_alt    "P 1"
_space_group_IT_number       1

loop_
  _space_group_symop_operation_xyz
  'x, y, z'

loop_
  _atom_site_type_symbol
  _atom_site_label
  _atom_site_symmetry_multiplicity
  _atom_site_fract_x
  _atom_site_fract_y
  _atom_site_fract_z
  _atom_site_occupancy
  I   I1        1.0  0.17914360761642456  0.003549563465639949  0.3825016915798187  1.0000
  Ir  Ir1       1.0  0.9038624167442322  0.018255477771162987  0.7506298422813416  1.0000
  Pt  Pt1       1.0  0.9089046120643616  0.2182607799768448  0.24493485689163208  1.0000
  Pt  Pt2       1.0  0.9063399434089661  0.34947195649147034  0.2667767703533172  1.0000
  Pt  Pt3       1.0  0.32363903522491455  0.6421379446983337  0.17549827694892883  1.0000
  S   S1        1.0  0.9033524394035339  0.35377347469329834  0.9862731099128723  1.0000
  Sn  Sn1       1.0  0.4287717044353485  0.2291812300682068  0.6380104422569275  1.0000
  Sr  Sr1       1.0  0.4046403765678406  0.8282427787780762  0.20048734545707703  1.0000
  Sr  Sr2       1.0  0.4087912142276764  0.39596593379974365  0.0781287997961044  1.0000
  Sr  Sr3       1.0  0.409938246011734  0.24453826248645782  0.09870073944330215  1.0000
  Zn  Zn1       1.0  0.06560512632131577  0.19304800033569336  0.5831226110458374  1.0000
