data_image0
_chemical_formula_structural       ILuPdPt2ScSr3Zn2
_chemical_formula_sum              "I1 Lu1 Pd1 Pt2 Sc1 Sr3 Zn2"
_cell_length_a       6.028719586569343
_cell_length_b       6.5419318077997985
_cell_length_c       6.980723857879639
_cell_angle_alpha    90.24644268714827
_cell_angle_beta     90.26802908543168
_cell_angle_gamma    90.30075321704626

_space_group_name_H-M_alt    "P 1"
_space_group_IT_number       1

loop_
  _space_group_symop_operation_xyz
  'x, y, z'

loop_
  _atom_site_type_symbol
  _atom_site_label
  _atom_site_symmetry_multiplicity
  _atom_site_fract_x
  _atom_site_fract_y
  _atom_site_fract_z
  _atom_site_occupancy
  I   I1        1.0  0.7454614043235779  0.21511851251125336  0.8753584623336791  1.0000
  Lu  Lu1       1.0  0.19310921430587769  0.6789059042930603  0.796620488166809  1.0000
  Pd  Pd1       1.0  0.6291599273681641  0.7751979827880859  0.16219909489154816  1.0000
  Pt  Pt1       1.0  0.05504894256591797  0.3504878878593445  0.49920317530632013  1.0000
  Pt  Pt2       1.0  0.7975745797157288  0.16743794083595276  0.6118322014808655  1.0000
  Sc  Sc1       1.0  0.797645628452301  0.6586053371429443  0.5741208791732788  1.0000
  Sr  Sr1       1.0  0.4358914792537689  0.8148604035377502  0.8401524424552916  1.0000
  Sr  Sr2       1.0  0.7996870875358582  0.559320867061615  0.5191702246665955  1.0000
  Sr  Sr3       1.0  0.29575783014297485  0.1407717913389206  0.9432768821716307  1.0000
  Zn  Zn1       1.0  0.2959795296192169  0.13691823184490204  0.685450792312622  1.0000
  Zn  Zn2       1.0  0.2939266264438629  0.12375568598508835  0.7963360548019408  1.0000
