data_image0
_chemical_formula_structural       Cu2Sn4Sr5
_chemical_formula_sum              "Cu2 Sn4 Sr5"
_cell_length_a       5.485901816060565
_cell_length_b       6.345503923708981
_cell_length_c       7.084603786468506
_cell_angle_alpha    101.85663345713245
_cell_angle_beta     91.60879206014941
_cell_angle_gamma    88.06506777418059

_space_group_name_H-M_alt    "P 1"
_space_group_IT_number       1

loop_
  _space_group_symop_operation_xyz
  'x, y, z'

loop_
  _atom_site_type_symbol
  _atom_site_label
  _atom_site_symmetry_multiplicity
  _atom_site_fract_x
  _atom_site_fract_y
  _atom_site_fract_z
  _atom_site_occupancy
  Cu  Cu1       1.0  0.5013388991355896  0.7060827612876892  0.42886823415756226  1.0000
  Cu  Cu2       1.0  0.5059731006622314  0.4489018619060516  0.39198294281959534  1.0000
  Sn  Sn1       1.0  0.009061192162334919  0.837925374507904  0.5400975942611694  1.0000
  Sn  Sn2       1.0  0.006750415544956925  0.4676825404167175  0.7159977555274963  1.0000
  Sn  Sn3       1.0  0.9933364391326904  0.009207867085933685  0.13492609560489655  1.0000
  Sn  Sn4       1.0  0.49111858010292053  0.39884212613105774  0.05215534195303917  1.0000
  Sr  Sr1       1.0  0.9966843724250793  0.626522421836853  0.767751932144165  1.0000
  Sr  Sr2       1.0  0.5108188390731812  0.10727433860301971  0.8311846256256104  1.0000
  Sr  Sr3       1.0  0.5144519805908203  0.3367524743080139  0.7045761346817017  1.0000
  Sr  Sr4       1.0  0.5087665319442749  0.04942099750041962  0.44459033012390137  1.0000
  Sr  Sr5       1.0  0.007719114422798162  0.9067145586013793  0.5738450288772583  1.0000
