data_image0
_chemical_formula_structural       Lu2NpPtSnSr4Zn2
_chemical_formula_sum              "Lu2 Np1 Pt1 Sn1 Sr4 Zn2"
_cell_length_a       5.715465195296078
_cell_length_b       6.1511119001861765
_cell_length_c       7.3347697257995605
_cell_angle_alpha    91.7236957388496
_cell_angle_beta     90.17398952499472
_cell_angle_gamma    90.37321587650692

_space_group_name_H-M_alt    "P 1"
_space_group_IT_number       1

loop_
  _space_group_symop_operation_xyz
  'x, y, z'

loop_
  _atom_site_type_symbol
  _atom_site_label
  _atom_site_symmetry_multiplicity
  _atom_site_fract_x
  _atom_site_fract_y
  _atom_site_fract_z
  _atom_site_occupancy
  Lu  Lu1       1.0  0.8057359457015991  0.8771613836288452  0.17513267695903778  1.0000
  Lu  Lu2       1.0  0.28346922993659973  0.15490640699863434  0.9242358803749083  1.0000
  Np  Np1       1.0  0.7912372946739197  0.11312653124332428  0.34322917461395264  1.0000
  Pt  Pt1       1.0  0.3500519394874573  0.9092166423797607  0.5137699246406555  1.0000
  Sn  Sn1       1.0  0.7663331627845764  0.03110434114933014  0.6379342079162598  1.0000
  Sr  Sr1       1.0  0.2900702953338623  0.8124492764472961  0.8241470456123352  1.0000
  Sr  Sr2       1.0  0.28615641593933105  0.10451358556747437  0.3767832815647125  1.0000
  Sr  Sr3       1.0  0.8558526635169983  0.3972901999950409  0.6914454698562622  1.0000
  Sr  Sr4       1.0  0.7957394123077393  0.00529118999838829  0.6046608686447144  1.0000
  Zn  Zn1       1.0  0.2892013192176819  0.555412232875824  0.1729058474302292  1.0000
  Zn  Zn2       1.0  0.28129738569259644  0.6733163595199585  0.4770283997058868  1.0000
