data_image0
_chemical_formula_structural       Cu3Sn2Sr6
_chemical_formula_sum              "Cu3 Sn2 Sr6"
_cell_length_a       5.303534668453086
_cell_length_b       5.094968024386152
_cell_length_c       5.565315246582031
_cell_angle_alpha    60.791630473133644
_cell_angle_beta     72.48192664607006
_cell_angle_gamma    64.16138093665244

_space_group_name_H-M_alt    "P 1"
_space_group_IT_number       1

loop_
  _space_group_symop_operation_xyz
  'x, y, z'

loop_
  _atom_site_type_symbol
  _atom_site_label
  _atom_site_symmetry_multiplicity
  _atom_site_fract_x
  _atom_site_fract_y
  _atom_site_fract_z
  _atom_site_occupancy
  Cu  Cu1       1.0  0.770409107208252  0.06621922552585602  0.6783351302146912  1.0000
  Cu  Cu2       1.0  0.7095212936401367  0.13622111082077026  0.783629298210144  1.0000
  Cu  Cu3       1.0  0.23578667640686035  0.5364688634872437  0.2952363193035126  1.0000
  Sn  Sn1       1.0  0.22067557275295258  0.9978750944137573  0.14172446727752686  1.0000
  Sn  Sn2       1.0  0.8748853802680969  0.9190441966056824  0.6700491309165955  1.0000
  Sr  Sr1       1.0  0.7336390614509583  0.4180029630661011  0.08370400965213776  1.0000
  Sr  Sr2       1.0  0.9605731964111328  0.8273117542266846  0.6140706539154053  1.0000
  Sr  Sr3       1.0  0.948142945766449  0.8037396669387817  0.6594439148902893  1.0000
  Sr  Sr4       1.0  0.4656515419483185  0.9345306754112244  0.5955734848976135  1.0000
  Sr  Sr5       1.0  0.24563702940940857  0.6205465793609619  0.7162919044494629  1.0000
  Sr  Sr6       1.0  0.2574697434902191  0.07873858511447906  0.9119887351989746  1.0000
