data_image0
_chemical_formula_structural       ClINpSn4Sr2TiZn
_chemical_formula_sum              "Cl1 I1 Np1 Sn4 Sr2 Ti1 Zn1"
_cell_length_a       6.667678810183851
_cell_length_b       6.763814168002045
_cell_length_c       7.109719276428223
_cell_angle_alpha    107.65546522182836
_cell_angle_beta     90.09918580740593
_cell_angle_gamma    90.68568307742707

_space_group_name_H-M_alt    "P 1"
_space_group_IT_number       1

loop_
  _space_group_symop_operation_xyz
  'x, y, z'

loop_
  _atom_site_type_symbol
  _atom_site_label
  _atom_site_symmetry_multiplicity
  _atom_site_fract_x
  _atom_site_fract_y
  _atom_site_fract_z
  _atom_site_occupancy
  Cl  Cl1       1.0  0.9790460467338562  0.07651474326848984  0.2580493688583374  1.0000
  I   I1        1.0  0.9805107712745665  0.11573707312345503  0.8673183917999268  1.0000
  Np  Np1       1.0  0.47825685143470764  0.9820680618286132  0.1904600411653518  1.0000
  Sn  Sn1       1.0  0.47406235337257385  0.3281696438789367  0.19010905921459195  1.0000
  Sn  Sn2       1.0  0.47586676478385925  0.7027448415756224  0.1393509656190872  1.0000
  Sn  Sn3       1.0  0.9768581986427307  0.12467748671770094  0.540264368057251  1.0000
  Sn  Sn4       1.0  0.4777733385562897  0.951892852783203  0.3328880071640014  1.0000
  Sr  Sr1       1.0  0.9762401580810547  0.4189260303974151  0.9622664451599121  1.0000
  Sr  Sr2       1.0  0.9771191477775574  0.4586208760738372  0.7220310568809509  1.0000
  Ti  Ti1       1.0  0.4805665612220764  0.041801664978265755  0.312032014131546  1.0000
  Zn  Zn1       1.0  0.4780898988246918  0.33657255768775934  0.6564261317253113  1.0000
