data_image0
_chemical_formula_structural       ClCoGaPPb4SnWZn
_chemical_formula_sum              "Cl1 Co1 Ga1 P1 Pb4 Sn1 W1 Zn1"
_cell_length_a       5.0361036649882225
_cell_length_b       6.9661859297299955
_cell_length_c       10.075506210327148
_cell_angle_alpha    110.41627340446837
_cell_angle_beta     100.92708572525386
_cell_angle_gamma    90.98384652025909

_space_group_name_H-M_alt    "P 1"
_space_group_IT_number       1

loop_
  _space_group_symop_operation_xyz
  'x, y, z'

loop_
  _atom_site_type_symbol
  _atom_site_label
  _atom_site_symmetry_multiplicity
  _atom_site_fract_x
  _atom_site_fract_y
  _atom_site_fract_z
  _atom_site_occupancy
  Cl  Cl1       1.0  0.5303980112075806  0.07697276771068573  0.8794844746589661  1.0000
  Co  Co1       1.0  0.2987505793571472  0.4425528347492218  0.36286717653274536  1.0000
  Ga  Ga1       1.0  0.26255515217781067  0.8493619561195374  0.7961223721504211  1.0000
  P   P1        1.0  0.7595537304878235  0.046333156526088715  0.3377216160297394  1.0000
  Pb  Pb1       1.0  0.3358187973499298  0.21062807738780975  0.6688830256462097  1.0000
  Pb  Pb2       1.0  0.6931746006011963  0.4653286635875702  0.8262656927108765  1.0000
  Pb  Pb3       1.0  0.2509884536266327  0.05064147338271141  0.8969583511352539  1.0000
  Pb  Pb4       1.0  0.24246492981910703  0.354005366563797  0.9121586680412292  1.0000
  Sn  Sn1       1.0  0.7190383672714233  0.40258780121803284  0.916084349155426  1.0000
  W   W1        1.0  0.9900463223457335  0.045028891414403915  0.5127971768379211  1.0000
  Zn  Zn1       1.0  0.9920696616172789  0.08318018168210983  0.6285271644592285  1.0000
