data_image0
_chemical_formula_structural       ClGaGe2Lu2PbSnW2Zn
_chemical_formula_sum              "Cl1 Ga1 Ge2 Lu2 Pb1 Sn1 W2 Zn1"
_cell_length_a       5.8193845611209065
_cell_length_b       6.512964338667492
_cell_length_c       7.362692356109619
_cell_angle_alpha    90.44572849379486
_cell_angle_beta     91.41413139414529
_cell_angle_gamma    108.28162681650242

_space_group_name_H-M_alt    "P 1"
_space_group_IT_number       1

loop_
  _space_group_symop_operation_xyz
  'x, y, z'

loop_
  _atom_site_type_symbol
  _atom_site_label
  _atom_site_symmetry_multiplicity
  _atom_site_fract_x
  _atom_site_fract_y
  _atom_site_fract_z
  _atom_site_occupancy
  Cl  Cl1       1.0  0.1351064592599869  0.9366767406463624  0.09987707436084747  1.0000
  Ga  Ga1       1.0  0.6365525126457214  0.017297841608524323  0.03152206540107727  1.0000
  Ge  Ge1       1.0  0.6475642919540405  0.6709315180778503  0.25252848863601685  1.0000
  Ge  Ge2       1.0  0.15368273854255676  0.560965359210968  0.4204879403114319  1.0000
  Lu  Lu1       1.0  0.6148990988731384  0.8732102513313293  0.43611931800842285  1.0000
  Lu  Lu2       1.0  0.663816511631012  0.03542119264602661  0.5031076073646545  1.0000
  Pb  Pb1       1.0  0.1525142341852188  0.378863126039505  0.5180314183235168  1.0000
  Sn  Sn1       1.0  0.6459859609603882  0.5120554566383362  0.9048479795455933  1.0000
  W   W1        1.0  0.14694949984550476  0.6997900009155273  0.708456814289093  1.0000
  W   W2        1.0  0.6418904662132263  0.7349365949630737  0.0961303636431694  1.0000
  Zn  Zn1       1.0  0.14084529876708987  0.9515060782432557  0.2387985736131668  1.0000
