data_image0
_chemical_formula_structural       Cl2CrGeInIrPb2WZn2
_chemical_formula_sum              "Cl2 Cr1 Ge1 In1 Ir1 Pb2 W1 Zn2"
_cell_length_a       6.438982163057089
_cell_length_b       5.928400498327002
_cell_length_c       7.521153926849365
_cell_angle_alpha    115.4071717024787
_cell_angle_beta     107.91282273962571
_cell_angle_gamma    116.33261742652684

_space_group_name_H-M_alt    "P 1"
_space_group_IT_number       1

loop_
  _space_group_symop_operation_xyz
  'x, y, z'

loop_
  _atom_site_type_symbol
  _atom_site_label
  _atom_site_symmetry_multiplicity
  _atom_site_fract_x
  _atom_site_fract_y
  _atom_site_fract_z
  _atom_site_occupancy
  Cl  Cl1       1.0  0.19890885055065155  0.15614628791809082  0.41556924581527704  1.0000
  Cl  Cl2       1.0  0.10798898339271545  0.3386228680610657  0.8921151161193847  1.0000
  Cr  Cr1       1.0  0.5440762042999268  0.13172368705272675  0.24986618757247922  1.0000
  Ge  Ge1       1.0  0.6533836126327515  0.7670831084251403  0.20143774151802055  1.0000
  In  In1       1.0  0.15067628026008606  0.16113723814487457  0.9646997451782225  1.0000
  Ir  Ir1       1.0  0.22511163353919977  0.36426162719726557  0.761083960533142  1.0000
  Pb  Pb1       1.0  0.523644208908081  0.4653619527816772  0.13080023229122162  1.0000
  Pb  Pb2       1.0  0.5398892760276793  0.7485291957855223  0.7340803146362304  1.0000
  W   W1        1.0  0.20247632265090942  0.1620955467224121  0.4035301208496093  1.0000
  Zn  Zn1       1.0  0.21602189540863032  0.3696908056735992  0.5009672045707703  1.0000
  Zn  Zn2       1.0  0.21125081181526179  0.3818963170051574  0.04141483455896374  1.0000
