data_image0
_chemical_formula_structural       CeCl2Ga2NdPbScSnWZn
_chemical_formula_sum              "Ce1 Cl2 Ga2 Nd1 Pb1 Sc1 Sn1 W1 Zn1"
_cell_length_a       5.708779679973502
_cell_length_b       7.4510344027623425
_cell_length_c       7.506746768951416
_cell_angle_alpha    124.46909487068372
_cell_angle_beta     87.24826486483906
_cell_angle_gamma    89.8653010179433

_space_group_name_H-M_alt    "P 1"
_space_group_IT_number       1

loop_
  _space_group_symop_operation_xyz
  'x, y, z'

loop_
  _atom_site_type_symbol
  _atom_site_label
  _atom_site_symmetry_multiplicity
  _atom_site_fract_x
  _atom_site_fract_y
  _atom_site_fract_z
  _atom_site_occupancy
  Ce  Ce1       1.0  0.2335753440856934  0.9545323848724365  0.5731145739555359  1.0000
  Cl  Cl1       1.0  0.7351775765419006  0.015836423262953758  0.6809120178222655  1.0000
  Cl  Cl2       1.0  0.23807899653911593  0.06616613268852234  0.8982856273651122  1.0000
  Ga  Ga1       1.0  0.22420312464237216  0.8732330203056335  0.6585266590118407  1.0000
  Ga  Ga2       1.0  0.7323701977729797  0.4576241970062256  0.8015590906143187  1.0000
  Nd  Nd1       1.0  0.23437686264514926  0.6159458756446838  0.3061084449291229  1.0000
  Pb  Pb1       1.0  0.234346479177475  0.2838643193244934  0.13911472260951996  1.0000
  Sc  Sc1       1.0  0.7320271134376526  0.012080606073141098  0.5695773959159851  1.0000
  Sn  Sn1       1.0  0.7310611605644226  0.961819052696228  0.25045871734619146  1.0000
  W   W1        1.0  0.7283016443252563  0.45792916417121887  0.12071666121482848  1.0000
  Zn  Zn1       1.0  0.7283481359481812  0.9207798838615417  0.035837307572364745  1.0000
