data_image0
_chemical_formula_structural       Cl3CoPtSmSnW4
_chemical_formula_sum              "Cl3 Co1 Pt1 Sm1 Sn1 W4"
_cell_length_a       5.961070353214531
_cell_length_b       6.830092529626384
_cell_length_c       6.099161624908447
_cell_angle_alpha    116.02327026392103
_cell_angle_beta     82.0409357433929
_cell_angle_gamma    86.66379393333462

_space_group_name_H-M_alt    "P 1"
_space_group_IT_number       1

loop_
  _space_group_symop_operation_xyz
  'x, y, z'

loop_
  _atom_site_type_symbol
  _atom_site_label
  _atom_site_symmetry_multiplicity
  _atom_site_fract_x
  _atom_site_fract_y
  _atom_site_fract_z
  _atom_site_occupancy
  Cl  Cl1       1.0  0.4750678539276123  0.033288463950157166  0.23456004261970517  1.0000
  Cl  Cl2       1.0  0.9695943593978882  0.45823982357978815  0.44224858283996576  1.0000
  Cl  Cl3       1.0  0.4854580760002136  0.5902286171913147  0.375423103570938  1.0000
  Co  Co1       1.0  0.4624793231487274  0.30258864164352417  0.9222901463508605  1.0000
  Pt  Pt1       1.0  0.9650925993919373  0.9617554545402526  0.019175319001078606  1.0000
  Sm  Sm1       1.0  0.46319580078125  0.5023220181465149  0.3111409842967987  1.0000
  Sn  Sn1       1.0  0.46105077862739563  0.2068575769662857  0.738623857498169  1.0000
  W   W1        1.0  0.9630438089370728  0.4876102209091186  0.7590373158454895  1.0000
  W   W2        1.0  0.9622774720191956  0.25858956575393677  0.023566439747810343  1.0000
  W   W3        1.0  0.4623090624809265  0.9755560159683226  0.9843366742134093  1.0000
  W   W4        1.0  0.965610921382904  0.7612941861152649  0.42264518141746515  1.0000
