data_image0
_chemical_formula_structural       Ce2Cl2Sn6W
_chemical_formula_sum              "Ce2 Cl2 Sn6 W1"
_cell_length_a       6.790070227713642
_cell_length_b       7.669738685719209
_cell_length_c       7.792413234710693
_cell_angle_alpha    125.1806134321451
_cell_angle_beta     89.68052718909419
_cell_angle_gamma    90.53618655557284

_space_group_name_H-M_alt    "P 1"
_space_group_IT_number       1

loop_
  _space_group_symop_operation_xyz
  'x, y, z'

loop_
  _atom_site_type_symbol
  _atom_site_label
  _atom_site_symmetry_multiplicity
  _atom_site_fract_x
  _atom_site_fract_y
  _atom_site_fract_z
  _atom_site_occupancy
  Ce  Ce1       1.0  0.3116691410541534  0.9910973906517029  0.38038638234138483  1.0000
  Ce  Ce2       1.0  0.30220791697502136  0.807056188583374  0.997847020626068  1.0000
  Cl  Cl1       1.0  0.8191801905632018  0.9409379959106445  0.31879234313964844  1.0000
  Cl  Cl2       1.0  0.8016030192375182  0.20079167187213898  0.6403559446334839  1.0000
  Sn  Sn1       1.0  0.3148586153984069  0.18663834035396576  0.0983961224555969  1.0000
  Sn  Sn2       1.0  0.8125005960464476  0.5703832507133484  0.216136410832405  1.0000
  Sn  Sn3       1.0  0.3018262982368469  0.5303580164909363  0.22601763904094688  1.0000
  Sn  Sn4       1.0  0.3067087531089782  0.43388617038726807  0.4533096849918365  1.0000
  Sn  Sn5       1.0  0.8118557929992675  0.45779913663864136  0.6236262917518616  1.0000
  Sn  Sn6       1.0  0.31351700425148005  0.050327226519584656  0.10476663708686827  1.0000
  W   W1        1.0  0.31331858038902277  0.019853981211781502  0.8550362586975097  1.0000
