data_image0
_chemical_formula_structural       Cu4NaPPt2SeTeTi
_chemical_formula_sum              "Cu4 Na1 P1 Pt2 Se1 Te1 Ti1"
_cell_length_a       4.507733582883294
_cell_length_b       6.688022455408314
_cell_length_c       9.359105110168457
_cell_angle_alpha    104.40582116469271
_cell_angle_beta     101.91035010841478
_cell_angle_gamma    89.39606962502039

_space_group_name_H-M_alt    "P 1"
_space_group_IT_number       1

loop_
  _space_group_symop_operation_xyz
  'x, y, z'

loop_
  _atom_site_type_symbol
  _atom_site_label
  _atom_site_symmetry_multiplicity
  _atom_site_fract_x
  _atom_site_fract_y
  _atom_site_fract_z
  _atom_site_occupancy
  Cu  Cu1       1.0  0.058882780373096466  0.14198163151741028  0.14939801394939423  1.0000
  Cu  Cu2       1.0  0.014181157574057591  0.9868678450584413  0.8472322821617126  1.0000
  Cu  Cu3       1.0  0.33841845393180847  0.24326013028621676  0.7326504588127136  1.0000
  Cu  Cu4       1.0  0.3362981081008911  0.21122567355632785  0.5037152767181396  1.0000
  Na  Na1       1.0  0.05433490499854089  0.9577684998512269  0.023625316098332405  1.0000
  P   P1        1.0  0.48375749588012695  0.7218092083930969  0.7577282190322876  1.0000
  Pt  Pt1       1.0  0.8118959069252014  0.06683694571256638  0.6209999918937683  1.0000
  Pt  Pt2       1.0  0.3000732958316803  0.9560285210609437  0.26393425464630127  1.0000
  Se  Se1       1.0  0.5414181351661682  0.6973065733909607  0.5294356346130371  1.0000
  Te  Te1       1.0  0.8564656376838684  0.7075755596160889  0.5143364071846008  1.0000
  Ti  Ti1       1.0  0.5219150185585022  0.503639817237854  0.6041330099105835  1.0000
