data_image0
_chemical_formula_structural       Cu2LaPt4Se2TeZn
_chemical_formula_sum              "Cu2 La1 Pt4 Se2 Te1 Zn1"
_cell_length_a       4.202232423250055
_cell_length_b       4.8481747711864704
_cell_length_c       12.994705200195312
_cell_angle_alpha    94.7500017896201
_cell_angle_beta     89.86047250509297
_cell_angle_gamma    96.86703294749036

_space_group_name_H-M_alt    "P 1"
_space_group_IT_number       1

loop_
  _space_group_symop_operation_xyz
  'x, y, z'

loop_
  _atom_site_type_symbol
  _atom_site_label
  _atom_site_symmetry_multiplicity
  _atom_site_fract_x
  _atom_site_fract_y
  _atom_site_fract_z
  _atom_site_occupancy
  Cu  Cu1       1.0  0.1429656594991684  0.05944661423563957  0.314529687166214  1.0000
  Cu  Cu2       1.0  0.5846216082572937  0.845434308052063  0.7643104791641235  1.0000
  La  La1       1.0  0.6395821571350098  0.5645841956138611  0.5015095472335815  1.0000
  Pt  Pt1       1.0  0.11332733184099197  0.026380088180303574  0.608557939529419  1.0000
  Pt  Pt2       1.0  0.08766096830368042  0.3332819938659668  0.2602807283401489  1.0000
  Pt  Pt3       1.0  0.7523695826530457  0.5277217030525208  0.4970048069953918  1.0000
  Pt  Pt4       1.0  0.087343230843544  0.830547571182251  0.4562739431858062  1.0000
  Se  Se1       1.0  0.6011372804641724  0.5440919399261475  0.7601571679115295  1.0000
  Se  Se2       1.0  0.7032519578933716  0.6670077443122864  0.9856923222541808  1.0000
  Te  Te1       1.0  0.1244068518280983  0.1551610231399536  0.4906164407730102  1.0000
  Zn  Zn1       1.0  0.10181800276041031  0.34349220991134644  0.7571684122085571  1.0000
