data_image0
_chemical_formula_structural       Cu6HgTe4
_chemical_formula_sum              "Cu6 Hg1 Te4"
_cell_length_a       5.34576957842028
_cell_length_b       7.31877473450862
_cell_length_c       7.76101541519165
_cell_angle_alpha    110.88573411895248
_cell_angle_beta     92.0841884736157
_cell_angle_gamma    89.90228719912962

_space_group_name_H-M_alt    "P 1"
_space_group_IT_number       1

loop_
  _space_group_symop_operation_xyz
  'x, y, z'

loop_
  _atom_site_type_symbol
  _atom_site_label
  _atom_site_symmetry_multiplicity
  _atom_site_fract_x
  _atom_site_fract_y
  _atom_site_fract_z
  _atom_site_occupancy
  Cu  Cu1       1.0  0.6606272459030151  0.06084643304347992  0.4510455429553985  1.0000
  Cu  Cu2       1.0  0.22479821741580963  0.9529794454574585  0.2164898663759232  1.0000
  Cu  Cu3       1.0  0.8026429414749146  0.9836692810058594  0.9708867669105529  1.0000
  Cu  Cu4       1.0  0.26708993315696716  0.4234175682067871  0.7726643681526184  1.0000
  Cu  Cu5       1.0  0.23492464423179626  0.7944251894950867  0.4807099401950836  1.0000
  Cu  Cu6       1.0  0.7937381267547607  0.36971575021743774  0.6272133588790894  1.0000
  Hg  Hg1       1.0  0.2308000922203064  0.050198812037706375  0.4525348246097564  1.0000
  Te  Te1       1.0  0.42933574318885803  0.7136319875717163  0.1391369551420212  1.0000
  Te  Te2       1.0  0.8567867875099182  0.052751943469047546  0.9520145058631896  1.0000
  Te  Te3       1.0  0.3703908920288086  0.34697237610816956  0.9374222755432128  1.0000
  Te  Te4       1.0  0.7324045300483704  0.6041545271873474  0.4407676756381988  1.0000
