data_image0
_chemical_formula_structural       CaCu5Te5
_chemical_formula_sum              "Ca1 Cu5 Te5"
_cell_length_a       4.88800812667232
_cell_length_b       6.7709220346704955
_cell_length_c       8.317559242248535
_cell_angle_alpha    101.52291919643386
_cell_angle_beta     91.34778707476973
_cell_angle_gamma    89.7012598480026

_space_group_name_H-M_alt    "P 1"
_space_group_IT_number       1

loop_
  _space_group_symop_operation_xyz
  'x, y, z'

loop_
  _atom_site_type_symbol
  _atom_site_label
  _atom_site_symmetry_multiplicity
  _atom_site_fract_x
  _atom_site_fract_y
  _atom_site_fract_z
  _atom_site_occupancy
  Ca  Ca1       1.0  0.5052585005760193  0.6791123151779175  0.7877269983291626  1.0000
  Cu  Cu1       1.0  0.007884564809501171  0.4497099220752716  0.16203413903713226  1.0000
  Cu  Cu2       1.0  0.5063734650611877  0.6982938647270203  0.9967517256736755  1.0000
  Cu  Cu3       1.0  0.013532447628676891  0.7065117359161377  0.7842415571212769  1.0000
  Cu  Cu4       1.0  0.5279088616371155  0.4503870904445648  0.4079306125640869  1.0000
  Cu  Cu5       1.0  0.5057770609855652  0.9603712558746338  0.0007102489471435547  1.0000
  Te  Te1       1.0  0.9929414391517639  0.20060515403747559  0.2496655136346817  1.0000
  Te  Te2       1.0  0.0030991907697170973  0.03176156431436539  0.09152355790138245  1.0000
  Te  Te3       1.0  0.0018265247344970703  0.9107337594032288  0.43225547671318054  1.0000
  Te  Te4       1.0  0.5026175379753113  0.2595105469226837  0.1900835782289505  1.0000
  Te  Te5       1.0  0.5042529106140137  0.22209596633911133  0.3435896039009094  1.0000
