data_image0
_chemical_formula_structural       Cu3LaNaPt3SeTe2
_chemical_formula_sum              "Cu3 La1 Na1 Pt3 Se1 Te2"
_cell_length_a       4.365923653002662
_cell_length_b       4.603665532481474
_cell_length_c       13.89975357055664
_cell_angle_alpha    88.51614489134107
_cell_angle_beta     89.4129939516364
_cell_angle_gamma    91.03769144372271

_space_group_name_H-M_alt    "P 1"
_space_group_IT_number       1

loop_
  _space_group_symop_operation_xyz
  'x, y, z'

loop_
  _atom_site_type_symbol
  _atom_site_label
  _atom_site_symmetry_multiplicity
  _atom_site_fract_x
  _atom_site_fract_y
  _atom_site_fract_z
  _atom_site_occupancy
  Cu  Cu1       1.0  0.25347501039505005  0.58443683385849  0.29706907272338867  1.0000
  Cu  Cu2       1.0  0.7544699311256409  0.5887387990951538  0.09129372239112854  1.0000
  Cu  Cu3       1.0  0.2627681493759155  0.097063347697258  0.30697429180145264  1.0000
  La  La1       1.0  0.2546270489692688  0.103105328977108  0.1512424200773239  1.0000
  Na  Na1       1.0  0.5557762980461121  0.09246228635311127  0.7843943238258362  1.0000
  Pt  Pt1       1.0  0.9934659600257874  0.0925508514046669  0.7927191853523254  1.0000
  Pt  Pt2       1.0  0.7588120102882385  0.8146392703056335  0.7937442064285278  1.0000
  Pt  Pt3       1.0  0.7684223055839539  0.4745900630950928  0.07636269927024841  1.0000
  Se  Se1       1.0  0.5708320736885071  0.11042433232069016  0.9918023943901062  1.0000
  Te  Te1       1.0  0.75865638256073  0.5906568765640259  0.31125539541244507  1.0000
  Te  Te2       1.0  0.5771409869194031  0.1470433473587036  0.9794963002204895  1.0000
