data_image0
_chemical_formula_structural       Cu5Pt3Te3
_chemical_formula_sum              "Cu5 Pt3 Te3"
_cell_length_a       4.111160358822306
_cell_length_b       6.053471306387447
_cell_length_c       10.407892227172852
_cell_angle_alpha    97.18838923580816
_cell_angle_beta     103.11107947579592
_cell_angle_gamma    88.9511594973446

_space_group_name_H-M_alt    "P 1"
_space_group_IT_number       1

loop_
  _space_group_symop_operation_xyz
  'x, y, z'

loop_
  _atom_site_type_symbol
  _atom_site_label
  _atom_site_symmetry_multiplicity
  _atom_site_fract_x
  _atom_site_fract_y
  _atom_site_fract_z
  _atom_site_occupancy
  Cu  Cu1       1.0  0.7745570540428162  0.5007250308990479  0.36969229578971863  1.0000
  Cu  Cu2       1.0  0.5311189889907837  0.026552513241767883  6.401538848876953e-05  1.0000
  Cu  Cu3       1.0  0.28495049476623535  0.5199369192123413  0.22707125544548035  1.0000
  Cu  Cu4       1.0  0.2756846845149994  0.03590388223528862  0.9733878374099731  1.0000
  Cu  Cu5       1.0  0.7799942493438721  0.49706727266311646  0.047540754079818726  1.0000
  Pt  Pt1       1.0  0.48930972814559937  0.7152329683303833  0.8833005428314209  1.0000
  Pt  Pt2       1.0  0.7601143717765808  0.0003058910369873047  0.21348319947719574  1.0000
  Pt  Pt3       1.0  0.9665552377700806  0.4449254870414734  0.6821345090866089  1.0000
  Te  Te1       1.0  0.793430507183075  0.0195695161819458  0.7458071112632751  1.0000
  Te  Te2       1.0  0.7741517424583435  0.5440811514854431  0.023520341143012047  1.0000
  Te  Te3       1.0  0.773103654384613  0.007235431578010321  0.2710731029510498  1.0000
