data_image0
_chemical_formula_structural       FGa6Ge6HV
_chemical_formula_sum              "F1 Ga6 Ge6 H1 V1"
_cell_length_a       7.077882264385939
_cell_length_b       6.827262788657036
_cell_length_c       7.270726680755615
_cell_angle_alpha    110.41141241456019
_cell_angle_beta     113.6319889084059
_cell_angle_gamma    113.78047506111827

_space_group_name_H-M_alt    "P 1"
_space_group_IT_number       1

loop_
  _space_group_symop_operation_xyz
  'x, y, z'

loop_
  _atom_site_type_symbol
  _atom_site_label
  _atom_site_symmetry_multiplicity
  _atom_site_fract_x
  _atom_site_fract_y
  _atom_site_fract_z
  _atom_site_occupancy
  F   F1        1.0  0.8898636102676392  0.2826496660709381  0.6480543017387389  1.0000
  Ga  Ga1       1.0  0.8276364803314209  0.8070173859596252  0.07678531110286711  1.0000
  Ga  Ga2       1.0  0.5852681994438171  0.03979237750172615  0.3101628422737121  1.0000
  Ga  Ga3       1.0  0.19705098867416382  0.10954344272613525  0.8379173278808593  1.0000
  Ga  Ga4       1.0  0.22588148713111877  0.8083013892173767  0.6260598897933959  1.0000
  Ga  Ga5       1.0  0.03361598774790764  0.01793707348406315  0.9578834772109984  1.0000
  Ga  Ga6       1.0  0.5427911877632141  0.009869643487036228  0.41071549057960505  1.0000
  Ge  Ge1       1.0  0.562494158744812  0.08962950110435486  0.4389053583145141  1.0000
  Ge  Ge2       1.0  0.5585665106773376  0.940588653087616  0.3690284192562102  1.0000
  Ge  Ge3       1.0  0.13164152204990387  0.24394530057907104  0.04532380402088163  1.0000
  Ge  Ge4       1.0  0.24257339537143707  0.26295173168182373  0.29505869746208185  1.0000
  Ge  Ge5       1.0  0.31739285588264465  0.8175385594367981  0.15440416336059562  1.0000
  Ge  Ge6       1.0  0.8115756511688232  0.48677900433540344  0.6935748457908629  1.0000
  H   H1        1.0  0.32418715953826904  0.3295101821422577  0.6077820062637328  1.0000
  V   V1        1.0  0.8056735992431641  0.04957878962159157  0.5524541735649108  1.0000
