data_image0
_chemical_formula_structural       Ga4Ge7HPbVZn
_chemical_formula_sum              "Ga4 Ge7 H1 Pb1 V1 Zn1"
_cell_length_a       6.935491609980694
_cell_length_b       6.974252693910414
_cell_length_c       8.054630279541016
_cell_angle_alpha    104.67872185630469
_cell_angle_beta     106.31753382319675
_cell_angle_gamma    112.66856178862534

_space_group_name_H-M_alt    "P 1"
_space_group_IT_number       1

loop_
  _space_group_symop_operation_xyz
  'x, y, z'

loop_
  _atom_site_type_symbol
  _atom_site_label
  _atom_site_symmetry_multiplicity
  _atom_site_fract_x
  _atom_site_fract_y
  _atom_site_fract_z
  _atom_site_occupancy
  Ga  Ga1       1.0  0.755243718624115  0.5304346680641174  0.8440085053443909  1.0000
  Ga  Ga2       1.0  0.48924231529235834  0.9419236183166503  0.25441646575927734  1.0000
  Ga  Ga3       1.0  0.43695837259292597  0.8125025033950805  0.6356449127197266  1.0000
  Ga  Ga4       1.0  0.9991350769996643  0.19830599427223206  0.6724761128425598  1.0000
  Ge  Ge1       1.0  0.7533980011940002  0.30137649178504944  0.40168341994285583  1.0000
  Ge  Ge2       1.0  0.9395343065261841  0.5929716229438782  0.2542027235031128  1.0000
  Ge  Ge3       1.0  0.2816536426544189  0.8605453968048095  0.5247679352760315  1.0000
  Ge  Ge4       1.0  0.2476482093334198  0.09927712380886078  0.7680400013923645  1.0000
  Ge  Ge5       1.0  0.25093546509742737  0.593151330947876  0.7560769319534302  1.0000
  Ge  Ge6       1.0  0.7796974182128906  0.4209383130073547  0.8716663718223572  1.0000
  Ge  Ge7       1.0  0.9573035836219788  0.9138720631599425  0.22216928005218506  1.0000
  H   H1        1.0  0.19355526566505432  0.007282349281013011  0.3219759166240692  1.0000
  Pb  Pb1       1.0  0.9063404202461243  0.13446097075939178  0.29293352365493774  1.0000
  V   V1        1.0  0.4505986273288727  0.36986109614372253  0.1940697878599167  1.0000
  Zn  Zn1       1.0  0.45596927404403687  0.3348454236984253  0.6742576360702515  1.0000
