data_image0
_chemical_formula_structural       Ga5Ge6HPb3
_chemical_formula_sum              "Ga5 Ge6 H1 Pb3"
_cell_length_a       7.004407319577592
_cell_length_b       7.778378601547086
_cell_length_c       8.06893253326416
_cell_angle_alpha    95.31133610581144
_cell_angle_beta     110.45701180926017
_cell_angle_gamma    113.67976674890598

_space_group_name_H-M_alt    "P 1"
_space_group_IT_number       1

loop_
  _space_group_symop_operation_xyz
  'x, y, z'

loop_
  _atom_site_type_symbol
  _atom_site_label
  _atom_site_symmetry_multiplicity
  _atom_site_fract_x
  _atom_site_fract_y
  _atom_site_fract_z
  _atom_site_occupancy
  Ga  Ga1       1.0  0.9275226593017579  0.34159454703330994  0.0715712383389473  1.0000
  Ga  Ga2       1.0  0.047145992517471313  0.5349448919296265  0.6349834203720093  1.0000
  Ga  Ga3       1.0  0.8266715407371521  0.915375828742981  0.4206660687923432  1.0000
  Ga  Ga4       1.0  0.36016303300857544  0.11605395376682281  0.6739016175270081  1.0000
  Ga  Ga5       1.0  0.42658224701881414  0.849885880947113  0.8337740302085876  1.0000
  Ge  Ge1       1.0  0.5168858766555786  0.6484570503234863  0.9131832718849182  1.0000
  Ge  Ge2       1.0  0.897491753101349  0.560163676738739  0.27994024753570557  1.0000
  Ge  Ge3       1.0  0.9848175048828126  0.40131619572639465  0.9888739585876465  1.0000
  Ge  Ge4       1.0  0.31682053208351135  0.27343320846557617  0.08388812094926834  1.0000
  Ge  Ge5       1.0  0.3006979823112488  0.3565124273300171  0.4900304973125458  1.0000
  Ge  Ge6       1.0  0.31651246547698975  0.3786577880382538  0.5001717805862427  1.0000
  H   H1        1.0  0.8340043425559998  0.0559806190431118  0.9345825910568237  1.0000
  Pb  Pb1       1.0  0.5078996419906616  0.7936330437660217  0.408413827419281  1.0000
  Pb  Pb2       1.0  0.007790875155478683  0.9985884428024292  0.18533436954021457  1.0000
  Pb  Pb3       1.0  0.18048472702503204  0.48971253633499146  0.749376118183136  1.0000
