data_image0
_chemical_formula_structural       AsCoGa3Ge5HPb3Sm
_chemical_formula_sum              "As1 Co1 Ga3 Ge5 H1 Pb3 Sm1"
_cell_length_a       6.115136150935196
_cell_length_b       7.409944394001602
_cell_length_c       8.462777137756348
_cell_angle_alpha    89.77623937799262
_cell_angle_beta     96.58018124988988
_cell_angle_gamma    102.46092947963855

_space_group_name_H-M_alt    "P 1"
_space_group_IT_number       1

loop_
  _space_group_symop_operation_xyz
  'x, y, z'

loop_
  _atom_site_type_symbol
  _atom_site_label
  _atom_site_symmetry_multiplicity
  _atom_site_fract_x
  _atom_site_fract_y
  _atom_site_fract_z
  _atom_site_occupancy
  As  As1       1.0  0.7487525939941406  0.3817439079284668  0.41184431314468384  1.0000
  Co  Co1       1.0  0.3732999265193939  0.12243298441171648  0.37876763939857483  1.0000
  Ga  Ga1       1.0  0.6688300967216492  0.18372321128845215  0.8316298723220825  1.0000
  Ga  Ga2       1.0  0.8833039999008179  0.9758704900741578  0.6882736682891846  1.0000
  Ga  Ga3       1.0  0.07577412575483322  0.7642776966094971  0.9208400249481201  1.0000
  Ge  Ge1       1.0  0.22878015041351318  0.49214848875999456  0.7566112875938416  1.0000
  Ge  Ge2       1.0  0.2045612931251526  0.8069934248924255  0.3310778737068176  1.0000
  Ge  Ge3       1.0  0.750220000743866  0.4015607237815857  0.44369691610336304  1.0000
  Ge  Ge4       1.0  0.739118754863739  0.7551519274711609  0.4771248400211334  1.0000
  Ge  Ge5       1.0  0.2584761679172516  0.799471378326416  0.05928071588277817  1.0000
  H   H1        1.0  0.7266375422477722  0.7681440711021423  0.7585400938987732  1.0000
  Pb  Pb1       1.0  0.40867602825164795  0.8317592740058899  0.7815234661102295  1.0000
  Pb  Pb2       1.0  0.6587294340133667  0.6013387441635132  0.9297544956207275  1.0000
  Pb  Pb3       1.0  0.9950609803199768  0.7767603993415833  0.6697217226028442  1.0000
  Sm  Sm1       1.0  0.23820257186889648  0.47176691889762884  0.08068754523992538  1.0000
