data_image0
_chemical_formula_structural       Ga2GeLaSSm10
_chemical_formula_sum              "Ga2 Ge1 La1 S1 Sm10"
_cell_length_a       7.196074963210557
_cell_length_b       6.056524699147984
_cell_length_c       6.437138557434082
_cell_angle_alpha    111.08806010983072
_cell_angle_beta     111.95057380149193
_cell_angle_gamma    119.16391034860692

_space_group_name_H-M_alt    "P 1"
_space_group_IT_number       1

loop_
  _space_group_symop_operation_xyz
  'x, y, z'

loop_
  _atom_site_type_symbol
  _atom_site_label
  _atom_site_symmetry_multiplicity
  _atom_site_fract_x
  _atom_site_fract_y
  _atom_site_fract_z
  _atom_site_occupancy
  Ga  Ga1       1.0  0.711513876914978  0.3466299474239349  0.8752638101577759  1.0000
  Ga  Ga2       1.0  0.35854724049568176  0.6348508596420288  0.9009526371955872  1.0000
  Ge  Ge1       1.0  0.06784645467996597  0.06794074922800064  0.42067551612854004  1.0000
  La  La1       1.0  0.826476514339447  0.11830238252878188  0.0015512630343437884  1.0000
  S   S1        1.0  0.33574262261390686  0.28433817625045776  0.7551606893539429  1.0000
  Sm  Sm1       1.0  0.3597216010093689  0.47886291146278376  0.8741160035133362  1.0000
  Sm  Sm2       1.0  0.07958162575960157  0.4020900130271911  0.42439860105514526  1.0000
  Sm  Sm3       1.0  0.3882426023483276  0.8877033591270446  0.09249530732631676  1.0000
  Sm  Sm4       1.0  0.31601932644844055  0.38985961675643915  0.3182469606399536  1.0000
  Sm  Sm5       1.0  0.6501908302307129  0.5691357254981995  0.46684935688972473  1.0000
  Sm  Sm6       1.0  0.006873921025544405  0.2967797815799713  0.7753329277038573  1.0000
  Sm  Sm7       1.0  0.701402485370636  0.46702551841735834  0.5364025831222534  1.0000
  Sm  Sm8       1.0  0.6567269563674927  0.12706492841243744  0.8735369443893433  1.0000
  Sm  Sm9       1.0  0.36825528740882874  0.2483338266611099  0.8528475761413574  1.0000
  Sm  Sm10      1.0  0.40812116861343384  0.018525011837482452  0.7617618441581726  1.0000
