data_image0
_chemical_formula_structural       Ga2Ge2InSm10
_chemical_formula_sum              "Ga2 Ge2 In1 Sm10"
_cell_length_a       7.457055748548152
_cell_length_b       7.321639688295544
_cell_length_c       7.5236921310424805
_cell_angle_alpha    107.85263183157177
_cell_angle_beta     109.21657943039463
_cell_angle_gamma    111.26235314312378

_space_group_name_H-M_alt    "P 1"
_space_group_IT_number       1

loop_
  _space_group_symop_operation_xyz
  'x, y, z'

loop_
  _atom_site_type_symbol
  _atom_site_label
  _atom_site_symmetry_multiplicity
  _atom_site_fract_x
  _atom_site_fract_y
  _atom_site_fract_z
  _atom_site_occupancy
  Ga  Ga1       1.0  0.9640296697616577  0.24900096654891968  0.20408207178115845  1.0000
  Ga  Ga2       1.0  0.7050886154174805  0.5568237900733948  0.40618032217025757  1.0000
  Ge  Ge1       1.0  0.9619082808494568  0.8214616179466248  0.3947954773902893  1.0000
  Ge  Ge2       1.0  0.2505585849285126  0.9075078368186951  0.011543574742972792  1.0000
  In  In1       1.0  0.48003947734832764  0.7354527711868286  0.80988609790802  1.0000
  Sm  Sm1       1.0  0.27622467279434204  0.1888270080089569  0.6422759890556335  1.0000
  Sm  Sm2       1.0  0.23250097036361694  0.6324175596237183  0.24456192553043365  1.0000
  Sm  Sm3       1.0  0.1743340641260147  0.939314067363739  0.31195521354675293  1.0000
  Sm  Sm4       1.0  0.7374113202095032  0.9787874221801758  0.1140131875872612  1.0000
  Sm  Sm5       1.0  0.16566048562526703  0.8509863018989563  0.49133995175361633  1.0000
  Sm  Sm6       1.0  0.7151014804840088  0.46123093366622925  0.9080771803855896  1.0000
  Sm  Sm7       1.0  0.705117404460907  0.40019315481185913  0.8560489416122437  1.0000
  Sm  Sm8       1.0  0.23265570402145386  0.562503457069397  0.0837903171777725  1.0000
  Sm  Sm9       1.0  0.7439598441123962  0.06035248562693596  0.8877888321876526  1.0000
  Sm  Sm10      1.0  0.7409937977790833  0.6000956296920776  0.3940647840499878  1.0000
