data_image0
_chemical_formula_structural       Ca5I2Mn3Sc
_chemical_formula_sum              "Ca5 I2 Mn3 Sc1"
_cell_length_a       5.6059122389656615
_cell_length_b       7.056212994941833
_cell_length_c       11.326231002807617
_cell_angle_alpha    103.83384590317776
_cell_angle_beta     89.54232916159405
_cell_angle_gamma    104.83886043609685

_space_group_name_H-M_alt    "P 1"
_space_group_IT_number       1

loop_
  _space_group_symop_operation_xyz
  'x, y, z'

loop_
  _atom_site_type_symbol
  _atom_site_label
  _atom_site_symmetry_multiplicity
  _atom_site_fract_x
  _atom_site_fract_y
  _atom_site_fract_z
  _atom_site_occupancy
  Ca  Ca1       1.0  0.6558030247688293  0.43058454990386963  0.946948766708374  1.0000
  Ca  Ca2       1.0  0.1413571983575821  0.9068376421928406  0.9617088437080383  1.0000
  Ca  Ca3       1.0  0.18149277567863464  0.4419088065624237  0.9127820134162903  1.0000
  Ca  Ca4       1.0  0.446256548166275  0.983010470867157  0.70978844165802  1.0000
  Ca  Ca5       1.0  0.17699478566646576  0.4333563446998596  0.17678265273571014  1.0000
  I   I1        1.0  0.7400457262992859  0.8820810317993164  0.9680429697036743  1.0000
  I   I2        1.0  0.8597557544708252  0.6947949528694153  0.8736125230789185  1.0000
  Mn  Mn1       1.0  0.6932802200317383  0.27528098225593567  0.10112189501523972  1.0000
  Mn  Mn2       1.0  0.705141007900238  0.2151028960943222  0.01825740002095699  1.0000
  Mn  Mn3       1.0  0.4624145030975342  0.7079808712005615  0.42441055178642273  1.0000
  Sc  Sc1       1.0  0.43658748269081116  0.9912446737289429  0.1244871765375137  1.0000
