data_image0
_chemical_formula_structural       Ca4IMn4ScSn
_chemical_formula_sum              "Ca4 I1 Mn4 Sc1 Sn1"
_cell_length_a       5.153745960777763
_cell_length_b       6.263403784276232
_cell_length_c       9.19372272491455
_cell_angle_alpha    109.32605029594284
_cell_angle_beta     88.6200411453499
_cell_angle_gamma    91.89028844651028

_space_group_name_H-M_alt    "P 1"
_space_group_IT_number       1

loop_
  _space_group_symop_operation_xyz
  'x, y, z'

loop_
  _atom_site_type_symbol
  _atom_site_label
  _atom_site_symmetry_multiplicity
  _atom_site_fract_x
  _atom_site_fract_y
  _atom_site_fract_z
  _atom_site_occupancy
  Ca  Ca1       1.0  0.18122752010822296  0.4140455722808838  0.9908909201622008  1.0000
  Ca  Ca2       1.0  0.6711978316307068  0.9705044031143188  0.4367489814758301  1.0000
  Ca  Ca3       1.0  0.6770204901695251  0.6841729879379272  0.24826833605766294  1.0000
  Ca  Ca4       1.0  0.8934810757637024  0.44423359632492065  0.5218195915222168  1.0000
  I   I1        1.0  0.6695926785469055  0.7218863368034363  0.2781125605106354  1.0000
  Mn  Mn1       1.0  0.18775674700737  0.7488799691200256  0.5352765917778015  1.0000
  Mn  Mn2       1.0  0.6756948232650757  0.4661646783351898  0.9361075162887572  1.0000
  Mn  Mn3       1.0  0.20006978511810303  0.9815858006477356  0.9538036584854125  1.0000
  Mn  Mn4       1.0  0.460205078125  0.990993320941925  0.5923731923103333  1.0000
  Sc  Sc1       1.0  0.9083804488182068  0.42048728466033936  0.6731278300285338  1.0000
  Sn  Sn1       1.0  0.17692045867443085  0.6816828846931458  0.3722607493400574  1.0000
