data_image0
_chemical_formula_structural       Ca6Mn4Sn
_chemical_formula_sum              "Ca6 Mn4 Sn1"
_cell_length_a       6.088145286146576
_cell_length_b       6.576108372852694
_cell_length_c       9.666749000549316
_cell_angle_alpha    90.5055393380116
_cell_angle_beta     87.0649875243169
_cell_angle_gamma    61.9219165184164

_space_group_name_H-M_alt    "P 1"
_space_group_IT_number       1

loop_
  _space_group_symop_operation_xyz
  'x, y, z'

loop_
  _atom_site_type_symbol
  _atom_site_label
  _atom_site_symmetry_multiplicity
  _atom_site_fract_x
  _atom_site_fract_y
  _atom_site_fract_z
  _atom_site_occupancy
  Ca  Ca1       1.0  0.2586846649646759  0.7701418399810791  0.8265960812568665  1.0000
  Ca  Ca2       1.0  0.6472048163414001  0.5401849746704102  0.3471638262271881  1.0000
  Ca  Ca3       1.0  0.9503303170204163  0.7588106393814087  0.05229119956493378  1.0000
  Ca  Ca4       1.0  0.7514136433601379  0.23068121075630188  0.7945181727409364  1.0000
  Ca  Ca5       1.0  0.7928972244262695  0.1769043654203415  0.6671382784843445  1.0000
  Ca  Ca6       1.0  0.17860864102840424  0.5750521421432495  0.5204312801361084  1.0000
  Mn  Mn1       1.0  0.5578351020812988  0.9421431422233582  0.9209357500076294  1.0000
  Mn  Mn2       1.0  0.034149397164583206  0.2654586136341095  0.6110315322875977  1.0000
  Mn  Mn3       1.0  0.21205292642116547  0.4859956204891205  0.4089696705341339  1.0000
  Mn  Mn4       1.0  0.3414107859134674  0.1520167887210846  0.9379450082778931  1.0000
  Sn  Sn1       1.0  0.4294815957546234  0.27055564522743225  0.8248618841171265  1.0000
