data_image0
_chemical_formula_structural       Ca4Mn4ScSn2
_chemical_formula_sum              "Ca4 Mn4 Sc1 Sn2"
_cell_length_a       5.799597236554171
_cell_length_b       6.053204142820032
_cell_length_c       10.30076789855957
_cell_angle_alpha    89.85081551717474
_cell_angle_beta     89.80990125540282
_cell_angle_gamma    119.79125219468602

_space_group_name_H-M_alt    "P 1"
_space_group_IT_number       1

loop_
  _space_group_symop_operation_xyz
  'x, y, z'

loop_
  _atom_site_type_symbol
  _atom_site_label
  _atom_site_symmetry_multiplicity
  _atom_site_fract_x
  _atom_site_fract_y
  _atom_site_fract_z
  _atom_site_occupancy
  Ca  Ca1       1.0  0.647564172744751  0.33000263571739197  0.8364378809928894  1.0000
  Ca  Ca2       1.0  0.997627854347229  0.6186844110488892  0.5089490413665771  1.0000
  Ca  Ca3       1.0  0.9545726776123047  0.36352890729904175  0.5605378746986389  1.0000
  Ca  Ca4       1.0  0.8392819762229919  0.9943439960479736  0.16986365616321564  1.0000
  Mn  Mn1       1.0  0.9786280393600464  0.6352579593658447  0.8346942663192749  1.0000
  Mn  Mn2       1.0  0.542218029499054  0.48968443274497986  0.1586465835571289  1.0000
  Mn  Mn3       1.0  0.4956094026565552  0.6125737428665161  0.14750607311725616  1.0000
  Mn  Mn4       1.0  0.5016180276870728  0.0021230836864560843  0.6594594120979309  1.0000
  Sc  Sc1       1.0  0.006676848977804184  0.1209474429488182  0.9948056936264038  1.0000
  Sn  Sn1       1.0  0.7000906467437744  0.14906661212444305  0.3211980164051056  1.0000
  Sn  Sn2       1.0  0.32944902777671814  0.1267053484916687  0.6164345741271973  1.0000
