data_image0
_chemical_formula_structural       Ca4Mn4Sn3
_chemical_formula_sum              "Ca4 Mn4 Sn3"
_cell_length_a       5.248793333053875
_cell_length_b       6.725421872978465
_cell_length_c       7.085228443145752
_cell_angle_alpha    80.95782532658123
_cell_angle_beta     65.32873275747205
_cell_angle_gamma    66.11386418331617

_space_group_name_H-M_alt    "P 1"
_space_group_IT_number       1

loop_
  _space_group_symop_operation_xyz
  'x, y, z'

loop_
  _atom_site_type_symbol
  _atom_site_label
  _atom_site_symmetry_multiplicity
  _atom_site_fract_x
  _atom_site_fract_y
  _atom_site_fract_z
  _atom_site_occupancy
  Ca  Ca1       1.0  0.3018229603767395  0.23976339399814608  0.2457312643527985  1.0000
  Ca  Ca2       1.0  0.28503608703613276  0.9842498898506166  0.12039637565612794  1.0000
  Ca  Ca3       1.0  0.7486308813095093  0.14896248281002045  0.15365509688854215  1.0000
  Ca  Ca4       1.0  0.7449525594711304  0.6534000039100647  0.2666803896427154  1.0000
  Mn  Mn1       1.0  0.8837898373603821  0.7588921785354615  0.40630540251731867  1.0000
  Mn  Mn2       1.0  0.9239976406097412  0.7481996417045594  0.06920747458934778  1.0000
  Mn  Mn3       1.0  0.2835231721401214  0.7217922806739808  0.143943652510643  1.0000
  Mn  Mn4       1.0  0.2510600090026855  0.44024613499641424  0.27262306213378906  1.0000
  Sn  Sn1       1.0  0.8578416705131531  0.4649109542369843  0.892549753189087  1.0000
  Sn  Sn2       1.0  0.2626058757305145  0.06324074417352676  0.3975010812282563  1.0000
  Sn  Sn3       1.0  0.7652360796928406  0.1377779096364975  0.6262868046760559  1.0000
