data_image0
_chemical_formula_structural       Ca3Mn4Sn4
_chemical_formula_sum              "Ca3 Mn4 Sn4"
_cell_length_a       4.529190188150711
_cell_length_b       5.550226973405458
_cell_length_c       9.017922401428223
_cell_angle_alpha    108.63011996206632
_cell_angle_beta     87.4990474857814
_cell_angle_gamma    116.26060740265136

_space_group_name_H-M_alt    "P 1"
_space_group_IT_number       1

loop_
  _space_group_symop_operation_xyz
  'x, y, z'

loop_
  _atom_site_type_symbol
  _atom_site_label
  _atom_site_symmetry_multiplicity
  _atom_site_fract_x
  _atom_site_fract_y
  _atom_site_fract_z
  _atom_site_occupancy
  Ca  Ca1       1.0  0.7922764420509338  0.22817043960094452  0.40231430530548096  1.0000
  Ca  Ca2       1.0  0.787290096282959  0.7002382278442383  0.7096070051193237  1.0000
  Ca  Ca3       1.0  0.26057857275009155  0.7376769781112671  0.9727410674095154  1.0000
  Mn  Mn1       1.0  0.3080295920372009  0.905002236366272  0.48716500401496887  1.0000
  Mn  Mn2       1.0  0.7931523323059082  0.6386470198631287  0.7136279344558716  1.0000
  Mn  Mn3       1.0  0.2698775827884674  0.07774185389280319  0.08416331559419632  1.0000
  Mn  Mn4       1.0  0.30878299474716187  0.3887232840061188  0.561241865158081  1.0000
  Sn  Sn1       1.0  0.7734793424606323  0.23659127950668335  0.8954554200172424  1.0000
  Sn  Sn2       1.0  0.3196942210197449  0.4248408377170563  0.36220619082450867  1.0000
  Sn  Sn3       1.0  0.2804858982563019  0.7346387505531311  0.9202976226806641  1.0000
  Sn  Sn4       1.0  0.7709528803825378  0.7287976145744324  0.3867385685443878  1.0000
