data_image0
_chemical_formula_structural       DyGe2Lu7Zn
_chemical_formula_sum              "Dy1 Ge2 Lu7 Zn1"
_cell_length_a       5.318827010478885
_cell_length_b       5.452665436416192
_cell_length_c       6.538323402404785
_cell_angle_alpha    111.23452879928291
_cell_angle_beta     107.47607948852512
_cell_angle_gamma    110.49685553314416

_space_group_name_H-M_alt    "P 1"
_space_group_IT_number       1

loop_
  _space_group_symop_operation_xyz
  'x, y, z'

loop_
  _atom_site_type_symbol
  _atom_site_label
  _atom_site_symmetry_multiplicity
  _atom_site_fract_x
  _atom_site_fract_y
  _atom_site_fract_z
  _atom_site_occupancy
  Dy  Dy1       1.0  0.4076070785522461  0.40277937054634094  0.0918993353843689  1.0000
  Ge  Ge1       1.0  0.04691601172089577  0.6917468309402466  0.24146899580955505  1.0000
  Ge  Ge2       1.0  0.4847615361213684  0.2920094132423401  0.12645047903060913  1.0000
  Lu  Lu1       1.0  0.11646248400211334  0.12587246298789978  0.27224960923194885  1.0000
  Lu  Lu2       1.0  0.7657930850982666  0.21517907083034515  0.9703688025474548  1.0000
  Lu  Lu3       1.0  0.28772473335266113  0.24786362051963806  0.502430260181427  1.0000
  Lu  Lu4       1.0  0.2383267730474472  0.08367685973644257  0.8994812369346619  1.0000
  Lu  Lu5       1.0  0.773940920829773  0.2855515480041504  0.5732408165931702  1.0000
  Lu  Lu6       1.0  0.707707405090332  0.6144170761108398  0.7487801909446716  1.0000
  Lu  Lu7       1.0  0.08603125810623169  0.579537034034729  0.38201066851615906  1.0000
  Zn  Zn1       1.0  0.055384617298841476  0.8575869798660278  0.6185468435287476  1.0000
