data_image0
_chemical_formula_structural       Ge2Lu7Zn2
_chemical_formula_sum              "Ge2 Lu7 Zn2"
_cell_length_a       6.260955354996439
_cell_length_b       6.354237411522963
_cell_length_c       6.842552185058594
_cell_angle_alpha    110.03649834916953
_cell_angle_beta     105.87305502131211
_cell_angle_gamma    112.62043159146766

_space_group_name_H-M_alt    "P 1"
_space_group_IT_number       1

loop_
  _space_group_symop_operation_xyz
  'x, y, z'

loop_
  _atom_site_type_symbol
  _atom_site_label
  _atom_site_symmetry_multiplicity
  _atom_site_fract_x
  _atom_site_fract_y
  _atom_site_fract_z
  _atom_site_occupancy
  Ge  Ge1       1.0  0.04824342578649521  0.22516082227230072  0.6912484765052795  1.0000
  Ge  Ge2       1.0  0.7129821181297302  0.9787737131118774  0.677388608455658  1.0000
  Lu  Lu1       1.0  0.8401364684104919  0.9754908084869385  0.44594165682792664  1.0000
  Lu  Lu2       1.0  0.45766049623489385  0.17322862148284912  0.40695619583129883  1.0000
  Lu  Lu3       1.0  0.942133128643036  0.06276516616344452  0.41509944200515747  1.0000
  Lu  Lu4       1.0  0.5649911761283875  0.7207878232002258  0.05700724944472313  1.0000
  Lu  Lu5       1.0  0.23386387526988986  0.4403596520423889  0.42236921191215515  1.0000
  Lu  Lu6       1.0  0.4210270345211029  0.05455801263451576  0.3926469683647156  1.0000
  Lu  Lu7       1.0  0.37283486127853394  0.5412381291389465  0.8667374849319458  1.0000
  Zn  Zn1       1.0  0.2735869884490967  0.8972766399383545  0.33099663257598877  1.0000
  Zn  Zn2       1.0  0.20634715259075165  0.8407412171363831  0.005605706013739109  1.0000
