data_image0
_chemical_formula_structural       CuGeLu9
_chemical_formula_sum              "Cu1 Ge1 Lu9"
_cell_length_a       4.940362888720855
_cell_length_b       5.6372136045068455
_cell_length_c       8.625643730163574
_cell_angle_alpha    87.02092426148604
_cell_angle_beta     87.26208305597454
_cell_angle_gamma    118.16915489181444

_space_group_name_H-M_alt    "P 1"
_space_group_IT_number       1

loop_
  _space_group_symop_operation_xyz
  'x, y, z'

loop_
  _atom_site_type_symbol
  _atom_site_label
  _atom_site_symmetry_multiplicity
  _atom_site_fract_x
  _atom_site_fract_y
  _atom_site_fract_z
  _atom_site_occupancy
  Cu  Cu1       1.0  0.13260577619075775  0.06555570662021637  0.8057040572166443  1.0000
  Ge  Ge1       1.0  0.3081226646900177  0.1300726979970932  0.4120771288871765  1.0000
  Lu  Lu1       1.0  0.13665816187858582  0.13376078009605408  0.2411937415599823  1.0000
  Lu  Lu2       1.0  0.8155511617660522  0.09106147289276123  0.7351709008216858  1.0000
  Lu  Lu3       1.0  0.2750172019004822  0.34699714183807373  0.20700843632221222  1.0000
  Lu  Lu4       1.0  0.6157335638999939  0.03967637941241264  0.31775805354118347  1.0000
  Lu  Lu5       1.0  0.9831157922744751  0.46358010172843933  0.3051871657371521  1.0000
  Lu  Lu6       1.0  0.777454137802124  0.7248355150222778  0.8515738844871521  1.0000
  Lu  Lu7       1.0  0.7671687006950378  0.3555185794830322  0.2959177792072296  1.0000
  Lu  Lu8       1.0  0.4809964895248413  0.9156517386436462  0.8841623067855835  1.0000
  Lu  Lu9       1.0  0.8327075242996216  0.5954813957214355  0.7519391775131226  1.0000
