data_image0
_chemical_formula_structural       Cu5Ge3Lu3
_chemical_formula_sum              "Cu5 Ge3 Lu3"
_cell_length_a       4.189799722488063
_cell_length_b       4.492101624903918
_cell_length_c       6.080474853515625
_cell_angle_alpha    95.70968834400509
_cell_angle_beta     97.92528828507602
_cell_angle_gamma    89.52039439609426

_space_group_name_H-M_alt    "P 1"
_space_group_IT_number       1

loop_
  _space_group_symop_operation_xyz
  'x, y, z'

loop_
  _atom_site_type_symbol
  _atom_site_label
  _atom_site_symmetry_multiplicity
  _atom_site_fract_x
  _atom_site_fract_y
  _atom_site_fract_z
  _atom_site_occupancy
  Cu  Cu1       1.0  0.44128409028053284  0.8066844940185547  0.4146446287631988  1.0000
  Cu  Cu2       1.0  0.5402383208274841  0.06880464404821396  0.7379267215728759  1.0000
  Cu  Cu3       1.0  0.8988884687423706  0.6076033115386963  0.581824779510498  1.0000
  Cu  Cu4       1.0  0.42907652258872986  0.5474472641944885  0.5055335760116577  1.0000
  Cu  Cu5       1.0  0.15228067338466644  0.9935107827186583  0.6781488656997681  1.0000
  Ge  Ge1       1.0  0.18833419680595398  0.27182596921920776  0.8646985292434691  1.0000
  Ge  Ge2       1.0  0.7205319404602051  0.7495863437652588  0.26686927676200867  1.0000
  Ge  Ge3       1.0  0.9170453548431396  0.7735022306442261  0.2177299857139587  1.0000
  Lu  Lu1       1.0  0.8926162123680115  0.778404712677002  0.6904032230377197  1.0000
  Lu  Lu2       1.0  0.9038429260253906  0.2186308205127716  0.7476724386215209  1.0000
  Lu  Lu3       1.0  0.3677210211753845  0.7007626295089722  0.3201471269130707  1.0000
