data_image0
_chemical_formula_structural       Cu6Ge4Lu
_chemical_formula_sum              "Cu6 Ge4 Lu1"
_cell_length_a       5.332409954657842
_cell_length_b       4.68799324140795
_cell_length_c       4.740987300872803
_cell_angle_alpha    111.85760638218372
_cell_angle_beta     113.166225071155
_cell_angle_gamma    120.49728847190465

_space_group_name_H-M_alt    "P 1"
_space_group_IT_number       1

loop_
  _space_group_symop_operation_xyz
  'x, y, z'

loop_
  _atom_site_type_symbol
  _atom_site_label
  _atom_site_symmetry_multiplicity
  _atom_site_fract_x
  _atom_site_fract_y
  _atom_site_fract_z
  _atom_site_occupancy
  Cu  Cu1       1.0  0.024593079462647393  0.31124171614646906  0.8750436305999756  1.0000
  Cu  Cu2       1.0  0.486726850271225  0.27122586965560913  0.33026590943336487  1.0000
  Cu  Cu3       1.0  0.30648273229599  0.6655382513999939  0.1272932589054108  1.0000
  Cu  Cu4       1.0  0.5028610825538635  0.3125563859939575  0.053643062710762024  1.0000
  Cu  Cu5       1.0  0.49670347571372986  0.5775303840637207  0.8964204788208008  1.0000
  Cu  Cu6       1.0  0.8612438440322876  0.4243638813495636  0.7620822787284851  1.0000
  Ge  Ge1       1.0  0.5447266101837158  0.7686401009559631  0.597537636756897  1.0000
  Ge  Ge2       1.0  0.051465440541505814  0.6435624957084656  0.3657841086387634  1.0000
  Ge  Ge3       1.0  0.05649840086698523  0.9137462973594664  0.03963828459382051  1.0000
  Ge  Ge4       1.0  0.07016713172197352  0.46676942706108104  0.6356313824653627  1.0000
  Lu  Lu1       1.0  0.5308882594108583  0.27914127707481395  0.46390399336814886  1.0000
