data_image0
_chemical_formula_structural       Ge2Lu8Se
_chemical_formula_sum              "Ge2 Lu8 Se1"
_cell_length_a       5.310535517435158
_cell_length_b       6.064478265634861
_cell_length_c       6.859979152679443
_cell_angle_alpha    99.60296392099914
_cell_angle_beta     102.98763499966955
_cell_angle_gamma    95.58350762253002

_space_group_name_H-M_alt    "P 1"
_space_group_IT_number       1

loop_
  _space_group_symop_operation_xyz
  'x, y, z'

loop_
  _atom_site_type_symbol
  _atom_site_label
  _atom_site_symmetry_multiplicity
  _atom_site_fract_x
  _atom_site_fract_y
  _atom_site_fract_z
  _atom_site_occupancy
  Ge  Ge1       1.0  0.7798570990562439  0.5491387844085693  0.5725218057632446  1.0000
  Ge  Ge2       1.0  0.4965232014656067  0.18920294940471646  0.793785572052002  1.0000
  Lu  Lu1       1.0  0.5031259655952454  0.3316899538040161  0.7124495506286621  1.0000
  Lu  Lu2       1.0  0.011306887492537488  0.4593656659126281  0.23967455327510834  1.0000
  Lu  Lu3       1.0  0.5060819983482361  0.1400238424539566  0.019215360283851624  1.0000
  Lu  Lu4       1.0  0.02935904823243618  0.7058587074279785  0.4842304587364197  1.0000
  Lu  Lu5       1.0  0.4986472725868225  0.48917108774185175  0.6112333536148071  1.0000
  Lu  Lu6       1.0  0.9675414562225342  0.07986588776111603  0.5310246348381042  1.0000
  Lu  Lu7       1.0  0.0004658699035644531  0.5703026652336121  0.36016330122947693  1.0000
  Lu  Lu8       1.0  0.5058495998382568  0.48516961932182306  0.8126787543296814  1.0000
  Se  Se1       1.0  0.4993312656879425  0.5075485110282898  0.36760929226875305  1.0000
