data_image0
_chemical_formula_structural       AlClCo2Hf2HgKTe2WZr
_chemical_formula_sum              "Al1 Cl1 Co2 Hf2 Hg1 K1 Te2 W1 Zr1"
_cell_length_a       6.375236074039323
_cell_length_b       6.465647338198684
_cell_length_c       7.280585289001465
_cell_angle_alpha    90.1126787401942
_cell_angle_beta     90.08606379956886
_cell_angle_gamma    118.4211657705178

_space_group_name_H-M_alt    "P 1"
_space_group_IT_number       1

loop_
  _space_group_symop_operation_xyz
  'x, y, z'

loop_
  _atom_site_type_symbol
  _atom_site_label
  _atom_site_symmetry_multiplicity
  _atom_site_fract_x
  _atom_site_fract_y
  _atom_site_fract_z
  _atom_site_occupancy
  Al  Al1       1.0  0.008095243014395237  0.020503712818026543  0.5700187087059021  1.0000
  Cl  Cl1       1.0  0.05145099759101868  0.0426127091050148  0.127089262008667  1.0000
  Co  Co1       1.0  0.5825312733650208  0.5378309488296509  0.5660288929939269  1.0000
  Co  Co2       1.0  0.6420410871505737  0.9125704765319824  0.4703948199748993  1.0000
  Hf  Hf1       1.0  0.7574901580810547  0.770064115524292  0.8190359473228453  1.0000
  Hf  Hf2       1.0  0.6041303873062134  0.003668066579848528  0.12019956111907959  1.0000
  Hg  Hg1       1.0  0.8055242896080017  0.29519274830818176  0.7776463627815245  1.0000
  K   K1        1.0  0.09240824729204178  0.5386245250701904  0.3320866227149964  1.0000
  Te  Te1       1.0  0.2736074924468994  0.8209724426269531  0.7827450633049011  1.0000
  Te  Te2       1.0  0.5805649757385254  0.4862169623374939  0.12294069677591324  1.0000
  W   W1        1.0  0.28301095962524414  0.3330630660057068  0.8253231048583984  1.0000
  Zr  Zr1       1.0  0.4277031123638153  0.16846632957458496  0.4455775618553162  1.0000
