data_image0
_chemical_formula_structural       AlBiClCo2FGdHf2TeXeZr
_chemical_formula_sum              "Al1 Bi1 Cl1 Co2 F1 Gd1 Hf2 Te1 Xe1 Zr1"
_cell_length_a       5.660235736779588
_cell_length_b       7.455871037416661
_cell_length_c       7.526987552642822
_cell_angle_alpha    112.35016524354631
_cell_angle_beta     102.78694807884952
_cell_angle_gamma    107.40780650130043

_space_group_name_H-M_alt    "P 1"
_space_group_IT_number       1

loop_
  _space_group_symop_operation_xyz
  'x, y, z'

loop_
  _atom_site_type_symbol
  _atom_site_label
  _atom_site_symmetry_multiplicity
  _atom_site_fract_x
  _atom_site_fract_y
  _atom_site_fract_z
  _atom_site_occupancy
  Al  Al1       1.0  0.7468636631965637  0.11549355089664459  0.8712883591651917  1.0000
  Bi  Bi1       1.0  0.7705483436584473  0.987342357635498  0.22080190479755402  1.0000
  Cl  Cl1       1.0  0.4861384928226471  0.43420693278312683  0.8983463048934937  1.0000
  Co  Co1       1.0  0.5502225160598755  0.1638558954000473  0.4787929058074951  1.0000
  Co  Co2       1.0  0.44936302304267883  0.4383416175842285  0.5059847235679626  1.0000
  F   F1        1.0  0.9294682145118713  0.19151127338409424  0.6801239252090454  1.0000
  Gd  Gd1       1.0  0.35962677001953125  0.22019021213054657  0.13850103318691254  1.0000
  Hf  Hf1       1.0  0.6479753255844116  0.8186767101287842  0.5070408582687378  1.0000
  Hf  Hf2       1.0  0.22262170910835266  0.039851441979408264  0.5858041048049927  1.0000
  Te  Te1       1.0  0.09416934847831726  0.6124354004859924  0.25116536021232605  1.0000
  Xe  Xe1       1.0  0.14612066745758057  0.8184381723403931  0.8110262751579285  1.0000
  Zr  Zr1       1.0  0.9556637406349182  0.4327915608882904  0.5115566253662109  1.0000
