data_image0
_chemical_formula_structural       Co4Hf3Pt3Zr2
_chemical_formula_sum              "Co4 Hf3 Pt3 Zr2"
_cell_length_a       3.3942498145447613
_cell_length_b       6.95314783944323
_cell_length_c       8.917640686035156
_cell_angle_alpha    112.28494208521857
_cell_angle_beta     89.92693990154066
_cell_angle_gamma    90.03357652270198

_space_group_name_H-M_alt    "P 1"
_space_group_IT_number       1

loop_
  _space_group_symop_operation_xyz
  'x, y, z'

loop_
  _atom_site_type_symbol
  _atom_site_label
  _atom_site_symmetry_multiplicity
  _atom_site_fract_x
  _atom_site_fract_y
  _atom_site_fract_z
  _atom_site_occupancy
  Co  Co1       1.0  0.875973105430603  0.7334941625595093  0.2217175513505936  1.0000
  Co  Co2       1.0  0.8769263625144958  0.09144720435142517  0.034575752913951874  1.0000
  Co  Co3       1.0  0.8763504028320312  0.41450878977775574  0.8969075083732605  1.0000
  Co  Co4       1.0  0.877025842666626  0.41524970531463623  0.37413427233695984  1.0000
  Hf  Hf1       1.0  0.37677425146102905  0.4127926230430603  0.630125105381012  1.0000
  Hf  Hf2       1.0  0.3776288330554962  0.09315373748540878  0.28052124381065374  1.0000
  Hf  Hf3       1.0  0.3778364360332489  0.733285129070282  0.45011165738105774  1.0000
  Pt  Pt1       1.0  0.877452552318573  0.07583726942539215  0.5306075811386108  1.0000
  Pt  Pt2       1.0  0.3780650198459625  0.4198663532733917  0.13439370691776278  1.0000
  Pt  Pt3       1.0  0.87714684009552  0.7360673546791077  0.7211843132972717  1.0000
  Zr  Zr1       1.0  0.37710291147232056  0.09178277105093002  0.8054178357124329  1.0000
  Zr  Zr2       1.0  0.37694352865219116  0.7346286773681641  0.9837129712104797  1.0000
