data_image0
_chemical_formula_structural       Co4Hf2Pt3ThZr2
_chemical_formula_sum              "Co4 Hf2 Pt3 Th1 Zr2"
_cell_length_a       3.5088178184194025
_cell_length_b       8.008557966383373
_cell_length_c       8.045454978942871
_cell_angle_alpha    119.7471699773456
_cell_angle_beta     89.96586999539632
_cell_angle_gamma    90.14529184481236

_space_group_name_H-M_alt    "P 1"
_space_group_IT_number       1

loop_
  _space_group_symop_operation_xyz
  'x, y, z'

loop_
  _atom_site_type_symbol
  _atom_site_label
  _atom_site_symmetry_multiplicity
  _atom_site_fract_x
  _atom_site_fract_y
  _atom_site_fract_z
  _atom_site_occupancy
  Co  Co1       1.0  0.5866422057151794  0.724365770816803  0.8881290555000305  1.0000
  Co  Co2       1.0  0.08801734447479248  0.6158340573310852  0.0032148361206054688  1.0000
  Co  Co3       1.0  0.08840268850326538  0.6274539232254028  0.7087960243225098  1.0000
  Co  Co4       1.0  0.5877838134765625  0.5276073217391968  0.5149558186531067  1.0000
  Hf  Hf1       1.0  0.5898595452308655  0.8976078033447266  0.6937546133995056  1.0000
  Hf  Hf2       1.0  0.5877073407173157  0.34922364354133606  0.1067877486348152  1.0000
  Pt  Pt1       1.0  0.08795127272605896  0.06680217385292053  0.5683144927024841  1.0000
  Pt  Pt2       1.0  0.0870746523141861  0.9883977174758911  0.00745015731081361  1.0000
  Pt  Pt3       1.0  0.08518706262111664  0.6482594609260559  0.36603617668151855  1.0000
  Th  Th1       1.0  0.08632418513298035  0.285546213388443  0.3690120577812195  1.0000
  Zr  Zr1       1.0  0.5866771340370178  0.9048288464546204  0.2595128118991852  1.0000
  Zr  Zr2       1.0  0.5897828936576843  0.35329246520996094  0.7235861420631409  1.0000
