data_image0
_chemical_formula_structural       AsCMg3PZn4
_chemical_formula_sum              "As1 C1 Mg3 P1 Zn4"
_cell_length_a       6.249749197571963
_cell_length_b       6.233163087911115
_cell_length_c       6.493368625640869
_cell_angle_alpha    111.07177480418508
_cell_angle_beta     112.33847193285115
_cell_angle_gamma    110.17210952762304

_space_group_name_H-M_alt    "P 1"
_space_group_IT_number       1

loop_
  _space_group_symop_operation_xyz
  'x, y, z'

loop_
  _atom_site_type_symbol
  _atom_site_label
  _atom_site_symmetry_multiplicity
  _atom_site_fract_x
  _atom_site_fract_y
  _atom_site_fract_z
  _atom_site_occupancy
  As  As1       1.0  0.8690310716629028  0.821956217288971  0.41246446967124945  1.0000
  C   C1        1.0  0.47011813521385193  0.039735112339258194  0.8341984152793883  1.0000
  Mg  Mg1       1.0  0.34568265080451965  0.7183365821838379  0.503166675567627  1.0000
  Mg  Mg2       1.0  0.3431124985218048  0.7364596724510193  0.33339408040046686  1.0000
  Mg  Mg3       1.0  0.8599869608879089  0.24032899737358093  0.6316518783569335  1.0000
  P   P1        1.0  0.21101438999176025  0.5335391759872437  0.5270555019378662  1.0000
  Zn  Zn1       1.0  0.8510251641273499  0.22077995538711548  0.9112353920936583  1.0000
  Zn  Zn2       1.0  0.35292527079582214  0.2223067283630371  0.379446268081665  1.0000
  Zn  Zn3       1.0  0.8621225357055664  0.34960871934890747  0.1482042670249939  1.0000
  Zn  Zn4       1.0  0.6429550647735596  0.7184321880340576  0.5966441035270691  1.0000
