data_image0
_chemical_formula_structural       Mg7Zn3
_chemical_formula_sum              "Mg7 Zn3"
_cell_length_a       5.970302502065274
_cell_length_b       5.36115808291568
_cell_length_c       5.528768539428711
_cell_angle_alpha    115.3171013824623
_cell_angle_beta     101.09360819310612
_cell_angle_gamma    96.65527080634897

_space_group_name_H-M_alt    "P 1"
_space_group_IT_number       1

loop_
  _space_group_symop_operation_xyz
  'x, y, z'

loop_
  _atom_site_type_symbol
  _atom_site_label
  _atom_site_symmetry_multiplicity
  _atom_site_fract_x
  _atom_site_fract_y
  _atom_site_fract_z
  _atom_site_occupancy
  Mg  Mg1       1.0  0.7898384928703308  0.4020681381225586  0.5228378176689148  1.0000
  Mg  Mg2       1.0  0.7894256711006165  0.012058676220476627  0.8534575700759888  1.0000
  Mg  Mg3       1.0  0.29273223876953125  0.27400246262550354  0.9491671323776245  1.0000
  Mg  Mg4       1.0  0.2910665273666382  0.3361981511116028  0.9025112390518188  1.0000
  Mg  Mg5       1.0  0.28762051463127136  0.9851880669593811  0.3135111331939697  1.0000
  Mg  Mg6       1.0  0.7904177308082581  0.48124170303344727  0.7745335102081299  1.0000
  Mg  Mg7       1.0  0.7902020812034607  0.8266758322715759  0.8261775970458984  1.0000
  Zn  Zn1       1.0  0.29032281041145325  0.9584754109382629  0.14090164005756378  1.0000
  Zn  Zn2       1.0  0.7936951518058777  0.7184156179428101  0.5524154305458069  1.0000
  Zn  Zn3       1.0  0.7924941182136536  0.592909574508667  0.35576948523521423  1.0000
