data_image0
_chemical_formula_structural       Mg7YZn2
_chemical_formula_sum              "Mg7 Y1 Zn2"
_cell_length_a       6.196770221442337
_cell_length_b       5.861387787182052
_cell_length_c       5.704812526702881
_cell_angle_alpha    98.99666216481423
_cell_angle_beta     93.45871523905197
_cell_angle_gamma    97.58004807354952

_space_group_name_H-M_alt    "P 1"
_space_group_IT_number       1

loop_
  _space_group_symop_operation_xyz
  'x, y, z'

loop_
  _atom_site_type_symbol
  _atom_site_label
  _atom_site_symmetry_multiplicity
  _atom_site_fract_x
  _atom_site_fract_y
  _atom_site_fract_z
  _atom_site_occupancy
  Mg  Mg1       1.0  0.11792982369661331  0.6218026280403137  0.9742419123649597  1.0000
  Mg  Mg2       1.0  0.2859387695789337  0.5601686239242554  0.48329341411590576  1.0000
  Mg  Mg3       1.0  0.6204110383987427  0.09869474172592163  0.7732957005500793  1.0000
  Mg  Mg4       1.0  0.6196337938308716  0.7394911646842957  0.9740515947341919  1.0000
  Mg  Mg5       1.0  0.12177810072898865  0.4859435260295868  0.09219402819871902  1.0000
  Mg  Mg6       1.0  0.1227211058139801  0.6691418290138245  0.05607335641980171  1.0000
  Mg  Mg7       1.0  0.8719346523284912  0.8647699356079102  0.2509773075580597  1.0000
  Y   Y1        1.0  0.6185358762741089  0.14413774013519287  0.7779316902160645  1.0000
  Zn  Zn1       1.0  0.6208963394165039  0.5510231852531433  0.5615317225456238  1.0000
  Zn  Zn2       1.0  0.6183030009269714  0.2599544823169708  0.17418168485164642  1.0000
