data_image0
_chemical_formula_structural       FMg3Zn4Zr2
_chemical_formula_sum              "F1 Mg3 Zn4 Zr2"
_cell_length_a       5.800331651229569
_cell_length_b       5.832833268444213
_cell_length_c       6.30672025680542
_cell_angle_alpha    111.31001580673431
_cell_angle_beta     91.6891982585682
_cell_angle_gamma    90.24230793741046

_space_group_name_H-M_alt    "P 1"
_space_group_IT_number       1

loop_
  _space_group_symop_operation_xyz
  'x, y, z'

loop_
  _atom_site_type_symbol
  _atom_site_label
  _atom_site_symmetry_multiplicity
  _atom_site_fract_x
  _atom_site_fract_y
  _atom_site_fract_z
  _atom_site_occupancy
  F   F1        1.0  0.17795981466770172  0.6535781621932983  0.8161882162094116  1.0000
  Mg  Mg1       1.0  0.17806842923164368  0.8549745678901672  0.14706483483314514  1.0000
  Mg  Mg2       1.0  0.682233452796936  0.28809309005737305  0.014391514472663403  1.0000
  Mg  Mg3       1.0  0.679894208908081  0.8939130306243896  0.8709090948104858  1.0000
  Zn  Zn1       1.0  0.677315890789032  0.46124911308288574  0.7822247743606567  1.0000
  Zn  Zn2       1.0  0.1796947866678238  0.15259313583374023  0.9774317741394043  1.0000
  Zn  Zn3       1.0  0.680078387260437  0.30804938077926636  0.7752412557601929  1.0000
  Zn  Zn4       1.0  0.1797112077474594  0.8606967926025391  0.8369753956794739  1.0000
  Zr  Zr1       1.0  0.1936870515346527  0.7660964131355286  0.35613319277763367  1.0000
  Zr  Zr2       1.0  0.689814567565918  0.8864244818687439  0.1218743845820427  1.0000
