data_image0
_chemical_formula_structural       ClH2O8SSr4
_chemical_formula_sum              "Cl1 H2 O8 S1 Sr4"
_cell_length_a       6.677911464535937
_cell_length_b       6.677386586354888
_cell_length_c       6.952451705932617
_cell_angle_alpha    56.76874018831542
_cell_angle_beta     60.05926627178718
_cell_angle_gamma    59.57309917520251

_space_group_name_H-M_alt    "P 1"
_space_group_IT_number       1

loop_
  _space_group_symop_operation_xyz
  'x, y, z'

loop_
  _atom_site_type_symbol
  _atom_site_label
  _atom_site_symmetry_multiplicity
  _atom_site_fract_x
  _atom_site_fract_y
  _atom_site_fract_z
  _atom_site_occupancy
  Cl  Cl1       1.0  0.9893167018890381  0.3548038601875305  0.7179423570632933  1.0000
  H   H1        1.0  0.4795580208301544  0.06473663449287415  0.7412781715393065  1.0000
  H   H2        1.0  0.05245504900813103  0.28008416295051575  0.6810418963432312  1.0000
  O   O1        1.0  0.014939630404114761  0.9969640970230101  0.8428351879119872  1.0000
  O   O2        1.0  0.9487794041633606  0.8695650100708008  0.7215362787246703  1.0000
  O   O3        1.0  0.6679387092590332  0.005176916718482971  0.19114848971366874  1.0000
  O   O4        1.0  0.6083635687828064  0.5482677817344666  0.1732354313135147  1.0000
  O   O5        1.0  0.44635483622550964  0.3794077932834625  0.6636157035827637  1.0000
  O   O6        1.0  0.6179164052009583  0.4951615929603576  0.05806243047118186  1.0000
  O   O7        1.0  0.3911709487438202  0.23123909533023831  0.7878530621528624  1.0000
  O   O8        1.0  0.12722402811050418  0.48299324512481684  0.006355400662869214  1.0000
  S   S1        1.0  0.20065531134605408  0.1966659426689148  0.13252870738506317  1.0000
  Sr  Sr1       1.0  0.5314394235610962  0.5267937779426575  0.8993156552314757  1.0000
  Sr  Sr2       1.0  0.5418729782104492  0.9933784008026122  0.42549762129783625  1.0000
  Sr  Sr3       1.0  0.995379626750946  0.8055009245872498  0.6959702968597412  1.0000
  Sr  Sr4       1.0  0.038746073842048645  0.5328487753868103  0.264628529548645  1.0000
