data_image0
_chemical_formula_structural       Cu2H3O5Sr6
_chemical_formula_sum              "Cu2 H3 O5 Sr6"
_cell_length_a       5.75485510253406
_cell_length_b       6.565767535804133
_cell_length_c       6.652382850646973
_cell_angle_alpha    67.53677442763382
_cell_angle_beta     60.85661610696321
_cell_angle_gamma    67.97858802956488

_space_group_name_H-M_alt    "P 1"
_space_group_IT_number       1

loop_
  _space_group_symop_operation_xyz
  'x, y, z'

loop_
  _atom_site_type_symbol
  _atom_site_label
  _atom_site_symmetry_multiplicity
  _atom_site_fract_x
  _atom_site_fract_y
  _atom_site_fract_z
  _atom_site_occupancy
  Cu  Cu1       1.0  0.5279417634010315  0.24011555314064026  0.8214542865753173  1.0000
  Cu  Cu2       1.0  0.24079667031764984  0.9095326066017151  0.5264405012130737  1.0000
  H   H1        1.0  0.6091583967208862  0.32665780186653137  0.10825994610786437  1.0000
  H   H2        1.0  0.5889119505882263  0.6730173826217651  0.5054197907447814  1.0000
  H   H3        1.0  0.0789022445678711  0.25226831436157227  0.9572146534919738  1.0000
  O   O1        1.0  0.010407622903585434  0.35483428835868835  0.9969063401222228  1.0000
  O   O2        1.0  0.5980590581893921  0.6158619523048401  0.6253937482833862  1.0000
  O   O3        1.0  0.5312836766242981  0.8412510752677917  0.39011451601982117  1.0000
  O   O4        1.0  0.04371839761734009  0.17772908508777618  0.8307942748069762  1.0000
  O   O5        1.0  0.588089644908905  0.3864719271659851  0.24865198135375974  1.0000
  Sr  Sr1       1.0  0.3107633590698242  0.4970438778400421  0.46363398432731623  1.0000
  Sr  Sr2       1.0  0.8046815395355225  0.5128418207168579  0.6335363984107971  1.0000
  Sr  Sr3       1.0  0.3181382119655609  0.10774820297956467  0.05988545715808868  1.0000
  Sr  Sr4       1.0  0.8381592035293579  0.7479549646377563  0.14791549742221832  1.0000
  Sr  Sr5       1.0  0.30646148324012756  0.924373984336853  0.0381503663957119  1.0000
  Sr  Sr6       1.0  0.7941940426826477  0.09036117792129517  0.026594070717692306  1.0000
