data_image0
_chemical_formula_structural       Cu3H4O6SSbSr
_chemical_formula_sum              "Cu3 H4 O6 S1 Sb1 Sr1"
_cell_length_a       6.126002808903379
_cell_length_b       6.781536436179389
_cell_length_c       7.189277648925781
_cell_angle_alpha    74.80766410515088
_cell_angle_beta     66.76447916568073
_cell_angle_gamma    65.6878363907325

_space_group_name_H-M_alt    "P 1"
_space_group_IT_number       1

loop_
  _space_group_symop_operation_xyz
  'x, y, z'

loop_
  _atom_site_type_symbol
  _atom_site_label
  _atom_site_symmetry_multiplicity
  _atom_site_fract_x
  _atom_site_fract_y
  _atom_site_fract_z
  _atom_site_occupancy
  Cu  Cu1       1.0  0.3957851231098175  0.9425042271614075  0.007790275849401951  1.0000
  Cu  Cu2       1.0  0.7234616279602051  0.2658070921897888  0.2715316414833069  1.0000
  Cu  Cu3       1.0  0.8737698793411255  0.9441739320755005  0.9862518906593323  1.0000
  H   H1        1.0  0.5671303272247314  0.5379137992858887  0.653083860874176  1.0000
  H   H2        1.0  0.05661284178495407  0.2867545187473297  0.627102792263031  1.0000
  H   H3        1.0  0.833748459815979  0.5003935098648071  0.3250279426574707  1.0000
  H   H4        1.0  0.35162293910980225  0.9096057415008545  0.5787736773490906  1.0000
  O   O1        1.0  0.16358263790607452  0.38383111357688904  0.9050453901290894  1.0000
  O   O2        1.0  0.6590058207511902  0.5632781386375427  0.41328734159469604  1.0000
  O   O3        1.0  0.2535894811153412  0.18054986000061035  0.5566789507865906  1.0000
  O   O4        1.0  0.46195417642593384  0.8789509534835815  0.4864813983440399  1.0000
  O   O5        1.0  0.15421244502067566  0.20145204663276672  0.8679174780845642  1.0000
  O   O6        1.0  0.5670254230499268  0.8046242594718933  0.1551046520471573  1.0000
  S   S1        1.0  0.5588112473487854  0.5311117768287659  0.13926580548286438  1.0000
  Sb  Sb1       1.0  0.7795949578285217  0.01331884041428566  0.08724718540906906  1.0000
  Sr  Sr1       1.0  0.057520925998687744  0.6874793767929077  0.32652008533477783  1.0000
