data_image0
_chemical_formula_structural       Cu3H5O5Sr3
_chemical_formula_sum              "Cu3 H5 O5 Sr3"
_cell_length_a       5.4074758789477
_cell_length_b       5.887513368589061
_cell_length_c       6.536024570465088
_cell_angle_alpha    91.4712231542676
_cell_angle_beta     89.05548010189749
_cell_angle_gamma    110.02937504004893

_space_group_name_H-M_alt    "P 1"
_space_group_IT_number       1

loop_
  _space_group_symop_operation_xyz
  'x, y, z'

loop_
  _atom_site_type_symbol
  _atom_site_label
  _atom_site_symmetry_multiplicity
  _atom_site_fract_x
  _atom_site_fract_y
  _atom_site_fract_z
  _atom_site_occupancy
  Cu  Cu1       1.0  0.8441956043243408  0.27582061290740967  0.13623066246509552  1.0000
  Cu  Cu2       1.0  0.45310765504837036  0.12557965517044067  0.8296432495117189  1.0000
  Cu  Cu3       1.0  0.3417958915233612  0.7525087594985962  0.2554831802845001  1.0000
  H   H1        1.0  0.5555390119552612  0.23291711509227753  0.41646778583526617  1.0000
  H   H2        1.0  0.4375430643558502  0.4524965286254883  0.3364979028701782  1.0000
  H   H3        1.0  0.8632044196128845  0.826227605342865  0.0448637381196022  1.0000
  H   H4        1.0  0.2981424927711487  0.8995007276535034  0.9989807605743409  1.0000
  H   H5        1.0  0.4766572415828705  0.6262809038162231  0.8290292024612428  1.0000
  O   O1        1.0  0.49820998311042786  0.4159579575061798  0.5616087317466736  1.0000
  O   O2        1.0  0.11884129047393799  0.28508374094963074  0.44106155633926397  1.0000
  O   O3        1.0  0.140936478972435  0.28611281514167786  0.8889783620834352  1.0000
  O   O4        1.0  0.5710035562515259  0.9121131896972656  0.09732154756784439  1.0000
  O   O5        1.0  0.9307034015655518  0.5909070372581482  0.03170779347419739  1.0000
  Sr  Sr1       1.0  0.8246021270751953  0.11308491230010986  0.9337396025657655  1.0000
  Sr  Sr2       1.0  0.8069683313369751  0.2305898368358612  0.12488432973623277  1.0000
  Sr  Sr3       1.0  0.8353514671325684  0.8978337645530701  0.6008799076080322  1.0000
