data_image0
_chemical_formula_structural       Cu5H6O3Sr2
_chemical_formula_sum              "Cu5 H6 O3 Sr2"
_cell_length_a       4.893712890966524
_cell_length_b       7.038608484177078
_cell_length_c       7.634653091430664
_cell_angle_alpha    107.56279195063304
_cell_angle_beta     89.97770873959712
_cell_angle_gamma    89.72563482122249

_space_group_name_H-M_alt    "P 1"
_space_group_IT_number       1

loop_
  _space_group_symop_operation_xyz
  'x, y, z'

loop_
  _atom_site_type_symbol
  _atom_site_label
  _atom_site_symmetry_multiplicity
  _atom_site_fract_x
  _atom_site_fract_y
  _atom_site_fract_z
  _atom_site_occupancy
  Cu  Cu1       1.0  0.09735327959060669  0.3514282703399658  0.44976094365119934  1.0000
  Cu  Cu2       1.0  0.8555616736412048  0.9163049459457397  0.42157891392707825  1.0000
  Cu  Cu3       1.0  0.6000644564628601  0.3696002960205078  0.9300278425216675  1.0000
  Cu  Cu4       1.0  0.6029057502746582  0.5988013744354248  0.030585844069719315  1.0000
  Cu  Cu5       1.0  0.6058167815208435  0.043871812522411346  0.3067811131477356  1.0000
  H   H1        1.0  0.12341083586215973  0.1548256278038025  0.8196581602096558  1.0000
  H   H2        1.0  0.41215837001800537  0.7683987617492676  0.5868743062019348  1.0000
  H   H3        1.0  0.10437082499265671  0.9987924098968506  0.5960475206375122  1.0000
  H   H4        1.0  0.11564454436302185  0.6153615117073059  0.7555773854255676  1.0000
  H   H5        1.0  0.5893659591674805  0.5993846654891968  0.5105124711990356  1.0000
  H   H6        1.0  0.6139939427375793  0.7530999779701233  0.8882582783699036  1.0000
  O   O1        1.0  0.5694214105606079  0.9331889748573303  0.9867881536483765  1.0000
  O   O2        1.0  0.5967709422111511  0.40403610467910767  0.18426918983459473  1.0000
  O   O3        1.0  0.9095536470413208  0.2751244604587555  0.7536816000938416  1.0000
  Sr  Sr1       1.0  0.11611606925725937  0.7676163911819458  0.6413270235061646  1.0000
  Sr  Sr2       1.0  0.10523269325494766  0.8852027654647827  0.03005263954401013  1.0000
