data_image0
_chemical_formula_structural       Cu4H4O6Sr2
_chemical_formula_sum              "Cu4 H4 O6 Sr2"
_cell_length_a       6.309786482526413
_cell_length_b       6.164508427869805
_cell_length_c       6.671601295471191
_cell_angle_alpha    62.290184434477005
_cell_angle_beta     61.8523036647935
_cell_angle_gamma    60.5373699421218

_space_group_name_H-M_alt    "P 1"
_space_group_IT_number       1

loop_
  _space_group_symop_operation_xyz
  'x, y, z'

loop_
  _atom_site_type_symbol
  _atom_site_label
  _atom_site_symmetry_multiplicity
  _atom_site_fract_x
  _atom_site_fract_y
  _atom_site_fract_z
  _atom_site_occupancy
  Cu  Cu1       1.0  0.6411097049713135  0.0830547958612442  0.6806353926658629  1.0000
  Cu  Cu2       1.0  0.9658349752426147  0.3452043831348419  0.4417195916175842  1.0000
  Cu  Cu3       1.0  0.9703856110572815  0.2051050066947937  0.5029425024986267  1.0000
  Cu  Cu4       1.0  0.6641582250595093  0.6235718131065369  0.9444379210472106  1.0000
  H   H1        1.0  0.36006826162338257  0.21599040925502777  0.4043848514556884  1.0000
  H   H2        1.0  0.7070445418357849  0.3529168367385864  0.8710588812828063  1.0000
  H   H3        1.0  0.7022989988327026  0.9949615001678467  0.6010967493057251  1.0000
  H   H4        1.0  0.6981233954429626  0.8560976386070251  0.8865591883659362  1.0000
  O   O1        1.0  0.907454788684845  0.5255877375602722  0.7374418973922728  1.0000
  O   O2        1.0  0.3846070170402527  0.9525445103645325  0.9895740747451781  1.0000
  O   O3        1.0  0.7924791574478149  0.11712619662284851  0.03926886618137359  1.0000
  O   O4        1.0  0.03176460042595863  0.028768546879291534  0.32951548695564264  1.0000
  O   O5        1.0  0.3770672082901001  0.45581507682800293  0.8814054131507872  1.0000
  O   O6        1.0  0.537878155708313  0.6292138695716858  0.686546504497528  1.0000
  Sr  Sr1       1.0  0.5265367031097412  0.11207561194896698  0.2778679430484772  1.0000
  Sr  Sr2       1.0  0.049547504633665085  0.6632482409477234  0.23594506084918973  1.0000
