data_image0
_chemical_formula_structural       DyISbSc3Tl2Zn
_chemical_formula_sum              "Dy1 I1 Sb1 Sc3 Tl2 Zn1"
_cell_length_a       5.0407181318890855
_cell_length_b       6.047086069606722
_cell_length_c       7.017974853515625
_cell_angle_alpha    117.69147021707349
_cell_angle_beta     90.45485457886734
_cell_angle_gamma    89.76513045446329

_space_group_name_H-M_alt    "P 1"
_space_group_IT_number       1

loop_
  _space_group_symop_operation_xyz
  'x, y, z'

loop_
  _atom_site_type_symbol
  _atom_site_label
  _atom_site_symmetry_multiplicity
  _atom_site_fract_x
  _atom_site_fract_y
  _atom_site_fract_z
  _atom_site_occupancy
  Dy  Dy1       1.0  0.021342569962143898  0.3048011064529419  0.17805041372776031  1.0000
  I   I1        1.0  0.5098077058792114  0.15168030560016632  0.22099317610263827  1.0000
  Sb  Sb1       1.0  0.5190683603286743  0.7828563451766968  0.6929463148117065  1.0000
  Sc  Sc1       1.0  0.518637478351593  0.3254472017288208  0.19658438861370087  1.0000
  Sc  Sc2       1.0  0.021512407809495926  0.8567612767219543  0.49656021595001215  1.0000
  Sc  Sc3       1.0  0.27338480949401855  0.4321032166481018  0.5630232095718384  1.0000
  Tl  Tl1       1.0  0.7741106152534485  0.04872354120016098  0.5691975951194763  1.0000
  Tl  Tl2       1.0  0.019603872671723366  0.7802632451057434  0.9747379422187806  1.0000
  Zn  Zn1       1.0  0.5130468010902405  0.035204820334911346  0.3133147060871124  1.0000
