data_image0
_chemical_formula_structural       Tl9
_chemical_formula_sum              "Tl9"
_cell_length_a       4.966900286162765
_cell_length_b       5.295541502221906
_cell_length_c       6.391395092010498
_cell_angle_alpha    131.04837959339173
_cell_angle_beta     99.54581417749267
_cell_angle_gamma    86.92343259498915

_space_group_name_H-M_alt    "P 1"
_space_group_IT_number       1

loop_
  _space_group_symop_operation_xyz
  'x, y, z'

loop_
  _atom_site_type_symbol
  _atom_site_label
  _atom_site_symmetry_multiplicity
  _atom_site_fract_x
  _atom_site_fract_y
  _atom_site_fract_z
  _atom_site_occupancy
  Tl  Tl1       1.0  0.6631672382354736  0.5767693519592285  0.24258436262607574  1.0000
  Tl  Tl2       1.0  0.10291822254657745  0.851214110851288  0.953794538974762  1.0000
  Tl  Tl3       1.0  0.7125090956687927  0.3422758877277375  0.8387019038200378  1.0000
  Tl  Tl4       1.0  0.7101248502731323  0.6946451067924501  0.06941315531730659  1.0000
  Tl  Tl5       1.0  0.16414985060691833  0.4537551701068879  0.38966330885887146  1.0000
  Tl  Tl6       1.0  0.6495298147201538  0.5694345235824585  0.9077879786491394  1.0000
  Tl  Tl7       1.0  0.6922186017036438  0.2960844337940216  0.825634241104126  1.0000
  Tl  Tl8       1.0  0.07915867120027544  0.8909513950347902  0.9277788996696472  1.0000
  Tl  Tl9       1.0  0.19459480047225952  0.8693300485610963  0.7094601988792419  1.0000
