data_image0
_chemical_formula_structural       DyGeI2LiSbTiTl2
_chemical_formula_sum              "Dy1 Ge1 I2 Li1 Sb1 Ti1 Tl2"
_cell_length_a       5.907442850927927
_cell_length_b       5.951145600138907
_cell_length_c       6.2509636878967285
_cell_angle_alpha    110.69272186093049
_cell_angle_beta     108.90263523022901
_cell_angle_gamma    95.82725153690988

_space_group_name_H-M_alt    "P 1"
_space_group_IT_number       1

loop_
  _space_group_symop_operation_xyz
  'x, y, z'

loop_
  _atom_site_type_symbol
  _atom_site_label
  _atom_site_symmetry_multiplicity
  _atom_site_fract_x
  _atom_site_fract_y
  _atom_site_fract_z
  _atom_site_occupancy
  Dy  Dy1       1.0  0.8857133388519286  0.10018174350261688  0.9207090139389038  1.0000
  Ge  Ge1       1.0  0.2401866018772125  0.6674301028251648  0.6515303254127502  1.0000
  I   I1        1.0  0.9651277065277098  0.3820064961910248  0.4146508574485779  1.0000
  I   I2        1.0  0.4019481241703033  0.9763438701629639  0.21829159557819366  1.0000
  Li  Li1       1.0  0.26264357566833496  0.9826558828353882  0.1364791840314865  1.0000
  Sb  Sb1       1.0  0.74561870098114  0.9969151616096497  0.3951353430747986  1.0000
  Ti  Ti1       1.0  0.7311779856681824  0.14256732165813446  0.004725358448922634  1.0000
  Tl  Tl1       1.0  0.8323662877082824  0.35815396904945374  0.8704513907432556  1.0000
  Tl  Tl2       1.0  0.2501731812953949  0.30369120836257935  0.10047340393066406  1.0000
