data_image0
_chemical_formula_structural       DyILiLuSb2ScSeTl
_chemical_formula_sum              "Dy1 I1 Li1 Lu1 Sb2 Sc1 Se1 Tl1"
_cell_length_a       6.033284705213571
_cell_length_b       6.360630057997071
_cell_length_c       6.7968034744262695
_cell_angle_alpha    119.34059663688058
_cell_angle_beta     104.13798630451318
_cell_angle_gamma    91.00585101892467

_space_group_name_H-M_alt    "P 1"
_space_group_IT_number       1

loop_
  _space_group_symop_operation_xyz
  'x, y, z'

loop_
  _atom_site_type_symbol
  _atom_site_label
  _atom_site_symmetry_multiplicity
  _atom_site_fract_x
  _atom_site_fract_y
  _atom_site_fract_z
  _atom_site_occupancy
  Dy  Dy1       1.0  0.2541777789592743  0.2999194264411926  0.34058207273483276  1.0000
  I   I1        1.0  0.21582268178462982  0.33684074878692627  0.558021068572998  1.0000
  Li  Li1       1.0  0.760836124420166  0.4086690843105316  0.6429284811019897  1.0000
  Lu  Lu1       1.0  0.7683682441711426  0.18288102746009827  0.8739593029022217  1.0000
  Sb  Sb1       1.0  0.23031802475452423  0.338641881942749  0.8321061134338379  1.0000
  Sb  Sb2       1.0  0.7567633986473083  0.849256694316864  0.18197759985923775  1.0000
  Sc  Sc1       1.0  0.6308150887489319  0.7331731915473938  0.676347553730011  1.0000
  Se  Se1       1.0  0.3118199110031128  0.16637331247329712  0.4451710879802704  1.0000
  Tl  Tl1       1.0  0.7518370747566223  0.30603569746017456  0.6516273021697998  1.0000
