data_image0
_chemical_formula_structural       LiTl8
_chemical_formula_sum              "Li1 Tl8"
_cell_length_a       4.649068191344884
_cell_length_b       6.767084040011311
_cell_length_c       7.161038398742676
_cell_angle_alpha    126.54648464993153
_cell_angle_beta     90.90702373171064
_cell_angle_gamma    90.91136069971706

_space_group_name_H-M_alt    "P 1"
_space_group_IT_number       1

loop_
  _space_group_symop_operation_xyz
  'x, y, z'

loop_
  _atom_site_type_symbol
  _atom_site_label
  _atom_site_symmetry_multiplicity
  _atom_site_fract_x
  _atom_site_fract_y
  _atom_site_fract_z
  _atom_site_occupancy
  Li  Li1       1.0  0.8245190978050232  0.16325657069683075  0.12790617346763608  1.0000
  Tl  Tl1       1.0  0.8345341086387634  0.13024553656578064  0.40639129281044006  1.0000
  Tl  Tl2       1.0  0.31752750277519226  0.9303776621818542  0.6398172974586487  1.0000
  Tl  Tl3       1.0  0.32621219754219055  0.5240229368209839  0.1700607687234878  1.0000
  Tl  Tl4       1.0  0.055513646453619  0.9330688714981079  0.2897768020629882  1.0000
  Tl  Tl5       1.0  0.31835150718688965  0.17555439472198486  0.008488133549690231  1.0000
  Tl  Tl6       1.0  0.8332152366638184  0.8887609243392944  0.5729687809944153  1.0000
  Tl  Tl7       1.0  0.8346416354179382  0.4069039225578308  0.35069432854652405  1.0000
  Tl  Tl8       1.0  0.361992210149765  0.2791483402252197  0.058091327548027004  1.0000
