data_image0
_chemical_formula_structural       CuNb2O5Sb
_chemical_formula_sum              "Cu1 Nb2 O5 Sb1"
_cell_length_a       5.857884725702167
_cell_length_b       5.726511273994312
_cell_length_c       6.4636406898498535
_cell_angle_alpha    65.86227410276679
_cell_angle_beta     64.778342654682
_cell_angle_gamma    62.630245711864596

_space_group_name_H-M_alt    "P 1"
_space_group_IT_number       1

loop_
  _space_group_symop_operation_xyz
  'x, y, z'

loop_
  _atom_site_type_symbol
  _atom_site_label
  _atom_site_symmetry_multiplicity
  _atom_site_fract_x
  _atom_site_fract_y
  _atom_site_fract_z
  _atom_site_occupancy
  Cu  Cu1       1.0  0.6015363931655884  0.7067786455154419  0.504814088344574  1.0000
  Nb  Nb1       1.0  0.3827720582485199  0.21576784551143646  0.7243563532829286  1.0000
  Nb  Nb2       1.0  0.5807380080223083  0.7084468007087708  0.9522492289543153  1.0000
  O   O1        1.0  0.31401878595352173  0.6722511053085327  0.06108679249882699  1.0000
  O   O2        1.0  0.37439754605293274  0.2378050982952118  0.7190021872520448  1.0000
  O   O3        1.0  0.7666550874710083  0.5012874603271484  0.45666697621345526  1.0000
  O   O4        1.0  0.7565425038337708  0.840725839138031  0.5656482577323914  1.0000
  O   O5        1.0  0.9338541626930237  0.2851177752017975  0.8539000749588014  1.0000
  Sb  Sb1       1.0  0.7277928590774536  0.9539819359779358  0.21159698069095614  1.0000
