data_image0
_chemical_formula_structural       Nb3O5Zr
_chemical_formula_sum              "Nb3 O5 Zr1"
_cell_length_a       5.262066961627597
_cell_length_b       5.122618602872782
_cell_length_c       5.716875076293945
_cell_angle_alpha    66.42121306388513
_cell_angle_beta     63.58645106540168
_cell_angle_gamma    59.6416941760797

_space_group_name_H-M_alt    "P 1"
_space_group_IT_number       1

loop_
  _space_group_symop_operation_xyz
  'x, y, z'

loop_
  _atom_site_type_symbol
  _atom_site_label
  _atom_site_symmetry_multiplicity
  _atom_site_fract_x
  _atom_site_fract_y
  _atom_site_fract_z
  _atom_site_occupancy
  Nb  Nb1       1.0  0.43170690536499023  0.11224056780338287  0.5845223069190979  1.0000
  Nb  Nb2       1.0  0.3484243154525757  0.8607593774795532  0.09769068658351898  1.0000
  Nb  Nb3       1.0  0.7243167161941528  0.85798180103302  0.4348117709159851  1.0000
  O   O1        1.0  0.5521793365478516  0.9308583736419678  0.9456498622894287  1.0000
  O   O2        1.0  0.778191328048706  0.05604026839137077  0.4787904620170593  1.0000
  O   O3        1.0  0.568760335445404  0.5301754474639893  0.7531562447547913  1.0000
  O   O4        1.0  0.55084627866745  0.44344863295555115  0.7199293971061707  1.0000
  O   O5        1.0  0.17792321741580963  0.3310440182685852  0.9539154767990112  1.0000
  Zr  Zr1       1.0  0.945280909538269  0.3629530370235443  0.43441516160964966  1.0000
