data_image0
_chemical_formula_structural       Cu2KNb2O4
_chemical_formula_sum              "Cu2 K1 Nb2 O4"
_cell_length_a       4.42995101115202
_cell_length_b       4.283636523894109
_cell_length_c       6.8045573234558105
_cell_angle_alpha    107.38050050918879
_cell_angle_beta     96.9106847934962
_cell_angle_gamma    91.95946874230404

_space_group_name_H-M_alt    "P 1"
_space_group_IT_number       1

loop_
  _space_group_symop_operation_xyz
  'x, y, z'

loop_
  _atom_site_type_symbol
  _atom_site_label
  _atom_site_symmetry_multiplicity
  _atom_site_fract_x
  _atom_site_fract_y
  _atom_site_fract_z
  _atom_site_occupancy
  Cu  Cu1       1.0  0.24104014039039612  0.7556724548339844  0.5248002409934998  1.0000
  Cu  Cu2       1.0  0.4373386800289154  0.9225232005119324  0.8190652132034302  1.0000
  K   K1        1.0  0.19946973025798798  0.4205276370048523  0.21466773748397827  1.0000
  Nb  Nb1       1.0  0.7369480729103088  0.5359146595001221  0.9485164880752563  1.0000
  Nb  Nb2       1.0  0.24369852244853973  0.7553513050079346  0.0032922949176281526  1.0000
  O   O1        1.0  0.38615334033966064  0.6730348467826843  0.780850350856781  1.0000
  O   O2        1.0  0.9093704223632812  0.9320130348205566  0.8259866833686829  1.0000
  O   O3        1.0  0.7269216775894165  0.26488712430000305  0.21261557936668396  1.0000
  O   O4        1.0  0.7153466939926147  0.2549722194671631  0.19832144677639008  1.0000
