data_image0
_chemical_formula_structural       CuNb3O4Sm
_chemical_formula_sum              "Cu1 Nb3 O4 Sm1"
_cell_length_a       5.672746328913655
_cell_length_b       5.793061566026424
_cell_length_c       5.626732349395752
_cell_angle_alpha    62.7299640540584
_cell_angle_beta     60.03055218665083
_cell_angle_gamma    60.58030674019742

_space_group_name_H-M_alt    "P 1"
_space_group_IT_number       1

loop_
  _space_group_symop_operation_xyz
  'x, y, z'

loop_
  _atom_site_type_symbol
  _atom_site_label
  _atom_site_symmetry_multiplicity
  _atom_site_fract_x
  _atom_site_fract_y
  _atom_site_fract_z
  _atom_site_occupancy
  Cu  Cu1       1.0  0.48542481660842896  0.4121548533439636  0.9344177842140198  1.0000
  Nb  Nb1       1.0  0.46393775939941406  0.0962085947394371  0.9347877502441406  1.0000
  Nb  Nb2       1.0  0.8743855357170105  0.3004649579524994  0.4331521689891815  1.0000
  Nb  Nb3       1.0  0.8689287304878235  0.2681780755519867  0.3435114920139313  1.0000
  O   O1        1.0  0.5609531402587891  0.09896060824394226  0.5871394276618958  1.0000
  O   O2        1.0  0.2809784412384033  0.48307493329048157  0.839259147644043  1.0000
  O   O3        1.0  0.022370006889104843  0.09455141425132751  0.1830093413591385  1.0000
  O   O4        1.0  0.5553603768348694  0.09688547253608704  0.8122009634971619  1.0000
  Sm  Sm1       1.0  0.16607707738876343  0.6583000421524048  0.5927355885505676  1.0000
