data_image0
_chemical_formula_structural       PSnZr9
_chemical_formula_sum              "P1 Sn1 Zr9"
_cell_length_a       6.181967486721635
_cell_length_b       4.301220943866414
_cell_length_c       5.8904128074646
_cell_angle_alpha    63.676574123887285
_cell_angle_beta     61.483760158776995
_cell_angle_gamma    57.018187277772526

_space_group_name_H-M_alt    "P 1"
_space_group_IT_number       1

loop_
  _space_group_symop_operation_xyz
  'x, y, z'

loop_
  _atom_site_type_symbol
  _atom_site_label
  _atom_site_symmetry_multiplicity
  _atom_site_fract_x
  _atom_site_fract_y
  _atom_site_fract_z
  _atom_site_occupancy
  P   P1        1.0  0.6469495892524719  0.04223828390240669  0.4816146790981291  1.0000
  Sn  Sn1       1.0  0.3136206865310669  0.07147274166345596  0.10087860375642776  1.0000
  Zr  Zr1       1.0  0.6279078125953674  0.5715023875236511  0.9583284258842468  1.0000
  Zr  Zr2       1.0  0.09528931230306625  0.3585861921310425  0.03856213390827179  1.0000
  Zr  Zr3       1.0  0.21712540090084076  0.4828546643257141  0.3065882921218872  1.0000
  Zr  Zr4       1.0  0.8190891742706299  0.38777437806129456  0.3164098560810088  1.0000
  Zr  Zr5       1.0  0.7243537306785583  0.46616479754447937  0.46748682856559753  1.0000
  Zr  Zr6       1.0  0.1231517642736435  0.044471848756074905  0.7795745134353635  1.0000
  Zr  Zr7       1.0  0.12708841264247894  0.0819801315665245  0.2570953071117401  1.0000
  Zr  Zr8       1.0  0.5259750485420227  0.628055989742279  0.5180088877677917  1.0000
  Zr  Zr9       1.0  0.6115948557853699  0.09484928846359253  0.6737180352210999  1.0000
