data_image0
_chemical_formula_structural       PTiZr9
_chemical_formula_sum              "P1 Ti1 Zr9"
_cell_length_a       5.856040927986525
_cell_length_b       7.412425105902462
_cell_length_c       7.969919681549072
_cell_angle_alpha    123.46522758880178
_cell_angle_beta     89.73948817294593
_cell_angle_gamma    89.2277757602858

_space_group_name_H-M_alt    "P 1"
_space_group_IT_number       1

loop_
  _space_group_symop_operation_xyz
  'x, y, z'

loop_
  _atom_site_type_symbol
  _atom_site_label
  _atom_site_symmetry_multiplicity
  _atom_site_fract_x
  _atom_site_fract_y
  _atom_site_fract_z
  _atom_site_occupancy
  P   P1        1.0  0.7006118893623352  0.11504174023866653  0.6862900257110596  1.0000
  Ti  Ti1       1.0  0.7068248987197876  0.7638415098190308  0.44936573505401617  1.0000
  Zr  Zr1       1.0  0.7084043025970459  0.8741570115089417  0.07423888891935349  1.0000
  Zr  Zr2       1.0  0.21603924036026  0.5400075912475586  0.21660698950290685  1.0000
  Zr  Zr3       1.0  0.7120422124862671  0.8568515181541443  0.8525651693344116  1.0000
  Zr  Zr4       1.0  0.21400199830532074  0.40288087725639343  0.22323970496654513  1.0000
  Zr  Zr5       1.0  0.7157599329948425  0.4915718138217926  0.8260224461555481  1.0000
  Zr  Zr6       1.0  0.21067973971366882  0.18761254847049713  0.2084408849477768  1.0000
  Zr  Zr7       1.0  0.7148227691650391  0.7158364057540894  0.8325702548027039  1.0000
  Zr  Zr8       1.0  0.2113839089870453  0.6253877282142639  0.7688336372375488  1.0000
  Zr  Zr9       1.0  0.20593604445457458  0.6100284457206726  0.2862716615200043  1.0000
