data_image0
_chemical_formula_structural       Sn5Zr6
_chemical_formula_sum              "Sn5 Zr6"
_cell_length_a       5.220947193382541
_cell_length_b       5.988727859904084
_cell_length_c       5.892775535583496
_cell_angle_alpha    127.56234367261702
_cell_angle_beta     87.65631769382455
_cell_angle_gamma    87.79552518073234

_space_group_name_H-M_alt    "P 1"
_space_group_IT_number       1

loop_
  _space_group_symop_operation_xyz
  'x, y, z'

loop_
  _atom_site_type_symbol
  _atom_site_label
  _atom_site_symmetry_multiplicity
  _atom_site_fract_x
  _atom_site_fract_y
  _atom_site_fract_z
  _atom_site_occupancy
  Sn  Sn1       1.0  0.24618613719940188  0.1890859305858612  0.48637479543685913  1.0000
  Sn  Sn2       1.0  0.7389703392982483  0.6904649138450623  0.6335503458976744  1.0000
  Sn  Sn3       1.0  0.7415190935134888  0.4691786766052246  0.9490573406219482  1.0000
  Sn  Sn4       1.0  0.7364396452903748  0.8769615292549133  0.20405453443527213  1.0000
  Sn  Sn5       1.0  0.7459020614624023  0.22223129868507385  0.48450061678886414  1.0000
  Zr  Zr1       1.0  0.2453754097223282  0.5112640857696533  0.34369686245918274  1.0000
  Zr  Zr2       1.0  0.2416634112596512  0.2843898832798004  0.5811384916305542  1.0000
  Zr  Zr3       1.0  0.2439686954021454  0.945254385471344  0.2084355652332305  1.0000
  Zr  Zr4       1.0  0.7464234828948975  0.1895914375782013  0.40978360176086426  1.0000
  Zr  Zr5       1.0  0.23952445387840274  0.7282731533050537  0.13109867274761192  1.0000
  Zr  Zr6       1.0  0.741448700428009  0.3022115230560303  0.6457793712615967  1.0000
