data_image0
_chemical_formula_structural       Sn3Zr8
_chemical_formula_sum              "Sn3 Zr8"
_cell_length_a       5.556896663089186
_cell_length_b       7.209549903770132
_cell_length_c       7.51694917678833
_cell_angle_alpha    126.91838009096956
_cell_angle_beta     90.04077328809913
_cell_angle_gamma    88.16990830075675

_space_group_name_H-M_alt    "P 1"
_space_group_IT_number       1

loop_
  _space_group_symop_operation_xyz
  'x, y, z'

loop_
  _atom_site_type_symbol
  _atom_site_label
  _atom_site_symmetry_multiplicity
  _atom_site_fract_x
  _atom_site_fract_y
  _atom_site_fract_z
  _atom_site_occupancy
  Sn  Sn1       1.0  0.5810734629631042  0.030934317037463185  0.2861461043357849  1.0000
  Sn  Sn2       1.0  0.5870441198348999  0.36659061908721924  0.5535877346992493  1.0000
  Sn  Sn3       1.0  0.5754196047782898  0.32504013180732727  0.761586606502533  1.0000
  Zr  Zr1       1.0  0.09601136296987534  0.25319698452949524  0.9184504747390747  1.0000
  Zr  Zr2       1.0  0.5901262760162354  0.9770396947860717  0.8706598281860352  1.0000
  Zr  Zr3       1.0  0.0895317792892456  0.5275887250900269  0.574723482131958  1.0000
  Zr  Zr4       1.0  0.09362244606018066  0.1264248490333557  0.9937465786933899  1.0000
  Zr  Zr5       1.0  0.5929329991340637  0.41710615158081055  0.22184224426746368  1.0000
  Zr  Zr6       1.0  0.08626598119735718  0.6203199028968811  0.2611772716045379  1.0000
  Zr  Zr7       1.0  0.0953880250453949  0.7881283760070801  0.9765585660934448  1.0000
  Zr  Zr8       1.0  0.5878271460533142  0.014401652850210665  0.11647026240825653  1.0000
