data_image0
_chemical_formula_structural       SnSrZr9
_chemical_formula_sum              "Sn1 Sr1 Zr9"
_cell_length_a       5.216294323458111
_cell_length_b       5.130757294270005
_cell_length_c       7.914890766143799
_cell_angle_alpha    117.17855017987414
_cell_angle_beta     89.93962678228473
_cell_angle_gamma    103.64823583824636

_space_group_name_H-M_alt    "P 1"
_space_group_IT_number       1

loop_
  _space_group_symop_operation_xyz
  'x, y, z'

loop_
  _atom_site_type_symbol
  _atom_site_label
  _atom_site_symmetry_multiplicity
  _atom_site_fract_x
  _atom_site_fract_y
  _atom_site_fract_z
  _atom_site_occupancy
  Sn  Sn1       1.0  0.5365513563156128  0.9010441303253174  0.05040039122104644  1.0000
  Sr  Sr1       1.0  0.8612642884254456  0.2149875909090042  0.7556283473968505  1.0000
  Zr  Zr1       1.0  0.08615715801715851  0.6038588881492615  0.22944769263267514  1.0000
  Zr  Zr2       1.0  0.08338453620672226  0.23223426938056946  0.7976846694946288  1.0000
  Zr  Zr3       1.0  0.35328587889671326  0.22044025361537933  0.25684386491775507  1.0000
  Zr  Zr4       1.0  0.8984953165054321  0.3024209141731262  0.21346209943294522  1.0000
  Zr  Zr5       1.0  0.5790504813194275  0.5887749791145325  0.405837595462799  1.0000
  Zr  Zr6       1.0  0.5824382901191711  0.12044616788625717  0.6040573120117186  1.0000
  Zr  Zr7       1.0  0.10324864834547043  0.6065042614936829  0.32584953308105463  1.0000
  Zr  Zr8       1.0  0.5769078135490417  0.44370535016059875  0.5780403017997741  1.0000
  Zr  Zr9       1.0  0.10396991670131683  0.9897685647010803  0.4039389491081237  1.0000
