data_image0
_chemical_formula_structural       OPtSnTiZr7
_chemical_formula_sum              "O1 Pt1 Sn1 Ti1 Zr7"
_cell_length_a       6.256573113266535
_cell_length_b       6.354063004978009
_cell_length_c       6.3096442222595215
_cell_angle_alpha    124.23411003814356
_cell_angle_beta     90.47548546768765
_cell_angle_gamma    88.08026696147978

_space_group_name_H-M_alt    "P 1"
_space_group_IT_number       1

loop_
  _space_group_symop_operation_xyz
  'x, y, z'

loop_
  _atom_site_type_symbol
  _atom_site_label
  _atom_site_symmetry_multiplicity
  _atom_site_fract_x
  _atom_site_fract_y
  _atom_site_fract_z
  _atom_site_occupancy
  O   O1        1.0  0.8060285449028014  0.2751588821411133  0.5027968883514404  1.0000
  Pt  Pt1       1.0  0.28201618790626526  0.9176010489463805  0.9246522188186646  1.0000
  Sn  Sn1       1.0  0.5695024132728577  0.14474953711032867  0.08943165838718414  1.0000
  Ti  Ti1       1.0  0.5712190270423889  0.39177167415618896  0.12623535096645355  1.0000
  Zr  Zr1       1.0  0.7875789403915404  0.09212558716535568  0.9242299795150757  1.0000
  Zr  Zr2       1.0  0.07528954744338989  0.3550015687942505  0.5681822896003723  1.0000
  Zr  Zr3       1.0  0.2953326404094696  0.0014892666367813945  0.4232211410999298  1.0000
  Zr  Zr4       1.0  0.7931110858917235  0.043638505041599274  0.18990449607372284  1.0000
  Zr  Zr5       1.0  0.28529107570648193  0.39499253034591675  0.2841981947422027  1.0000
  Zr  Zr6       1.0  0.2968209385871887  0.5982927083969116  0.6079224348068237  1.0000
  Zr  Zr7       1.0  0.7877508997917174  0.34602171182632446  0.2526962161064148  1.0000
