data_image0
_chemical_formula_structural       Fe4Zn2
_chemical_formula_sum              "Fe4 Zn2"
_cell_length_a       4.146053551371417
_cell_length_b       4.699271979311565
_cell_length_c       5.4842753410339355
_cell_angle_alpha    96.98075088200447
_cell_angle_beta     97.14503701813207
_cell_angle_gamma    118.21040848987145

_space_group_name_H-M_alt    "P 1"
_space_group_IT_number       1

loop_
  _space_group_symop_operation_xyz
  'x, y, z'

loop_
  _atom_site_type_symbol
  _atom_site_label
  _atom_site_symmetry_multiplicity
  _atom_site_fract_x
  _atom_site_fract_y
  _atom_site_fract_z
  _atom_site_occupancy
  Fe  Fe1       1.0  0.10574652999639511  0.5757425427436829  0.4808697402477265  1.0000
  Fe  Fe2       1.0  0.8752744197845459  0.07728713750839233  0.4097355306148529  1.0000
  Fe  Fe3       1.0  0.3630612790584564  0.26256081461906433  0.1488553136587143  1.0000
  Fe  Fe4       1.0  0.6223783493041992  0.5860099792480469  0.4847640991210938  1.0000
  Zn  Zn1       1.0  0.3909549117088318  0.5516945719718933  0.8086707592010498  1.0000
  Zn  Zn2       1.0  0.08691556006669998  0.9274186491966248  0.47293892502784735  1.0000
