data_image0
_chemical_formula_structural       PPtV2ZnZr
_chemical_formula_sum              "P1 Pt1 V2 Zn1 Zr1"
_cell_length_a       4.458943028412578
_cell_length_b       4.675466213568852
_cell_length_c       5.48203182220459
_cell_angle_alpha    77.813171794115
_cell_angle_beta     90.1897679778066
_cell_angle_gamma    83.65336624813168

_space_group_name_H-M_alt    "P 1"
_space_group_IT_number       1

loop_
  _space_group_symop_operation_xyz
  'x, y, z'

loop_
  _atom_site_type_symbol
  _atom_site_label
  _atom_site_symmetry_multiplicity
  _atom_site_fract_x
  _atom_site_fract_y
  _atom_site_fract_z
  _atom_site_occupancy
  P   P1        1.0  0.6365273594856262  0.4573235809803009  0.0759533494710922  1.0000
  Pt  Pt1       1.0  0.00732786487787962  0.13814769685268402  0.8556599617004395  1.0000
  V   V1        1.0  0.1572636365890503  0.1483359932899475  0.43676990270614624  1.0000
  V   V2        1.0  0.1418338567018509  0.8541734218597412  0.09675387293100354  1.0000
  Zn  Zn1       1.0  0.6565437316894531  0.43258342146873474  0.8777444362640381  1.0000
  Zr  Zr1       1.0  0.1690976619720459  0.8828069567680359  0.2857260406017304  1.0000
