data_image0
_chemical_formula_structural       AgV4Zr
_chemical_formula_sum              "Ag1 V4 Zr1"
_cell_length_a       3.529582488450925
_cell_length_b       5.151717142692646
_cell_length_c       5.518706798553467
_cell_angle_alpha    113.56882777915396
_cell_angle_beta     92.96327266223622
_cell_angle_gamma    91.6013935845711

_space_group_name_H-M_alt    "P 1"
_space_group_IT_number       1

loop_
  _space_group_symop_operation_xyz
  'x, y, z'

loop_
  _atom_site_type_symbol
  _atom_site_label
  _atom_site_symmetry_multiplicity
  _atom_site_fract_x
  _atom_site_fract_y
  _atom_site_fract_z
  _atom_site_occupancy
  Ag  Ag1       1.0  0.5582332611083984  0.46172428131103516  0.2758358120918274  1.0000
  V   V1        1.0  0.059541452676057816  0.6497041583061218  0.040951140224933624  1.0000
  V   V2        1.0  0.5542470812797546  0.413601279258728  0.0813176929950714  1.0000
  V   V3        1.0  0.5614252686500549  0.9425088167190552  0.004473571199923794  1.0000
  V   V4        1.0  0.060377705842256546  0.6762993335723877  0.21403008699417114  1.0000
  Zr  Zr1       1.0  0.06252773851156235  0.4184982478618622  0.5098385214805603  1.0000
