data_image0
_chemical_formula_structural       Al4FK3
_chemical_formula_sum              "Al4 F1 K3"
_cell_length_a       4.786021820736688
_cell_length_b       5.3399489232129485
_cell_length_c       8.169645309448242
_cell_angle_alpha    100.40529495854769
_cell_angle_beta     89.84185446102107
_cell_angle_gamma    114.67788321077309

_space_group_name_H-M_alt    "P 1"
_space_group_IT_number       1

loop_
  _space_group_symop_operation_xyz
  'x, y, z'

loop_
  _atom_site_type_symbol
  _atom_site_label
  _atom_site_symmetry_multiplicity
  _atom_site_fract_x
  _atom_site_fract_y
  _atom_site_fract_z
  _atom_site_occupancy
  Al  Al1       1.0  0.4569076299667359  0.5420183539390564  0.6651176810264587  1.0000
  Al  Al2       1.0  0.6045615077018738  0.40187278389930725  0.735241174697876  1.0000
  Al  Al3       1.0  0.24417512118816379  0.03213583678007126  0.39213892817497253  1.0000
  Al  Al4       1.0  0.9469497799873353  0.8995975255966187  0.8970391154289246  1.0000
  F   F1        1.0  0.2748149037361145  0.23879384994506836  0.6926958560943604  1.0000
  K   K1        1.0  0.7861826419830322  0.5461381673812866  0.4903225600719452  1.0000
  K   K2        1.0  0.5761809945106506  0.8875014185905457  0.1897413581609726  1.0000
  K   K3        1.0  0.9882085919380189  0.4007193446159363  0.1978834718465805  1.0000
