data_image0
_chemical_formula_structural       Ag2Al3K3
_chemical_formula_sum              "Ag2 Al3 K3"
_cell_length_a       4.744426071384393
_cell_length_b       5.0464847283042715
_cell_length_c       6.983920097351074
_cell_angle_alpha    83.70517181024836
_cell_angle_beta     72.11327955368748
_cell_angle_gamma    61.250783880891674

_space_group_name_H-M_alt    "P 1"
_space_group_IT_number       1

loop_
  _space_group_symop_operation_xyz
  'x, y, z'

loop_
  _atom_site_type_symbol
  _atom_site_label
  _atom_site_symmetry_multiplicity
  _atom_site_fract_x
  _atom_site_fract_y
  _atom_site_fract_z
  _atom_site_occupancy
  Ag  Ag1       1.0  0.959342896938324  0.3752176761627197  0.4832192361354828  1.0000
  Ag  Ag2       1.0  0.5718238949775696  0.5092344284057617  0.27088749408721924  1.0000
  Al  Al1       1.0  0.2472233921289444  0.04044868424534798  0.6985622644424438  1.0000
  Al  Al2       1.0  0.987976610660553  0.6468772292137146  0.21933943033218384  1.0000
  Al  Al3       1.0  0.4922855794429779  0.15589702129364014  0.964769184589386  1.0000
  K   K1        1.0  0.8185648918151855  0.7839421033859253  0.06403422355651855  1.0000
  K   K2        1.0  0.4272806644439697  0.48619046807289124  0.6713171601295471  1.0000
  K   K3        1.0  0.32173851132392883  0.2998274266719818  0.0500599704682827  1.0000
