data_image0
_chemical_formula_structural       Al5K2N
_chemical_formula_sum              "Al5 K2 N1"
_cell_length_a       4.551697621489854
_cell_length_b       5.243349356563992
_cell_length_c       7.067744255065918
_cell_angle_alpha    104.30857276017205
_cell_angle_beta     90.23570138559208
_cell_angle_gamma    109.53860869287323

_space_group_name_H-M_alt    "P 1"
_space_group_IT_number       1

loop_
  _space_group_symop_operation_xyz
  'x, y, z'

loop_
  _atom_site_type_symbol
  _atom_site_label
  _atom_site_symmetry_multiplicity
  _atom_site_fract_x
  _atom_site_fract_y
  _atom_site_fract_z
  _atom_site_occupancy
  Al  Al1       1.0  0.5132983326911926  0.8062273859977722  0.48676660656929016  1.0000
  Al  Al2       1.0  0.812157928943634  0.4551750421524048  0.8426576256752014  1.0000
  Al  Al3       1.0  0.8579376339912415  0.33431753516197205  0.20997892320156097  1.0000
  Al  Al4       1.0  0.7995961308479309  0.643734335899353  0.835014283657074  1.0000
  Al  Al5       1.0  0.02626541629433632  0.28897207975387573  0.32395511865615845  1.0000
  K   K1        1.0  0.46107417345046997  0.49118301272392273  0.36571204662323  1.0000
  K   K2        1.0  0.5355337858200073  0.8314020037651062  0.5913639664649963  1.0000
  N   N1        1.0  0.11778044700622559  0.8407463431358337  0.10421296209096909  1.0000
