data_image0
_chemical_formula_structural       Ga2Mg2PPtV
_chemical_formula_sum              "Ga2 Mg2 P1 Pt1 V1"
_cell_length_a       5.948557463578613
_cell_length_b       5.9052542861282245
_cell_length_c       6.388275146484375
_cell_angle_alpha    62.59315738753495
_cell_angle_beta     62.485202818279944
_cell_angle_gamma    60.70774658913932

_space_group_name_H-M_alt    "P 1"
_space_group_IT_number       1

loop_
  _space_group_symop_operation_xyz
  'x, y, z'

loop_
  _atom_site_type_symbol
  _atom_site_label
  _atom_site_symmetry_multiplicity
  _atom_site_fract_x
  _atom_site_fract_y
  _atom_site_fract_z
  _atom_site_occupancy
  Ga  Ga1       1.0  0.9017072916030883  0.5858312845230103  0.540476381778717  1.0000
  Ga  Ga2       1.0  0.38377419114112854  0.05733116343617439  0.13475635647773743  1.0000
  Mg  Mg1       1.0  0.8934094309806823  0.44569969177246094  0.7399769425392151  1.0000
  Mg  Mg2       1.0  0.39890795946121216  0.681529700756073  0.7203638553619385  1.0000
  P   P1        1.0  0.8650566935539244  0.6305190324783325  0.8608551025390625  1.0000
  Pt  Pt1       1.0  0.3882375955581665  0.497653603553772  0.5471090078353882  1.0000
  V   V1        1.0  0.3902836740016937  0.4744064211845398  0.2538810074329376  1.0000
