data_image0
_chemical_formula_structural       Ga3Mg2PtV
_chemical_formula_sum              "Ga3 Mg2 Pt1 V1"
_cell_length_a       5.0700137126144655
_cell_length_b       4.499500994133283
_cell_length_c       5.255892753601074
_cell_angle_alpha    111.66154133821139
_cell_angle_beta     107.85639061623208
_cell_angle_gamma    118.82893756596172

_space_group_name_H-M_alt    "P 1"
_space_group_IT_number       1

loop_
  _space_group_symop_operation_xyz
  'x, y, z'

loop_
  _atom_site_type_symbol
  _atom_site_label
  _atom_site_symmetry_multiplicity
  _atom_site_fract_x
  _atom_site_fract_y
  _atom_site_fract_z
  _atom_site_occupancy
  Ga  Ga1       1.0  0.7788880467414856  0.3302357494831085  0.40218836069107056  1.0000
  Ga  Ga2       1.0  0.695928692817688  0.4301471412181854  0.5343475937843323  1.0000
  Ga  Ga3       1.0  0.7149791121482849  0.40074899792671204  0.28924354910850525  1.0000
  Mg  Mg1       1.0  0.7687493562698364  0.6393641233444214  0.9990864396095276  1.0000
  Mg  Mg2       1.0  0.3205873072147368  0.9934092760086058  0.7333530187606812  1.0000
  Pt  Pt1       1.0  0.9392560720443726  0.9768640995025634  0.45131784677505493  1.0000
  V   V1        1.0  0.04607860743999481  0.35203102231025696  0.301398366689682  1.0000
