data_image0
_chemical_formula_structural       GaMg6
_chemical_formula_sum              "Ga1 Mg6"
_cell_length_a       5.616022160468019
_cell_length_b       3.98554553093398
_cell_length_c       4.3136186599731445
_cell_angle_alpha    125.51557467785675
_cell_angle_beta     118.09664661796076
_cell_angle_gamma    108.04828475192217

_space_group_name_H-M_alt    "P 1"
_space_group_IT_number       1

loop_
  _space_group_symop_operation_xyz
  'x, y, z'

loop_
  _atom_site_type_symbol
  _atom_site_label
  _atom_site_symmetry_multiplicity
  _atom_site_fract_x
  _atom_site_fract_y
  _atom_site_fract_z
  _atom_site_occupancy
  Ga  Ga1       1.0  0.3811838924884796  0.2806557416915893  0.556061565876007  1.0000
  Mg  Mg1       1.0  0.10701896250247968  0.49522188305854825  0.9367751479148866  1.0000
  Mg  Mg2       1.0  0.09833897650241852  0.4447248876094818  0.7659381628036499  1.0000
  Mg  Mg3       1.0  0.577385663986206  0.7427518963813781  0.09165895730257025  1.0000
  Mg  Mg4       1.0  0.12783069908618927  0.9066046476364136  0.6140434741973877  1.0000
  Mg  Mg5       1.0  0.07397029548883438  0.22550734877586365  0.2828579843044281  1.0000
  Mg  Mg6       1.0  0.8364172577857971  0.7692882418632507  0.205127716064453  1.0000
