data_image0
_chemical_formula_structural       CdDyGa2H10O3PbTh
_chemical_formula_sum              "Cd1 Dy1 Ga2 H10 O3 Pb1 Th1"
_cell_length_a       6.5695008326433895
_cell_length_b       6.611013508463715
_cell_length_c       6.560390472412109
_cell_angle_alpha    58.27054680151676
_cell_angle_beta     55.74346212695972
_cell_angle_gamma    57.36428955747137

_space_group_name_H-M_alt    "P 1"
_space_group_IT_number       1

loop_
  _space_group_symop_operation_xyz
  'x, y, z'

loop_
  _atom_site_type_symbol
  _atom_site_label
  _atom_site_symmetry_multiplicity
  _atom_site_fract_x
  _atom_site_fract_y
  _atom_site_fract_z
  _atom_site_occupancy
  Cd  Cd1       1.0  0.7706193923950195  0.7316908836364746  0.11532784253358841  1.0000
  Dy  Dy1       1.0  0.9590974450111389  0.8398385643959045  0.6358412504196167  1.0000
  Ga  Ga1       1.0  0.7718331217765808  0.00882213655859232  0.7429969906806946  1.0000
  Ga  Ga2       1.0  0.2043333649635315  0.4286705255508423  0.07348106801509857  1.0000
  H   H1        1.0  0.6612539887428284  0.06870845705270767  0.09042666107416153  1.0000
  H   H2        1.0  0.7255827188491821  0.4274272918701172  0.93201744556427  1.0000
  H   H3        1.0  0.1836968958377838  0.5683651566505432  0.7895269989967346  1.0000
  H   H4        1.0  0.27998659014701843  0.7155372500419617  0.7413305044174194  1.0000
  H   H5        1.0  0.7867951393127441  0.765537679195404  0.7723144292831421  1.0000
  H   H6        1.0  0.2894904315471649  0.8186972737312317  0.9641050696372986  1.0000
  H   H7        1.0  0.4556247889995575  0.8049073219299316  0.6001429557800293  1.0000
  H   H8        1.0  0.7115909457206726  0.5063280463218689  0.8762372136116028  1.0000
  H   H9        1.0  0.41840529441833496  0.5290133357048035  0.4668828248977661  1.0000
  H   H10       1.0  0.7809160351753235  0.3190302848815918  0.6813013553619385  1.0000
  O   O1        1.0  0.3058110475540161  0.2563939392566681  0.7986724376678467  1.0000
  O   O2        1.0  0.7588049173355103  0.13337929546833038  0.5433720350265503  1.0000
  O   O3        1.0  0.47478148341178894  0.5552584528923035  0.683812141418457  1.0000
  Pb  Pb1       1.0  0.2832161486148834  0.1816665232181549  0.15729010105133057  1.0000
  Th  Th1       1.0  0.13959436118602753  0.48498255014419556  0.26851749420166016  1.0000
