data_image0
_chemical_formula_structural       C2GaH5InO9Th
_chemical_formula_sum              "C2 Ga1 H5 In1 O9 Th1"
_cell_length_a       6.30682671098432
_cell_length_b       6.469460702367689
_cell_length_c       6.941504955291748
_cell_angle_alpha    65.9154949202828
_cell_angle_beta     68.67363810644005
_cell_angle_gamma    79.30629177768286

_space_group_name_H-M_alt    "P 1"
_space_group_IT_number       1

loop_
  _space_group_symop_operation_xyz
  'x, y, z'

loop_
  _atom_site_type_symbol
  _atom_site_label
  _atom_site_symmetry_multiplicity
  _atom_site_fract_x
  _atom_site_fract_y
  _atom_site_fract_z
  _atom_site_occupancy
  C   C1        1.0  0.24182328581809995  0.3155003488063812  0.8884305953979492  1.0000
  C   C2        1.0  0.01006256602704525  0.12260048836469649  0.6062772870063782  1.0000
  Ga  Ga1       1.0  0.3015972375869751  0.008473116904497147  0.6331537365913391  1.0000
  H   H1        1.0  0.4267939925193786  0.7236303687095641  0.7048941850662231  1.0000
  H   H2        1.0  0.7217992544174194  0.7150654196739196  0.48264932632446295  1.0000
  H   H3        1.0  0.0197918564081192  0.6214947700500488  0.45054516196250916  1.0000
  H   H4        1.0  0.7232332229614258  0.2344623953104019  0.6855161190032959  1.0000
  H   H5        1.0  0.8821024894714354  0.09581607580184935  0.857680082321167  1.0000
  In  In1       1.0  0.004880228545516729  0.6827507019042969  0.9267409443855286  1.0000
  O   O1        1.0  0.2644348442554474  0.22132442891597745  0.2771740257740021  1.0000
  O   O2        1.0  0.6708151698112488  0.3210487365722656  0.05472841858863837  1.0000
  O   O3        1.0  0.7348307967185973  0.1585964560508728  0.3311431109905243  1.0000
  O   O4        1.0  0.21202917397022245  0.6624621152877808  0.43659412860870367  1.0000
  O   O5        1.0  0.15790323913097382  0.31979361176490784  0.1707033067941666  1.0000
  O   O6        1.0  0.7165114283561707  0.509401261806488  0.8759911060333252  1.0000
  O   O7        1.0  0.25178247690200806  0.07424335926771164  0.4729063808917999  1.0000
  O   O8        1.0  0.5212118029594421  0.610749363899231  0.5865265130996704  1.0000
  O   O9        1.0  0.9416565299034118  0.39604932069778437  0.15185889601707458  1.0000
  Th  Th1       1.0  0.7039728760719299  0.2117045223712921  0.044415637850761414  1.0000
