data_image0
_chemical_formula_structural       AlH13O4S
_chemical_formula_sum              "Al1 H13 O4 S1"
_cell_length_a       6.766235633579135
_cell_length_b       6.994389139971647
_cell_length_c       6.9285454750061035
_cell_angle_alpha    68.72497665848013
_cell_angle_beta     59.40547855096414
_cell_angle_gamma    61.551903133227995

_space_group_name_H-M_alt    "P 1"
_space_group_IT_number       1

loop_
  _space_group_symop_operation_xyz
  'x, y, z'

loop_
  _atom_site_type_symbol
  _atom_site_label
  _atom_site_symmetry_multiplicity
  _atom_site_fract_x
  _atom_site_fract_y
  _atom_site_fract_z
  _atom_site_occupancy
  Al  Al1       1.0  0.496271550655365  0.4876160025596619  0.7386344075202942  1.0000
  H   H1        1.0  0.9989131689071655  0.8199130296707154  0.8562012314796448  1.0000
  H   H2        1.0  0.7399927973747253  0.9831297397613527  0.4412127733230591  1.0000
  H   H3        1.0  0.5423498749732971  0.289212167263031  0.3443956971168518  1.0000
  H   H4        1.0  0.41397762298583984  0.6782320737838745  0.009192891418933868  1.0000
  H   H5        1.0  0.4081267714500427  0.3229850232601166  0.9362403750419617  1.0000
  H   H6        1.0  0.24938784539699546  0.869772493839264  0.5966280698776245  1.0000
  H   H7        1.0  0.5410313606262207  0.04878249019384385  0.3612521290779114  1.0000
  H   H8        1.0  0.8821159601211548  0.10487318783998491  0.013008302077651024  1.0000
  H   H9        1.0  0.982441246509552  0.5877536535263062  0.23770025372505188  1.0000
  H   H10       1.0  0.24042811989784232  0.9481272697448732  0.47241154313087463  1.0000
  H   H11       1.0  0.0177759155631065  0.8246729969978334  0.7867381572723389  1.0000
  H   H12       1.0  0.9854881763458252  0.748005509376526  0.7773054838180542  1.0000
  H   H13       1.0  0.3560672104358673  0.4985639154911042  0.679212749004364  1.0000
  O   O1        1.0  0.5757252573966979  0.9181752204895021  0.3920578956604004  1.0000
  O   O2        1.0  0.008053958415985107  0.2852168679237366  0.837928295135498  1.0000
  O   O3        1.0  0.08072476834058762  0.08022218942642212  0.45452025532722473  1.0000
  O   O4        1.0  0.2603542208671569  0.47328594326972967  0.5057098865509033  1.0000
  S   S1        1.0  0.5085226893424988  0.7786027789115907  0.3712606430053711  1.0000
