data_image0
_chemical_formula_structural       AlCCdH11HgO2PbS
_chemical_formula_sum              "Al1 C1 Cd1 H11 Hg1 O2 Pb1 S1"
_cell_length_a       6.104305598905258
_cell_length_b       6.037366895624504
_cell_length_c       7.417742729187012
_cell_angle_alpha    90.38561310049539
_cell_angle_beta     88.89639106717337
_cell_angle_gamma    90.4873346647998

_space_group_name_H-M_alt    "P 1"
_space_group_IT_number       1

loop_
  _space_group_symop_operation_xyz
  'x, y, z'

loop_
  _atom_site_type_symbol
  _atom_site_label
  _atom_site_symmetry_multiplicity
  _atom_site_fract_x
  _atom_site_fract_y
  _atom_site_fract_z
  _atom_site_occupancy
  Al  Al1       1.0  0.5456146597862244  0.9900128841400145  0.7528327703475951  1.0000
  C   C1        1.0  0.45194777846336365  0.837684392929077  0.6212064623832703  1.0000
  Cd  Cd1       1.0  0.5318738222122191  0.42990621924400324  0.01097012497484684  1.0000
  H   H1        1.0  0.5607924461364746  0.6790602207183838  0.0007667418103665105  1.0000
  H   H2        1.0  0.9961553812026978  0.0832146629691124  0.3014070987701416  1.0000
  H   H3        1.0  0.8091781735420227  0.145003542304039  0.5125892758369446  1.0000
  H   H4        1.0  0.5441203117370605  0.7896685004234313  0.352943480014801  1.0000
  H   H5        1.0  0.0842510536313057  0.058788064867258065  0.4062407612800598  1.0000
  H   H6        1.0  0.31482815742492676  0.8681067824363707  0.5722189545631409  1.0000
  H   H7        1.0  0.013118215836584568  0.08246953040361404  0.33123594522476196  1.0000
  H   H8        1.0  0.3048502206802368  0.8878186345100402  0.267475962638855  1.0000
  H   H9        1.0  0.8220095038414001  0.3829322755336761  0.6927162408828735  1.0000
  H   H10       1.0  0.5355005860328674  0.15000127255916595  0.3500392436981201  1.0000
  H   H11       1.0  0.3440324068069458  0.2712181508541107  0.060430075973272324  1.0000
  Hg  Hg1       1.0  0.0280043575912714  0.12207668274641036  0.8581730127334595  1.0000
  O   O1        1.0  0.3196481168270111  0.8001446127891539  0.434949666261673  1.0000
  O   O2        1.0  0.31261879205703735  0.8403479456901549  0.9790814518928528  1.0000
  Pb  Pb1       1.0  0.7936960458755493  0.03698817268013954  0.7446847558021545  1.0000
  S   S1        1.0  0.9045675992965697  0.8411852717399596  0.6102936267852783  1.0000
