data_image0
_chemical_formula_structural       Cr2H4O6S6Si
_chemical_formula_sum              "Cr2 H4 O6 S6 Si1"
_cell_length_a       7.62084915219554
_cell_length_b       7.5486383181110215
_cell_length_c       7.906380653381348
_cell_angle_alpha    63.89186451505528
_cell_angle_beta     64.24523532136787
_cell_angle_gamma    62.23705672413982

_space_group_name_H-M_alt    "P 1"
_space_group_IT_number       1

loop_
  _space_group_symop_operation_xyz
  'x, y, z'

loop_
  _atom_site_type_symbol
  _atom_site_label
  _atom_site_symmetry_multiplicity
  _atom_site_fract_x
  _atom_site_fract_y
  _atom_site_fract_z
  _atom_site_occupancy
  Cr  Cr1       1.0  0.28061532974243164  0.49726569652557373  0.3106175661087036  1.0000
  Cr  Cr2       1.0  0.29153382778167725  0.5276422500610352  0.2786688804626465  1.0000
  H   H1        1.0  0.01815112680196762  0.06547798961400986  0.31484323740005493  1.0000
  H   H2        1.0  0.9776544570922852  0.9696233868598938  0.3002305030822754  1.0000
  H   H3        1.0  0.46136659383773804  0.3213355839252472  0.8901538252830505  1.0000
  H   H4        1.0  0.04043697938323021  0.2000853419303894  0.544732928276062  1.0000
  O   O1        1.0  0.3947085440158844  0.5070526599884033  0.1192416176199913  1.0000
  O   O2        1.0  0.9761443138122559  0.07390131056308746  0.7229549288749695  1.0000
  O   O3        1.0  0.501940906047821  0.9931367635726929  0.3374735414981842  1.0000
  O   O4        1.0  0.09074093401432037  0.8591561317443848  0.349987268447876  1.0000
  O   O5        1.0  0.4811989367008209  0.3391401767730713  0.9756675362586975  1.0000
  O   O6        1.0  0.27665504813194275  0.6905858516693115  0.42839446663856506  1.0000
  S   S1        1.0  0.4668036699295044  0.09258146584033966  0.19416794180870056  1.0000
  S   S2        1.0  0.4620566964149475  0.8308185935020447  0.6029995083808899  1.0000
  S   S3        1.0  0.4658973813056946  0.9371660351753235  0.6060007214546204  1.0000
  S   S4        1.0  0.9664965271949768  0.03911392763257027  0.12214196473360062  1.0000
  S   S5        1.0  0.19632580876350403  0.45759180188179016  0.2313266545534134  1.0000
  S   S6        1.0  0.46052804589271545  0.89835125207901  0.34722745418548584  1.0000
  Si  Si1       1.0  0.9615167379379272  0.9481498599052429  0.574259340763092  1.0000
