data_image0
_chemical_formula_structural       CCrH6O5S6
_chemical_formula_sum              "C1 Cr1 H6 O5 S6"
_cell_length_a       5.859866762598131
_cell_length_b       4.892021235172209
_cell_length_c       6.501358985900879
_cell_angle_alpha    67.1747889286133
_cell_angle_beta     65.35302434772547
_cell_angle_gamma    57.24479214164907

_space_group_name_H-M_alt    "P 1"
_space_group_IT_number       1

loop_
  _space_group_symop_operation_xyz
  'x, y, z'

loop_
  _atom_site_type_symbol
  _atom_site_label
  _atom_site_symmetry_multiplicity
  _atom_site_fract_x
  _atom_site_fract_y
  _atom_site_fract_z
  _atom_site_occupancy
  C   C1        1.0  0.8807727098464966  0.8216788172721863  0.42125302553176885  1.0000
  Cr  Cr1       1.0  0.4036022126674652  0.5526907444000244  0.348698228597641  1.0000
  H   H1        1.0  0.033927563577890396  0.7294908761978149  0.12377298623323442  1.0000
  H   H2        1.0  0.017802242189645767  0.8615362048149109  0.41110664606094366  1.0000
  H   H3        1.0  0.7988349199295044  0.7750025391578674  0.7075014710426331  1.0000
  H   H4        1.0  0.42636433243751526  0.6551466584205627  0.6634397506713867  1.0000
  H   H5        1.0  0.014064092189073563  0.6422024965286255  0.5657347440719604  1.0000
  H   H6        1.0  0.9470902681350708  0.18845950067043304  0.07385160028934479  1.0000
  O   O1        1.0  0.6884859800338745  0.471914142370224  0.20633289217948916  1.0000
  O   O2        1.0  0.011525308713316917  0.5720340013504028  0.038834426552057266  1.0000
  O   O3        1.0  0.8731103539466858  0.15066136419773102  0.9408945441246034  1.0000
  O   O4        1.0  0.7981366515159607  0.4235687553882599  0.6251272559165955  1.0000
  O   O5        1.0  0.29695063829421997  0.507641077041626  0.7116619348526001  1.0000
  S   S1        1.0  0.5124295353889465  0.8155165910720825  0.7221516966819763  1.0000
  S   S2        1.0  0.520261287689209  0.9109809398651123  0.05375501140952111  1.0000
  S   S3        1.0  0.5146817564964294  0.2974756360054016  0.9586877822875978  1.0000
  S   S4        1.0  0.5241565704345703  0.47333553433418274  0.8297622799873353  1.0000
  S   S5        1.0  0.012496879324316978  0.6036227345466614  0.9388687014579774  1.0000
  S   S6        1.0  0.18092599511146545  0.05488062649965286  0.7209525108337402  1.0000
