data_image0
_chemical_formula_structural       Al5AuBPb
_chemical_formula_sum              "Al5 Au1 B1 Pb1"
_cell_length_a       4.396383653383344
_cell_length_b       6.335177591699251
_cell_length_c       6.809972286224365
_cell_angle_alpha    106.31390664718592
_cell_angle_beta     91.5592132127924
_cell_angle_gamma    90.0521796243472

_space_group_name_H-M_alt    "P 1"
_space_group_IT_number       1

loop_
  _space_group_symop_operation_xyz
  'x, y, z'

loop_
  _atom_site_type_symbol
  _atom_site_label
  _atom_site_symmetry_multiplicity
  _atom_site_fract_x
  _atom_site_fract_y
  _atom_site_fract_z
  _atom_site_occupancy
  Al  Al1       1.0  0.4571836590766907  0.5541512370109558  0.12872086465358734  1.0000
  Al  Al2       1.0  0.7521407008171082  0.16073328256607056  0.7517173886299133  1.0000
  Al  Al3       1.0  0.7503747940063477  0.529244065284729  0.6558937430381775  1.0000
  Al  Al4       1.0  0.2447400987148285  0.6462817192077637  0.6083755493164062  1.0000
  Al  Al5       1.0  0.23582807183265686  0.5353447794914246  0.30641067028045654  1.0000
  Au  Au1       1.0  0.7489105463027954  0.988901913166046  0.023653315380215645  1.0000
  B   B1        1.0  0.7420133948326111  0.7512933611869812  0.2690616846084595  1.0000
  Pb  Pb1       1.0  0.25348183512687683  0.21034666895866394  0.393934428691864  1.0000
