data_image0
_chemical_formula_structural       Al5GeZr2
_chemical_formula_sum              "Al5 Ge1 Zr2"
_cell_length_a       5.257208517262404
_cell_length_b       5.6457516325813275
_cell_length_c       6.360452175140381
_cell_angle_alpha    106.72217889341269
_cell_angle_beta     90.41367230868788
_cell_angle_gamma    92.77466114764943

_space_group_name_H-M_alt    "P 1"
_space_group_IT_number       1

loop_
  _space_group_symop_operation_xyz
  'x, y, z'

loop_
  _atom_site_type_symbol
  _atom_site_label
  _atom_site_symmetry_multiplicity
  _atom_site_fract_x
  _atom_site_fract_y
  _atom_site_fract_z
  _atom_site_occupancy
  Al  Al1       1.0  0.93963223695755  0.8725286126136781  0.5789269208908081  1.0000
  Al  Al2       1.0  0.9416759610176086  0.8240088820457458  0.5461760163307191  1.0000
  Al  Al3       1.0  0.4411158859729767  0.9497423768043519  0.4513193964958191  1.0000
  Al  Al4       1.0  0.44288185238838196  0.08859636634588242  0.3713648319244385  1.0000
  Al  Al5       1.0  0.4474561810493469  0.7265459895133972  0.5079877972602845  1.0000
  Ge  Ge1       1.0  0.4389215111732483  0.2264417409896851  0.5641404986381531  1.0000
  Zr  Zr1       1.0  0.9453331232070923  0.5435013771057129  0.11814388632774354  1.0000
  Zr  Zr2       1.0  0.9443462491035461  0.5766428709030151  0.9823312759399414  1.0000
