data_image0
_chemical_formula_structural       Al4AsB2Zr
_chemical_formula_sum              "Al4 As1 B2 Zr1"
_cell_length_a       4.821677497632874
_cell_length_b       4.871686915551722
_cell_length_c       7.438149929046631
_cell_angle_alpha    90.23460795961161
_cell_angle_beta     90.61028552026298
_cell_angle_gamma    105.44586482627729

_space_group_name_H-M_alt    "P 1"
_space_group_IT_number       1

loop_
  _space_group_symop_operation_xyz
  'x, y, z'

loop_
  _atom_site_type_symbol
  _atom_site_label
  _atom_site_symmetry_multiplicity
  _atom_site_fract_x
  _atom_site_fract_y
  _atom_site_fract_z
  _atom_site_occupancy
  Al  Al1       1.0  0.3457931578159332  0.2774454653263092  0.5028069019317627  1.0000
  Al  Al2       1.0  0.8460667729377747  0.19354166090488434  0.9148491621017455  1.0000
  Al  Al3       1.0  0.38305291533470154  0.3583364188671112  0.4135587811470031  1.0000
  Al  Al4       1.0  0.3567516803741455  0.7310222387313843  0.6823307871818541  1.0000
  As  As1       1.0  0.5962897539138794  0.7844578623771667  0.25938230752944946  1.0000
  B   B1        1.0  0.08929755538702011  0.7192585468292236  0.35333827137947077  1.0000
  B   B2        1.0  0.8581738471984863  0.9948627352714537  0.05306759849190711  1.0000
  Zr  Zr1       1.0  0.8971002697944641  0.5163980722427368  0.7068834900856017  1.0000
