data_image0
_chemical_formula_structural       Al4BCrTbZr
_chemical_formula_sum              "Al4 B1 Cr1 Tb1 Zr1"
_cell_length_a       5.000485809196997
_cell_length_b       5.596812222462096
_cell_length_c       5.752824783325195
_cell_angle_alpha    115.55621775305109
_cell_angle_beta     90.03371647079379
_cell_angle_gamma    90.66782871951482

_space_group_name_H-M_alt    "P 1"
_space_group_IT_number       1

loop_
  _space_group_symop_operation_xyz
  'x, y, z'

loop_
  _atom_site_type_symbol
  _atom_site_label
  _atom_site_symmetry_multiplicity
  _atom_site_fract_x
  _atom_site_fract_y
  _atom_site_fract_z
  _atom_site_occupancy
  Al  Al1       1.0  0.33086565136909485  0.06358134746551514  0.41301149129867554  1.0000
  Al  Al2       1.0  0.8332698345184326  0.8824594616889954  0.8049842119216919  1.0000
  Al  Al3       1.0  0.8320032954216003  0.8017380833625793  0.3207792341709137  1.0000
  Al  Al4       1.0  0.3332430124282837  0.6731584072113037  0.10332568734884262  1.0000
  B   B1        1.0  0.33475446701049805  0.2545275092124939  0.466482549905777  1.0000
  Cr  Cr1       1.0  0.32955968379974365  0.8422320485115051  0.7754805088043213  1.0000
  Tb  Tb1       1.0  0.8355463147163391  0.34145620465278625  0.48618781566619873  1.0000
  Zr  Zr1       1.0  0.8328345417976379  0.6698496341705322  0.3677830398082733  1.0000
