data_image0
_chemical_formula_structural       Al5Zr3
_chemical_formula_sum              "Al5 Zr3"
_cell_length_a       5.349080034616699
_cell_length_b       5.7392918849693455
_cell_length_c       6.303292751312256
_cell_angle_alpha    92.92231248319197
_cell_angle_beta     89.73180747630049
_cell_angle_gamma    89.56086273035223

_space_group_name_H-M_alt    "P 1"
_space_group_IT_number       1

loop_
  _space_group_symop_operation_xyz
  'x, y, z'

loop_
  _atom_site_type_symbol
  _atom_site_label
  _atom_site_symmetry_multiplicity
  _atom_site_fract_x
  _atom_site_fract_y
  _atom_site_fract_z
  _atom_site_occupancy
  Al  Al1       1.0  0.49307781457901  0.3417206406593323  0.8542269468307496  1.0000
  Al  Al2       1.0  0.4302636682987213  0.06009044125676155  0.30592337250709534  1.0000
  Al  Al3       1.0  0.42660272121429443  0.7063878178596497  0.7657585740089418  1.0000
  Al  Al4       1.0  0.43086937069892883  0.7365913987159729  0.9604721665382386  1.0000
  Al  Al5       1.0  0.40537917613983154  0.13753268122673035  0.5956939458847046  1.0000
  Zr  Zr1       1.0  0.9312095642089844  0.6478222012519836  0.6285122632980347  1.0000
  Zr  Zr2       1.0  0.9304353594779968  0.4578028917312622  0.9465302228927613  1.0000
  Zr  Zr3       1.0  0.9329618811607361  0.4263624846935272  0.8453028202056886  1.0000
