data_image0
_chemical_formula_structural       AsBaClGdGeIPrRhTe
_chemical_formula_sum              "As1 Ba1 Cl1 Gd1 Ge1 I1 Pr1 Rh1 Te1"
_cell_length_a       6.960193171379346
_cell_length_b       7.036556956229121
_cell_length_c       7.093837738037109
_cell_angle_alpha    106.74799953101879
_cell_angle_beta     106.79306603542
_cell_angle_gamma    108.30739051033258

_space_group_name_H-M_alt    "P 1"
_space_group_IT_number       1

loop_
  _space_group_symop_operation_xyz
  'x, y, z'

loop_
  _atom_site_type_symbol
  _atom_site_label
  _atom_site_symmetry_multiplicity
  _atom_site_fract_x
  _atom_site_fract_y
  _atom_site_fract_z
  _atom_site_occupancy
  As  As1       1.0  0.858161985874176  0.7322801351547241  0.1662269532680511  1.0000
  Ba  Ba1       1.0  0.9044514894485474  0.4141538143157959  0.39444780349731445  1.0000
  Cl  Cl1       1.0  0.38811326026916504  0.9727435111999512  0.8053905367851257  1.0000
  Gd  Gd1       1.0  0.7023631930351257  0.8116726875305176  0.7922064661979675  1.0000
  Ge  Ge1       1.0  0.6819220781326294  0.9246067404747009  0.4425455033779144  1.0000
  I   I1        1.0  0.09732574969530106  0.325051873922348  0.9316953420639038  1.0000
  Pr  Pr1       1.0  0.27274712920188904  0.8807195425033569  0.13148915767669675  1.0000
  Rh  Rh1       1.0  0.07411382347345352  0.023692559450864792  0.5523906350135803  1.0000
  Te  Te1       1.0  0.38830506801605225  0.33084172010421753  0.5054431557655334  1.0000
