data_image0
_chemical_formula_structural       Ba3Ir3Rh3
_chemical_formula_sum              "Ba3 Ir3 Rh3"
_cell_length_a       5.793706893970585
_cell_length_b       5.903053994396616
_cell_length_c       7.265190124511719
_cell_angle_alpha    111.98097363190199
_cell_angle_beta     90.00023728926115
_cell_angle_gamma    118.86565326563554

_space_group_name_H-M_alt    "P 1"
_space_group_IT_number       1

loop_
  _space_group_symop_operation_xyz
  'x, y, z'

loop_
  _atom_site_type_symbol
  _atom_site_label
  _atom_site_symmetry_multiplicity
  _atom_site_fract_x
  _atom_site_fract_y
  _atom_site_fract_z
  _atom_site_occupancy
  Ba  Ba1       1.0  0.9182568192481995  0.9338098168373108  0.504173219203949  1.0000
  Ba  Ba2       1.0  0.5959811806678772  0.3028407096862793  0.7129437327384949  1.0000
  Ba  Ba3       1.0  0.6191849112510681  0.3742446005344391  0.21612566709518433  1.0000
  Ir  Ir1       1.0  0.6079444289207458  0.8460931777954102  0.9215787053108214  1.0000
  Ir  Ir2       1.0  0.25908225774765015  0.6042152643203735  0.5951453447341919  1.0000
  Ir  Ir3       1.0  0.05848225951194763  0.21831350028514862  0.2006405144929886  1.0000
  Rh  Rh1       1.0  0.11860127747058868  0.371576189994812  0.9129003286361694  1.0000
  Rh  Rh2       1.0  0.11264928430318832  0.8443047404289246  0.9183976054191589  1.0000
  Rh  Rh3       1.0  0.30853739380836487  0.741675078868866  0.2261977344751358  1.0000
