data_image0
_chemical_formula_structural       LuO6RbRuU
_chemical_formula_sum              "Lu1 O6 Rb1 Ru1 U1"
_cell_length_a       5.502632717991107
_cell_length_b       5.771077323846786
_cell_length_c       6.093886375427246
_cell_angle_alpha    118.87660562220728
_cell_angle_beta     114.60556780755186
_cell_angle_gamma    90.10153293671537

_space_group_name_H-M_alt    "P 1"
_space_group_IT_number       1

loop_
  _space_group_symop_operation_xyz
  'x, y, z'

loop_
  _atom_site_type_symbol
  _atom_site_label
  _atom_site_symmetry_multiplicity
  _atom_site_fract_x
  _atom_site_fract_y
  _atom_site_fract_z
  _atom_site_occupancy
  Lu  Lu1       1.0  0.6457245349884033  0.03913578763604164  0.1847302615642548  1.0000
  O   O1        1.0  0.98019939661026  0.9695731997489929  0.3772505521774292  1.0000
  O   O2        1.0  0.7998234629631042  0.8339903354644775  0.8964354395866394  1.0000
  O   O3        1.0  0.17993558943271637  0.851477861404419  0.6997570395469666  1.0000
  O   O4        1.0  0.808813750743866  0.4904286861419678  0.4715634882450104  1.0000
  O   O5        1.0  0.2156955450773239  0.8632698655128479  0.7244117856025696  1.0000
  O   O6        1.0  0.8044025897979736  0.49077436327934265  0.40001729130744934  1.0000
  Rb  Rb1       1.0  0.15248942375183105  0.3567931652069092  0.20404516160488126  1.0000
  Ru  Ru1       1.0  0.6511226892471313  0.7265071868896484  0.12281714379787445  1.0000
  U   U1        1.0  0.6646409034729004  0.36012932658195496  0.7058449983596802  1.0000
