data_image0
_chemical_formula_structural       Gd2O4PPrRb2
_chemical_formula_sum              "Gd2 O4 P1 Pr1 Rb2"
_cell_length_a       6.405147565223067
_cell_length_b       6.530148644261259
_cell_length_c       6.888527870178223
_cell_angle_alpha    60.63375014471576
_cell_angle_beta     59.42966893369992
_cell_angle_gamma    59.69409190750316

_space_group_name_H-M_alt    "P 1"
_space_group_IT_number       1

loop_
  _space_group_symop_operation_xyz
  'x, y, z'

loop_
  _atom_site_type_symbol
  _atom_site_label
  _atom_site_symmetry_multiplicity
  _atom_site_fract_x
  _atom_site_fract_y
  _atom_site_fract_z
  _atom_site_occupancy
  Gd  Gd1       1.0  0.5263181924819946  0.8412548899650574  0.6164116859436035  1.0000
  Gd  Gd2       1.0  0.03468868508934975  0.3327887952327728  0.9190836548805237  1.0000
  O   O1        1.0  0.13723224401474  0.36821672320365906  0.11196432262659073  1.0000
  O   O2        1.0  0.17229004204273224  0.8465113639831543  0.4751145839691162  1.0000
  O   O3        1.0  0.8151875138282775  0.9909400939941407  0.7647454738616943  1.0000
  O   O4        1.0  0.4793154597282409  0.3531326949596405  0.7347812056541443  1.0000
  P   P1        1.0  0.02997036464512348  0.3353455066680908  0.24320496618747708  1.0000
  Pr  Pr1       1.0  0.7908269166946411  0.6021947264671326  0.2984105348587036  1.0000
  Rb  Rb1       1.0  0.5466458201408386  0.8744182586669922  0.12217133492231369  1.0000
  Rb  Rb2       1.0  0.4941537976264953  0.3396201431751251  0.7498084902763367  1.0000
