data_image0
_chemical_formula_structural       Gd2O5OsRb2
_chemical_formula_sum              "Gd2 O5 Os1 Rb2"
_cell_length_a       5.901977145683439
_cell_length_b       6.3495092142009115
_cell_length_c       6.463338375091553
_cell_angle_alpha    118.65928113254786
_cell_angle_beta     117.4677265341306
_cell_angle_gamma    89.32236849478882

_space_group_name_H-M_alt    "P 1"
_space_group_IT_number       1

loop_
  _space_group_symop_operation_xyz
  'x, y, z'

loop_
  _atom_site_type_symbol
  _atom_site_label
  _atom_site_symmetry_multiplicity
  _atom_site_fract_x
  _atom_site_fract_y
  _atom_site_fract_z
  _atom_site_occupancy
  Gd  Gd1       1.0  0.5868220925331116  0.3271659016609192  0.03991875797510147  1.0000
  Gd  Gd2       1.0  0.5878446698188782  0.9409326910972595  0.5577837824821472  1.0000
  O   O1        1.0  0.2917318344116211  0.3296836018562317  0.548760175704956  1.0000
  O   O2        1.0  0.09853147715330124  0.9342107176780701  0.04678232967853546  1.0000
  O   O3        1.0  0.2036418616771698  0.5221938490867615  0.3291252851486206  1.0000
  O   O4        1.0  0.21428972482681274  0.8398475646972656  0.5999902486801147  1.0000
  O   O5        1.0  0.635650634765625  0.019393770024180412  0.31625354290008545  1.0000
  Os  Os1       1.0  0.09384993463754654  0.5819067358970642  0.038317881524562836  1.0000
  Rb  Rb1       1.0  0.8648574948310852  0.2308581918478012  0.8020586967468262  1.0000
  Rb  Rb2       1.0  0.0901617482304573  0.8196213245391846  0.3222263753414154  1.0000
