data_image0
_chemical_formula_structural       GdO7PrRb
_chemical_formula_sum              "Gd1 O7 Pr1 Rb1"
_cell_length_a       6.056967967895487
_cell_length_b       5.94700233715464
_cell_length_c       5.9908246994018555
_cell_angle_alpha    118.83424187167029
_cell_angle_beta     118.28363211194375
_cell_angle_gamma    90.7183360484094

_space_group_name_H-M_alt    "P 1"
_space_group_IT_number       1

loop_
  _space_group_symop_operation_xyz
  'x, y, z'

loop_
  _atom_site_type_symbol
  _atom_site_label
  _atom_site_symmetry_multiplicity
  _atom_site_fract_x
  _atom_site_fract_y
  _atom_site_fract_z
  _atom_site_occupancy
  Gd  Gd1       1.0  0.50691819190979  0.7458879947662354  0.7190483808517456  1.0000
  O   O1        1.0  0.8732448220252991  0.49471911787986755  0.8347159624099731  1.0000
  O   O2        1.0  0.39548519253730774  0.493979811668396  0.5642393231391907  1.0000
  O   O3        1.0  0.3836367726325989  0.9855257272720337  0.5743340849876404  1.0000
  O   O4        1.0  0.5943552255630493  0.254106730222702  0.09673705697059631  1.0000
  O   O5        1.0  0.8797097206115723  0.010966913774609566  0.5766197443008423  1.0000
  O   O6        1.0  0.20833265781402588  0.22678565979003906  0.7110984921455383  1.0000
  O   O7        1.0  0.13302721083164215  0.5155954957008362  0.20523226261138916  1.0000
  Pr  Pr1       1.0  0.6245549917221069  0.07179402559995651  0.21028202772140503  1.0000
  Rb  Rb1       1.0  0.1196664348244667  0.5597901344299316  0.555340051651001  1.0000
