data_image0
_chemical_formula_structural       CoGdO6Rb2
_chemical_formula_sum              "Co1 Gd1 O6 Rb2"
_cell_length_a       5.793775527306117
_cell_length_b       5.955154378923005
_cell_length_c       6.067022800445557
_cell_angle_alpha    65.54656645464247
_cell_angle_beta     61.21203047330083
_cell_angle_gamma    62.296370954279915

_space_group_name_H-M_alt    "P 1"
_space_group_IT_number       1

loop_
  _space_group_symop_operation_xyz
  'x, y, z'

loop_
  _atom_site_type_symbol
  _atom_site_label
  _atom_site_symmetry_multiplicity
  _atom_site_fract_x
  _atom_site_fract_y
  _atom_site_fract_z
  _atom_site_occupancy
  Co  Co1       1.0  0.8100202083587646  0.732231080532074  0.31596729159355164  1.0000
  Gd  Gd1       1.0  0.3424232006072998  0.6244041323661804  0.17285358905792236  1.0000
  O   O1        1.0  0.4020393490791321  0.7114259004592896  0.3041619658470154  1.0000
  O   O2        1.0  0.6590674519538879  0.83134925365448  0.6509016156196594  1.0000
  O   O3        1.0  0.9931544065475464  0.450317919254303  0.4763779938220978  1.0000
  O   O4        1.0  0.9765996336936951  0.16318021714687347  0.35922276973724365  1.0000
  O   O5        1.0  0.30590593814849854  0.35797810554504395  0.6336761116981506  1.0000
  O   O6        1.0  0.9436677694320679  0.5584803819656372  0.0904244109988211  1.0000
  Rb  Rb1       1.0  0.8017464876174927  0.13051624596118927  0.6715033650398254  1.0000
  Rb  Rb2       1.0  0.12287761270999908  0.15258297324180603  0.9337710738182068  1.0000
