data_image0
_chemical_formula_structural       Gd3O6Rb
_chemical_formula_sum              "Gd3 O6 Rb1"
_cell_length_a       6.328876143859601
_cell_length_b       6.181274131389608
_cell_length_c       6.653149604797363
_cell_angle_alpha    108.91940254688969
_cell_angle_beta     107.84042903017578
_cell_angle_gamma    112.36867778316766

_space_group_name_H-M_alt    "P 1"
_space_group_IT_number       1

loop_
  _space_group_symop_operation_xyz
  'x, y, z'

loop_
  _atom_site_type_symbol
  _atom_site_label
  _atom_site_symmetry_multiplicity
  _atom_site_fract_x
  _atom_site_fract_y
  _atom_site_fract_z
  _atom_site_occupancy
  Gd  Gd1       1.0  0.675682783126831  0.6535337567329407  0.021895641461014748  1.0000
  Gd  Gd2       1.0  0.35836321115493774  0.9714776873588562  0.016059521585702896  1.0000
  Gd  Gd3       1.0  0.8690558075904846  0.4440957009792328  0.8735114932060242  1.0000
  O   O1        1.0  0.9808775782585144  0.9232066869735718  0.5424758791923523  1.0000
  O   O2        1.0  0.05772639438509941  0.47051766514778137  0.8511912822723389  1.0000
  O   O3        1.0  0.546678364276886  0.035280972719192505  0.3539414405822754  1.0000
  O   O4        1.0  0.24023877084255219  0.21848386526107788  0.1774958372116089  1.0000
  O   O5        1.0  0.5374526977539062  0.7293716669082642  0.7584185004234314  1.0000
  O   O6        1.0  0.7379514575004578  0.17575089633464813  0.29864197969436646  1.0000
  Rb  Rb1       1.0  0.3607138395309448  0.21805618703365326  0.5174468159675598  1.0000
