data_image0
_chemical_formula_structural       Hg4IPtSe4
_chemical_formula_sum              "Hg4 I1 Pt1 Se4"
_cell_length_a       5.818418677532061
_cell_length_b       8.390885011693676
_cell_length_c       8.91749382019043
_cell_angle_alpha    123.2252658204699
_cell_angle_beta     92.13045047571008
_cell_angle_gamma    88.2741551676389

_space_group_name_H-M_alt    "P 1"
_space_group_IT_number       1

loop_
  _space_group_symop_operation_xyz
  'x, y, z'

loop_
  _atom_site_type_symbol
  _atom_site_label
  _atom_site_symmetry_multiplicity
  _atom_site_fract_x
  _atom_site_fract_y
  _atom_site_fract_z
  _atom_site_occupancy
  Hg  Hg1       1.0  0.758707344532013  0.2626471519470215  0.7099278569221497  1.0000
  Hg  Hg2       1.0  0.2507091164588928  0.40109962224960327  0.36788293719291687  1.0000
  Hg  Hg3       1.0  0.2523709833621979  0.8911336660385132  0.8816366195678711  1.0000
  Hg  Hg4       1.0  0.25053897500038147  0.6017576456069946  0.6528670787811279  1.0000
  I   I1        1.0  0.7465105056762696  0.4420378506183624  0.5063491463661194  1.0000
  Pt  Pt1       1.0  0.7509331703186036  0.8452738523483276  0.8728078007698059  1.0000
  Se  Se1       1.0  0.26326292753219604  0.11303247511386871  0.7318724393844604  1.0000
  Se  Se2       1.0  0.7507446408271791  0.09641581028699875  0.7944483160972595  1.0000
  Se  Se3       1.0  0.24947832524776462  0.10666698217391968  0.5493097901344299  1.0000
  Se  Se4       1.0  0.752692997455597  0.9038281440734863  0.8563763499259949  1.0000
