data_image0
_chemical_formula_structural       Hg3I2Se5
_chemical_formula_sum              "Hg3 I2 Se5"
_cell_length_a       5.517834317091238
_cell_length_b       8.591215393845149
_cell_length_c       10.527689933776855
_cell_angle_alpha    117.93960678490022
_cell_angle_beta     88.69220665871292
_cell_angle_gamma    95.4952231620514

_space_group_name_H-M_alt    "P 1"
_space_group_IT_number       1

loop_
  _space_group_symop_operation_xyz
  'x, y, z'

loop_
  _atom_site_type_symbol
  _atom_site_label
  _atom_site_symmetry_multiplicity
  _atom_site_fract_x
  _atom_site_fract_y
  _atom_site_fract_z
  _atom_site_occupancy
  Hg  Hg1       1.0  0.6172643899917603  0.025700315833091732  0.281562864780426  1.0000
  Hg  Hg2       1.0  0.46522256731986994  0.6500054001808167  0.015099748037755531  1.0000
  Hg  Hg3       1.0  0.12629352509975433  0.017309540882706642  0.4521559476852417  1.0000
  I   I1        1.0  0.32767385244369507  0.06133495643734931  0.819530189037323  1.0000
  I   I2        1.0  0.6288110017776489  0.6666005253791809  0.6935566663742065  1.0000
  Se  Se1       1.0  0.006006411742418984  0.9244166016578673  0.5833682417869568  1.0000
  Se  Se2       1.0  0.6342034935951233  0.2135612070560455  0.20762480795383453  1.0000
  Se  Se3       1.0  0.629551112651825  0.5314801931381226  0.3375715911388397  1.0000
  Se  Se4       1.0  0.08322990685701367  0.868609845638275  0.7615236639976501  1.0000
  Se  Se5       1.0  0.006638749502599239  0.00181163870729506  0.1826285868883133  1.0000
