data_image0
_chemical_formula_structural       Hg6Se4
_chemical_formula_sum              "Hg6 Se4"
_cell_length_a       7.032585340397616
_cell_length_b       9.221193142896016
_cell_length_c       10.912778854370117
_cell_angle_alpha    119.11375729389607
_cell_angle_beta     91.7962816165609
_cell_angle_gamma    88.46567698318228

_space_group_name_H-M_alt    "P 1"
_space_group_IT_number       1

loop_
  _space_group_symop_operation_xyz
  'x, y, z'

loop_
  _atom_site_type_symbol
  _atom_site_label
  _atom_site_symmetry_multiplicity
  _atom_site_fract_x
  _atom_site_fract_y
  _atom_site_fract_z
  _atom_site_occupancy
  Hg  Hg1       1.0  0.10720191150903703  0.6011475920677185  0.8198474645614624  1.0000
  Hg  Hg2       1.0  0.08427251130342485  0.4999462962150574  0.14237116277217865  1.0000
  Hg  Hg3       1.0  0.6002712845802308  0.8771930932998657  0.8330637812614441  1.0000
  Hg  Hg4       1.0  0.05756771564483643  0.19301117956638336  0.4985345602035523  1.0000
  Hg  Hg5       1.0  0.3840625882148743  0.9912443161010742  0.4447250664234162  1.0000
  Hg  Hg6       1.0  0.6096447706222535  0.4997217655181885  0.5154013633728027  1.0000
  Se  Se1       1.0  0.3858946859836579  0.12859594821929932  0.1011454164981842  1.0000
  Se  Se2       1.0  0.03941293433308602  0.036654699593782425  0.42823988199234014  1.0000
  Se  Se3       1.0  0.871332347393036  0.1580381989479065  0.9606533646583556  1.0000
  Se  Se4       1.0  0.587919592857361  0.6293618679046631  0.5474275946617126  1.0000
