data_image0
_chemical_formula_structural       Hg4ISe5
_chemical_formula_sum              "Hg4 I1 Se5"
_cell_length_a       10.270012343241717
_cell_length_b       10.823781792907335
_cell_length_c       11.187599182128906
_cell_angle_alpha    110.68131962415976
_cell_angle_beta     102.80973759707142
_cell_angle_gamma    109.03911564934434

_space_group_name_H-M_alt    "P 1"
_space_group_IT_number       1

loop_
  _space_group_symop_operation_xyz
  'x, y, z'

loop_
  _atom_site_type_symbol
  _atom_site_label
  _atom_site_symmetry_multiplicity
  _atom_site_fract_x
  _atom_site_fract_y
  _atom_site_fract_z
  _atom_site_occupancy
  Hg  Hg1       1.0  0.763716459274292  0.545219898223877  0.2717688083648681  1.0000
  Hg  Hg2       1.0  0.2547954022884369  0.11382286995649338  0.7617155909538269  1.0000
  Hg  Hg3       1.0  0.7179667353630066  0.3252578675746918  0.9410640001296997  1.0000
  Hg  Hg4       1.0  0.06723948568105698  0.25621718168258667  0.6975032091140747  1.0000
  I   I1        1.0  0.5265675783157349  0.4947541058063507  0.6671881675720215  1.0000
  Se  Se1       1.0  0.7620165348052979  0.6173940896987915  0.07464753836393356  1.0000
  Se  Se2       1.0  0.3963712155818939  0.9997714757919312  0.3202089667320251  1.0000
  Se  Se3       1.0  0.23541273176670074  0.1267320066690445  0.3998439908027649  1.0000
  Se  Se4       1.0  0.769737184047699  0.6716662049293518  0.10275913774967194  1.0000
  Se  Se5       1.0  0.5540067553520203  0.5279039144515991  0.5909817814826965  1.0000
