data_image0
_chemical_formula_structural       Hg3I2Se5
_chemical_formula_sum              "Hg3 I2 Se5"
_cell_length_a       6.972054175989927
_cell_length_b       9.03244808118153
_cell_length_c       9.202178955078125
_cell_angle_alpha    120.71304246349467
_cell_angle_beta     89.07817436527426
_cell_angle_gamma    97.52602674690775

_space_group_name_H-M_alt    "P 1"
_space_group_IT_number       1

loop_
  _space_group_symop_operation_xyz
  'x, y, z'

loop_
  _atom_site_type_symbol
  _atom_site_label
  _atom_site_symmetry_multiplicity
  _atom_site_fract_x
  _atom_site_fract_y
  _atom_site_fract_z
  _atom_site_occupancy
  Hg  Hg1       1.0  0.4200355708599091  0.9048457741737365  0.8258643150329591  1.0000
  Hg  Hg2       1.0  0.9820899963378907  0.7993891239166259  0.10525480657815933  1.0000
  Hg  Hg3       1.0  0.9414715170860292  0.08843915164470671  0.9559337496757507  1.0000
  I   I1        1.0  0.01238787826150655  0.31028261780738825  0.11440449953079226  1.0000
  I   I2        1.0  0.7508682608604432  0.7650621533393859  0.48045629262924194  1.0000
  Se  Se1       1.0  0.05430476740002631  0.8612655997276305  0.6883319020271301  1.0000
  Se  Se2       1.0  0.41328775882720953  0.4147512018680572  0.2670866847038269  1.0000
  Se  Se3       1.0  0.7725868821144105  0.33187329769134516  0.6282216310501099  1.0000
  Se  Se4       1.0  0.4177968800067902  0.38716393709182734  0.867996871471405  1.0000
  Se  Se5       1.0  0.7064000368118287  0.8023892045021056  0.14316208660602575  1.0000
