data_image0
_chemical_formula_structural       K2Mo4NdO6
_chemical_formula_sum              "K2 Mo4 Nd1 O6"
_cell_length_a       6.690675671433219
_cell_length_b       6.681144786745096
_cell_length_c       7.458528995513916
_cell_angle_alpha    101.60308543287525
_cell_angle_beta     109.3985163717877
_cell_angle_gamma    115.40128826571996

_space_group_name_H-M_alt    "P 1"
_space_group_IT_number       1

loop_
  _space_group_symop_operation_xyz
  'x, y, z'

loop_
  _atom_site_type_symbol
  _atom_site_label
  _atom_site_symmetry_multiplicity
  _atom_site_fract_x
  _atom_site_fract_y
  _atom_site_fract_z
  _atom_site_occupancy
  K   K1        1.0  0.02024637907743454  0.36028042435646057  0.2911202907562256  1.0000
  K   K2        1.0  0.20111851394176483  0.5322336554527283  0.9309012293815613  1.0000
  Mo  Mo1       1.0  0.6931099891662598  0.03257100284099579  0.9488169550895691  1.0000
  Mo  Mo2       1.0  0.7157687544822693  0.8641387224197388  0.14299866557121277  1.0000
  Mo  Mo3       1.0  0.3688715696334839  0.8531465530395508  0.934714138507843  1.0000
  Mo  Mo4       1.0  0.6857291460037231  0.39196038246154785  0.8864970803260803  1.0000
  Nd  Nd1       1.0  0.8221485018730164  0.12313605099916458  0.37657779455184937  1.0000
  O   O1        1.0  0.34377336502075195  0.35950425267219543  0.39011192321777344  1.0000
  O   O2        1.0  0.10387047380208969  0.6686556935310364  0.0884711742401123  1.0000
  O   O3        1.0  0.5124945044517517  0.9001144766807556  0.6567142605781555  1.0000
  O   O4        1.0  0.9143442511558533  0.6528798937797546  0.5486001372337341  1.0000
  O   O5        1.0  0.34679630398750305  0.04853176325559616  0.8988301753997803  1.0000
  O   O6        1.0  0.8292482495307922  0.1487458497285843  0.6980376243591309  1.0000
