data_image0
_chemical_formula_structural       FFeMo5O6
_chemical_formula_sum              "F1 Fe1 Mo5 O6"
_cell_length_a       7.219563587920257
_cell_length_b       6.98439794364971
_cell_length_c       7.276734828948975
_cell_angle_alpha    104.6384614326256
_cell_angle_beta     107.10642574260646
_cell_angle_gamma    115.457439132821

_space_group_name_H-M_alt    "P 1"
_space_group_IT_number       1

loop_
  _space_group_symop_operation_xyz
  'x, y, z'

loop_
  _atom_site_type_symbol
  _atom_site_label
  _atom_site_symmetry_multiplicity
  _atom_site_fract_x
  _atom_site_fract_y
  _atom_site_fract_z
  _atom_site_occupancy
  F   F1        1.0  0.24018752574920654  0.16426104307174683  0.5245682597160339  1.0000
  Fe  Fe1       1.0  0.48158279061317444  0.4225735962390899  0.16760192811489105  1.0000
  Mo  Mo1       1.0  0.25469198822975153  0.7315735220909118  0.27552059292793274  1.0000
  Mo  Mo2       1.0  0.5969920754432678  0.23138330876827237  0.8833091855049133  1.0000
  Mo  Mo3       1.0  0.9301012754440308  0.750340700149536  0.5850549340248108  1.0000
  Mo  Mo4       1.0  0.12161881476640699  0.409822791814804  0.06582235544919966  1.0000
  Mo  Mo5       1.0  0.8622598648071289  0.40936127305030817  0.3042610287666321  1.0000
  O   O1        1.0  0.864023745059967  0.9101397991180419  0.0627131983637809  1.0000
  O   O2        1.0  0.862168550491333  0.41285702586174006  0.5999846458435059  1.0000
  O   O3        1.0  0.3912766873836517  0.9500789642333983  0.7499469518661499  1.0000
  O   O4        1.0  0.922310471534729  0.4500549137592315  0.746344804763794  1.0000
  O   O5        1.0  0.07839850336313241  0.9194090962409972  0.6965113282203674  1.0000
  O   O6        1.0  0.6056197881698608  0.2261131554841995  0.9579219222068787  1.0000
