data_image0
_chemical_formula_structural       HfK2Mo3O7
_chemical_formula_sum              "Hf1 K2 Mo3 O7"
_cell_length_a       5.854239776094827
_cell_length_b       6.147329494121724
_cell_length_c       6.510726451873779
_cell_angle_alpha    101.32172573167132
_cell_angle_beta     106.6876642133799
_cell_angle_gamma    117.79998797704688

_space_group_name_H-M_alt    "P 1"
_space_group_IT_number       1

loop_
  _space_group_symop_operation_xyz
  'x, y, z'

loop_
  _atom_site_type_symbol
  _atom_site_label
  _atom_site_symmetry_multiplicity
  _atom_site_fract_x
  _atom_site_fract_y
  _atom_site_fract_z
  _atom_site_occupancy
  Hf  Hf1       1.0  0.8301746845245361  0.8843289017677307  0.7035383582115173  1.0000
  K   K1        1.0  0.8090161085128784  0.8787810802459717  0.3763964772224426  1.0000
  K   K2        1.0  0.36015185713768005  0.8672075867652893  0.7084144949913025  1.0000
  Mo  Mo1       1.0  0.35106176137924194  0.568886935710907  0.876208484172821  1.0000
  Mo  Mo2       1.0  0.0592472106218338  0.6108722686767578  0.6773932576179504  1.0000
  Mo  Mo3       1.0  0.2866949439048767  0.13632458448410034  0.318052738904953  1.0000
  O   O1        1.0  0.9837801456451416  0.31623411178588867  0.46804115176200867  1.0000
  O   O2        1.0  0.6512043476104736  0.2652518153190613  0.4423714876174927  1.0000
  O   O3        1.0  0.8485006093978882  0.12540008127689362  0.698207437992096  1.0000
  O   O4        1.0  0.3528057336807251  0.6426978707313538  0.03416277840733528  1.0000
  O   O5        1.0  0.9950823783874512  0.3620717227458954  0.11724536865949631  1.0000
  O   O6        1.0  0.7191688418388367  0.574199914932251  0.14709500968456268  1.0000
  O   O7        1.0  0.36330875754356384  0.1430421620607376  0.9899129867553711  1.0000
