data_image0
_chemical_formula_structural       FKMo5O6
_chemical_formula_sum              "F1 K1 Mo5 O6"
_cell_length_a       5.5186024352472485
_cell_length_b       6.054964586460961
_cell_length_c       7.97118616104126
_cell_angle_alpha    104.05017924921621
_cell_angle_beta     96.28596129044324
_cell_angle_gamma    112.92950837294234

_space_group_name_H-M_alt    "P 1"
_space_group_IT_number       1

loop_
  _space_group_symop_operation_xyz
  'x, y, z'

loop_
  _atom_site_type_symbol
  _atom_site_label
  _atom_site_symmetry_multiplicity
  _atom_site_fract_x
  _atom_site_fract_y
  _atom_site_fract_z
  _atom_site_occupancy
  F   F1        1.0  0.293901652097702  0.7871589064598083  0.7852120995521545  1.0000
  K   K1        1.0  0.8304077982902526  0.772636890411377  0.5224184393882751  1.0000
  Mo  Mo1       1.0  0.8630492687225341  0.28975406289100647  0.7748208045959473  1.0000
  Mo  Mo2       1.0  0.3531608581542969  0.2727518677711487  0.9007535576820374  1.0000
  Mo  Mo3       1.0  0.5247434377670288  0.9373947381973267  0.15027718245983124  1.0000
  Mo  Mo4       1.0  0.33976632356643677  0.3379361927509308  0.4126169681549072  1.0000
  Mo  Mo5       1.0  0.017848525196313858  0.9494794607162476  0.5019316077232361  1.0000
  O   O1        1.0  0.16718201339244843  0.8530240058898926  0.31539925932884216  1.0000
  O   O2        1.0  0.7388497591018677  0.5988523960113525  0.11388147622346878  1.0000
  O   O3        1.0  0.9768581390380858  0.3347932696342468  0.6251789927482605  1.0000
  O   O4        1.0  0.4709106087684631  0.10936564207077026  0.4537736177444458  1.0000
  O   O5        1.0  0.2223839163780212  0.6044256091117859  0.9878787398338317  1.0000
  O   O6        1.0  0.9396414756774901  0.33739787340164185  0.9873325824737548  1.0000
