data_image0
_chemical_formula_structural       FeKMo4O7
_chemical_formula_sum              "Fe1 K1 Mo4 O7"
_cell_length_a       4.890668553350119
_cell_length_b       5.437534632523563
_cell_length_c       7.335117816925049
_cell_angle_alpha    99.65895233845777
_cell_angle_beta     109.85782732168201
_cell_angle_gamma    104.68746440531571

_space_group_name_H-M_alt    "P 1"
_space_group_IT_number       1

loop_
  _space_group_symop_operation_xyz
  'x, y, z'

loop_
  _atom_site_type_symbol
  _atom_site_label
  _atom_site_symmetry_multiplicity
  _atom_site_fract_x
  _atom_site_fract_y
  _atom_site_fract_z
  _atom_site_occupancy
  Fe  Fe1       1.0  0.4949982166290283  0.25704893469810486  0.7688593864440918  1.0000
  K   K1        1.0  0.17283320426940918  0.9507507085800171  0.03100223839282989  1.0000
  Mo  Mo1       1.0  0.164322167634964  0.49902382493019104  0.38398709893226624  1.0000
  Mo  Mo2       1.0  0.6663833260536194  0.5369068384170532  0.03934933617711067  1.0000
  Mo  Mo3       1.0  0.24901063740253448  0.6360631585121155  0.2798915207386017  1.0000
  Mo  Mo4       1.0  0.7726814150810242  0.0932994931936264  0.54328453540802  1.0000
  O   O1        1.0  0.44517427682876587  0.030604267492890358  0.26513347029685974  1.0000
  O   O2        1.0  0.43179062008857727  0.24000994861125946  0.26047390699386597  1.0000
  O   O3        1.0  0.5540857315063477  0.8397617340087891  0.7693460583686829  1.0000
  O   O4        1.0  0.7740305066108704  0.7864481210708618  0.4438959658145904  1.0000
  O   O5        1.0  0.9504743814468384  0.059359610080718994  0.015943963080644635  1.0000
  O   O6        1.0  0.282745897769928  0.5330251455307007  0.7844197750091553  1.0000
  O   O7        1.0  0.7691572308540344  0.5658394694328308  0.2700853645801544  1.0000
