data_image0
_chemical_formula_structural       Mo6O7
_chemical_formula_sum              "Mo6 O7"
_cell_length_a       6.363371275918103
_cell_length_b       6.336176459963506
_cell_length_c       7.045465469360352
_cell_angle_alpha    93.47581986084097
_cell_angle_beta     107.27382848222129
_cell_angle_gamma    119.72451284051232

_space_group_name_H-M_alt    "P 1"
_space_group_IT_number       1

loop_
  _space_group_symop_operation_xyz
  'x, y, z'

loop_
  _atom_site_type_symbol
  _atom_site_label
  _atom_site_symmetry_multiplicity
  _atom_site_fract_x
  _atom_site_fract_y
  _atom_site_fract_z
  _atom_site_occupancy
  Mo  Mo1       1.0  0.8854164481163025  0.5131080150604248  0.3770335614681244  1.0000
  Mo  Mo2       1.0  0.027670253068208694  0.8772489428520203  0.4056965112686157  1.0000
  Mo  Mo3       1.0  0.41148823499679565  0.023403266444802284  0.894248366355896  1.0000
  Mo  Mo4       1.0  0.4293101131916046  0.04105827212333679  0.37409043312072754  1.0000
  Mo  Mo5       1.0  0.1884794682264328  0.47747573256492615  0.1559266299009323  1.0000
  Mo  Mo6       1.0  0.5668203234672546  0.5454262495040894  0.6161399483680725  1.0000
  O   O1        1.0  0.4553019404411316  0.8016102313995361  0.3729912042617798  1.0000
  O   O2        1.0  0.5281797647476196  0.5206815600395203  0.8711667656898499  1.0000
  O   O3        1.0  0.1079050749540329  0.025777218863368034  0.2809842824935913  1.0000
  O   O4        1.0  0.8899151086807251  0.5130642056465149  0.14506445825099945  1.0000
  O   O5        1.0  0.6982586979866028  0.007637093774974346  0.2307278513908386  1.0000
  O   O6        1.0  0.4101145267486572  0.5586093664169312  0.09927548468112946  1.0000
  O   O7        1.0  0.8960327506065369  0.5166330337524414  0.5346835255622864  1.0000
