data_image0
_chemical_formula_structural       AsCoH2IIrN3PbPrPtZr
_chemical_formula_sum              "As1 Co1 H2 I1 Ir1 N3 Pb1 Pr1 Pt1 Zr1"
_cell_length_a       5.508203929402194
_cell_length_b       6.879643839850646
_cell_length_c       7.9859795570373535
_cell_angle_alpha    110.07273787630864
_cell_angle_beta     89.0847191507275
_cell_angle_gamma    90.06252683428067

_space_group_name_H-M_alt    "P 1"
_space_group_IT_number       1

loop_
  _space_group_symop_operation_xyz
  'x, y, z'

loop_
  _atom_site_type_symbol
  _atom_site_label
  _atom_site_symmetry_multiplicity
  _atom_site_fract_x
  _atom_site_fract_y
  _atom_site_fract_z
  _atom_site_occupancy
  As  As1       1.0  0.49487102031707764  0.21714839339256284  0.22315022349357608  1.0000
  Co  Co1       1.0  0.49475356936454784  0.8773108720779418  0.6081709861755372  1.0000
  H   H1        1.0  0.5023069977760315  0.3141404986381531  0.10349100828170778  1.0000
  H   H2        1.0  0.5144001841545105  0.0968664363026619  0.6524848937988282  1.0000
  I   I1        1.0  0.9850012063980103  0.9228371381759642  0.26129129528999334  1.0000
  Ir  Ir1       1.0  0.9956544637680054  0.13332238793373108  0.4448899924755097  1.0000
  N   N1        1.0  0.9913923740386963  0.21218754351139066  0.5553560853004457  1.0000
  N   N2        1.0  0.47971996665000916  0.9462481141090392  0.29988932609558117  1.0000
  N   N3        1.0  0.49076899886131287  0.6468132138252258  0.9275341033935548  1.0000
  Pb  Pb1       1.0  0.9862412810325623  0.23165155947208402  0.5982139110565187  1.0000
  Pr  Pr1       1.0  0.9955957531929016  0.2849601209163666  0.8648836016654969  1.0000
  Pt  Pt1       1.0  0.9757412672042847  0.557775616645813  0.700612783432007  1.0000
  Zr  Zr1       1.0  0.9926403760910034  0.2399996072053909  0.5407142639160157  1.0000
