data_image0
_chemical_formula_structural       Br2CoFeH3HoIr2NZr2
_chemical_formula_sum              "Br2 Co1 Fe1 H3 Ho1 Ir2 N1 Zr2"
_cell_length_a       6.269399322548352
_cell_length_b       6.3676448433661195
_cell_length_c       6.577543258666992
_cell_angle_alpha    72.42243318024725
_cell_angle_beta     72.90428295818445
_cell_angle_gamma    73.2906982398274

_space_group_name_H-M_alt    "P 1"
_space_group_IT_number       1

loop_
  _space_group_symop_operation_xyz
  'x, y, z'

loop_
  _atom_site_type_symbol
  _atom_site_label
  _atom_site_symmetry_multiplicity
  _atom_site_fract_x
  _atom_site_fract_y
  _atom_site_fract_z
  _atom_site_occupancy
  Br  Br1       1.0  0.20849162340164185  0.8092175722122192  0.12023061513900757  1.0000
  Br  Br2       1.0  0.22993126511573792  0.3444365859031677  0.06599251925945282  1.0000
  Co  Co1       1.0  0.21164266765117645  0.4156234562397003  0.6188234090805054  1.0000
  Fe  Fe1       1.0  0.9578848481178284  0.1306002140045166  0.37475016713142395  1.0000
  H   H1        1.0  0.7400817275047302  0.370612233877182  0.3346885144710541  1.0000
  H   H2        1.0  0.7134678363800049  0.8894515037536621  0.7715916633605957  1.0000
  H   H3        1.0  0.6708219051361084  0.18225204944610596  0.44273731112480164  1.0000
  Ho  Ho1       1.0  0.7096998691558838  0.938686728477478  0.7373336553573608  1.0000
  Ir  Ir1       1.0  0.2177145928144455  0.45830267667770386  0.9930182695388794  1.0000
  Ir  Ir2       1.0  0.7143740057945251  0.1374666541814804  0.18341191112995148  1.0000
  N   N1        1.0  0.20475587248802185  0.9721348881721497  0.5586804747581482  1.0000
  Zr  Zr1       1.0  0.2051849067211151  0.9275043606758118  0.05165906623005867  1.0000
  Zr  Zr2       1.0  0.69977867603302  0.939875602722168  0.5243307948112488  1.0000
