data_image0
_chemical_formula_structural       Br2CoH6PbPt3
_chemical_formula_sum              "Br2 Co1 H6 Pb1 Pt3"
_cell_length_a       6.034162123921268
_cell_length_b       6.286265104642117
_cell_length_c       6.610733509063721
_cell_angle_alpha    91.8347243709631
_cell_angle_beta     86.31629624877515
_cell_angle_gamma    89.85829363058207

_space_group_name_H-M_alt    "P 1"
_space_group_IT_number       1

loop_
  _space_group_symop_operation_xyz
  'x, y, z'

loop_
  _atom_site_type_symbol
  _atom_site_label
  _atom_site_symmetry_multiplicity
  _atom_site_fract_x
  _atom_site_fract_y
  _atom_site_fract_z
  _atom_site_occupancy
  Br  Br1       1.0  0.7504851222038269  0.8071957230567932  0.21815791726112366  1.0000
  Br  Br2       1.0  0.2643510401248932  0.059568144381046295  0.34003371000289917  1.0000
  Co  Co1       1.0  0.7602558135986328  0.7714410424232483  0.8385842442512512  1.0000
  H   H1        1.0  0.2508048117160797  0.7472418546676636  0.8070160150527954  1.0000
  H   H2        1.0  0.26808229088783264  0.9154345393180847  0.4015484154224396  1.0000
  H   H3        1.0  0.24612383544445038  0.2741911709308624  0.5542939901351929  1.0000
  H   H4        1.0  0.770743727684021  0.06661861389875412  0.34438949823379517  1.0000
  H   H5        1.0  0.27198368310928345  0.044728834182024  0.08589901775121689  1.0000
  H   H6        1.0  0.7548732757568359  0.2127961814403534  0.09549044072628021  1.0000
  Pb  Pb1       1.0  0.24504415690898895  0.6732797026634216  0.14667975902557373  1.0000
  Pt  Pt1       1.0  0.254146933555603  0.6550445556640625  0.5234012007713318  1.0000
  Pt  Pt2       1.0  0.761770486831665  0.8774941563606262  0.5879738926887512  1.0000
  Pt  Pt3       1.0  0.2587164044380188  0.34415268898010254  0.6061898469924927  1.0000
