data_image0
_chemical_formula_structural       CCo2GeH4HoPbPrPtU
_chemical_formula_sum              "C1 Co2 Ge1 H4 Ho1 Pb1 Pr1 Pt1 U1"
_cell_length_a       5.869419818131957
_cell_length_b       5.704199471310937
_cell_length_c       6.248300552368164
_cell_angle_alpha    86.77314733427716
_cell_angle_beta     85.31833441835018
_cell_angle_gamma    84.26832790357503

_space_group_name_H-M_alt    "P 1"
_space_group_IT_number       1

loop_
  _space_group_symop_operation_xyz
  'x, y, z'

loop_
  _atom_site_type_symbol
  _atom_site_label
  _atom_site_symmetry_multiplicity
  _atom_site_fract_x
  _atom_site_fract_y
  _atom_site_fract_z
  _atom_site_occupancy
  C   C1        1.0  0.6455798149108887  0.304467111825943  0.8644049167633057  1.0000
  Co  Co1       1.0  0.6460664868354797  0.31376782059669495  0.4789331555366516  1.0000
  Co  Co2       1.0  0.6456503868103027  0.8451470136642456  0.41873499751091003  1.0000
  Ge  Ge1       1.0  0.1448441594839096  0.5104069709777832  0.15712247788906097  1.0000
  H   H1        1.0  0.6438876390457153  0.35199517011642456  0.41309309005737305  1.0000
  H   H2        1.0  0.14240503311157227  0.5890924334526062  0.6079843640327454  1.0000
  H   H3        1.0  0.1480182409286499  0.5294104814529419  0.34924882650375366  1.0000
  H   H4        1.0  0.13899794220924377  0.27418023347854614  0.20934130251407623  1.0000
  Ho  Ho1       1.0  0.14665262401103973  0.33849987387657166  0.4815824329853058  1.0000
  Pb  Pb1       1.0  0.1447745114564896  0.9312551021575927  0.7903436422348022  1.0000
  Pr  Pr1       1.0  0.14320573210716248  0.7915453910827637  0.7898827195167542  1.0000
  Pt  Pt1       1.0  0.6443851590156555  0.42138975858688354  0.21721503138542175  1.0000
  U   U1        1.0  0.645104169845581  0.416133314371109  0.7106202244758606  1.0000
