data_image0
_chemical_formula_structural       Br3H3N2Pt3RuS
_chemical_formula_sum              "Br3 H3 N2 Pt3 Ru1 S1"
_cell_length_a       6.438305108040259
_cell_length_b       5.483837575033585
_cell_length_c       6.2848615646362305
_cell_angle_alpha    92.71220834552308
_cell_angle_beta     85.45201397629769
_cell_angle_gamma    85.41249677441357

_space_group_name_H-M_alt    "P 1"
_space_group_IT_number       1

loop_
  _space_group_symop_operation_xyz
  'x, y, z'

loop_
  _atom_site_type_symbol
  _atom_site_label
  _atom_site_symmetry_multiplicity
  _atom_site_fract_x
  _atom_site_fract_y
  _atom_site_fract_z
  _atom_site_occupancy
  Br  Br1       1.0  0.7512896656990051  0.6608239412307739  0.7260017395019531  1.0000
  Br  Br2       1.0  0.24352149665355682  0.823277473449707  0.5369006395339966  1.0000
  Br  Br3       1.0  0.7540642023086548  0.3046850562095642  0.0730552151799202  1.0000
  H   H1        1.0  0.23557446897029877  0.055690862238407135  0.3998657464981079  1.0000
  H   H2        1.0  0.22234798967838287  0.1535423845052719  0.793417751789093  1.0000
  H   H3        1.0  0.2846527397632599  0.5364452004432678  0.8938465118408203  1.0000
  N   N1        1.0  0.7847524285316467  0.020030781626701355  0.6306651234626771  1.0000
  N   N2        1.0  0.771838903427124  0.6389340162277222  0.6493246555328369  1.0000
  Pt  Pt1       1.0  0.3475293815135956  0.23626531660556793  0.5576463341712952  1.0000
  Pt  Pt2       1.0  0.3210732340812683  0.5370914936065674  0.9030686020851135  1.0000
  Pt  Pt3       1.0  0.24146342277526855  0.2840595543384552  0.9126478433609009  1.0000
  Ru  Ru1       1.0  0.7445964217185974  0.7060345411300659  0.8338146209716797  1.0000
  S   S1        1.0  0.7385901212692261  0.5874216556549072  0.35603347420692444  1.0000
