data_image0
_chemical_formula_structural       Br3H3HoN3Pt2Te
_chemical_formula_sum              "Br3 H3 Ho1 N3 Pt2 Te1"
_cell_length_a       7.479962306563457
_cell_length_b       7.520449297134916
_cell_length_c       7.899320125579834
_cell_angle_alpha    62.94280863121582
_cell_angle_beta     63.13536449246422
_cell_angle_gamma    60.81240274963144

_space_group_name_H-M_alt    "P 1"
_space_group_IT_number       1

loop_
  _space_group_symop_operation_xyz
  'x, y, z'

loop_
  _atom_site_type_symbol
  _atom_site_label
  _atom_site_symmetry_multiplicity
  _atom_site_fract_x
  _atom_site_fract_y
  _atom_site_fract_z
  _atom_site_occupancy
  Br  Br1       1.0  0.5681703090667725  0.4938126802444458  0.10498577356338501  1.0000
  Br  Br2       1.0  0.25856900215148926  0.30994436144828796  0.9211780428886414  1.0000
  Br  Br3       1.0  0.5243386030197144  0.992003321647644  0.3474745750427246  1.0000
  H   H1        1.0  0.5027385950088501  0.16015766561031342  0.6108368635177612  1.0000
  H   H2        1.0  0.21631161868572235  0.9615503549575806  0.6337409019470215  1.0000
  H   H3        1.0  0.07859088480472565  0.6371052265167236  0.7328671813011169  1.0000
  Ho  Ho1       1.0  0.02139589749276638  0.1295718401670456  0.009240362793207169  1.0000
  N   N1        1.0  0.06544812023639679  0.45209062099456787  0.558371901512146  1.0000
  N   N2        1.0  0.09509824961423874  0.982367217540741  0.489755779504776  1.0000
  N   N3        1.0  0.6128450036048889  0.824516773223877  0.3219616413116455  1.0000
  Pt  Pt1       1.0  0.5697711110115051  0.9369059205055237  0.026013333350419998  1.0000
  Pt  Pt2       1.0  0.5135168433189392  0.44845470786094666  0.30655139684677124  1.0000
  Te  Te1       1.0  0.5689833760261536  0.48473599553108215  0.6300647258758545  1.0000
