data_image0
_chemical_formula_structural       ClGe6IMgTbTm
_chemical_formula_sum              "Cl1 Ge6 I1 Mg1 Tb1 Tm1"
_cell_length_a       6.304037558671483
_cell_length_b       6.599516320467084
_cell_length_c       6.920480728149414
_cell_angle_alpha    89.63651395266999
_cell_angle_beta     88.59795937691642
_cell_angle_gamma    90.16024262845983

_space_group_name_H-M_alt    "P 1"
_space_group_IT_number       1

loop_
  _space_group_symop_operation_xyz
  'x, y, z'

loop_
  _atom_site_type_symbol
  _atom_site_label
  _atom_site_symmetry_multiplicity
  _atom_site_fract_x
  _atom_site_fract_y
  _atom_site_fract_z
  _atom_site_occupancy
  Cl  Cl1       1.0  0.051530856639146805  0.8546431064605713  0.6415497660636903  1.0000
  Ge  Ge1       1.0  0.9867778420448303  0.6134861707687378  0.3149272501468659  1.0000
  Ge  Ge2       1.0  0.5040900707244873  0.8064994215965271  0.8203729391098024  1.0000
  Ge  Ge3       1.0  0.008901646360754967  0.7882245182991028  0.7372766733169557  1.0000
  Ge  Ge4       1.0  0.04143446683883667  0.4436807632446289  0.09567148983478548  1.0000
  Ge  Ge5       1.0  0.5198279023170471  0.8401806950569153  0.6984581351280214  1.0000
  Ge  Ge6       1.0  0.5585724115371704  0.45100539922714233  0.60679692029953  1.0000
  I   I1        1.0  0.465994656085968  0.2347272485494614  0.5440231561660767  1.0000
  Mg  Mg1       1.0  0.5112860202789307  0.28514331579208374  0.2987761199474334  1.0000
  Tb  Tb1       1.0  0.6009907722473145  0.06571874022483826  0.6074221134185791  1.0000
  Tm  Tm1       1.0  0.014756492339074612  0.41397273540496826  0.7866956591606141  1.0000
