data_image0
_chemical_formula_structural       AsCoGaGe4PPbTbZn
_chemical_formula_sum              "As1 Co1 Ga1 Ge4 P1 Pb1 Tb1 Zn1"
_cell_length_a       5.884536839654851
_cell_length_b       5.960812317424117
_cell_length_c       5.661855697631836
_cell_angle_alpha    46.00388891827786
_cell_angle_beta     64.90409763332886
_cell_angle_gamma    64.60462640162329

_space_group_name_H-M_alt    "P 1"
_space_group_IT_number       1

loop_
  _space_group_symop_operation_xyz
  'x, y, z'

loop_
  _atom_site_type_symbol
  _atom_site_label
  _atom_site_symmetry_multiplicity
  _atom_site_fract_x
  _atom_site_fract_y
  _atom_site_fract_z
  _atom_site_occupancy
  As  As1       1.0  0.4672788381576538  0.16573406755924225  0.42934861779212957  1.0000
  Co  Co1       1.0  0.9002725481987  0.39450040459632874  0.4787513911724091  1.0000
  Ga  Ga1       1.0  0.036283306777477264  0.08814755827188492  0.019162174314260483  1.0000
  Ge  Ge1       1.0  0.6233665347099304  0.4253472685813904  0.024566257372498516  1.0000
  Ge  Ge2       1.0  0.47970107197761536  0.9880977869033813  0.24398559331893924  1.0000
  Ge  Ge3       1.0  0.0753842443227768  0.7371532320976257  0.5885409116744995  1.0000
  Ge  Ge4       1.0  0.6361193060874939  0.34263280034065247  0.20509311556816104  1.0000
  P   P1        1.0  0.49931809306144714  0.07203572243452072  0.6169847249984741  1.0000
  Pb  Pb1       1.0  0.554653525352478  0.6519160866737366  0.6130537986755371  1.0000
  Tb  Tb1       1.0  0.2090775966644287  0.35933738946914673  0.8322502374649049  1.0000
  Zn  Zn1       1.0  0.4787730574607849  0.8126781582832336  0.9728664755821229  1.0000
