data_image0
_chemical_formula_structural       Cl2Ge7PbTm
_chemical_formula_sum              "Cl2 Ge7 Pb1 Tm1"
_cell_length_a       5.563472495248836
_cell_length_b       5.355566394841653
_cell_length_c       6.573139667510986
_cell_angle_alpha    90.08748784145081
_cell_angle_beta     91.21505495772888
_cell_angle_gamma    97.50966995878805

_space_group_name_H-M_alt    "P 1"
_space_group_IT_number       1

loop_
  _space_group_symop_operation_xyz
  'x, y, z'

loop_
  _atom_site_type_symbol
  _atom_site_label
  _atom_site_symmetry_multiplicity
  _atom_site_fract_x
  _atom_site_fract_y
  _atom_site_fract_z
  _atom_site_occupancy
  Cl  Cl1       1.0  0.02325955405831337  0.31939369440078735  0.4391815066337585  1.0000
  Cl  Cl2       1.0  0.9779168367385864  0.6082826256752014  0.6082693934440613  1.0000
  Ge  Ge1       1.0  0.5187639594078064  0.013849223032593727  0.9191423058509826  1.0000
  Ge  Ge2       1.0  0.8166390657424927  0.7796995043754578  0.9340498447418212  1.0000
  Ge  Ge3       1.0  0.017393339425325394  0.8400030732154846  0.9543437957763671  1.0000
  Ge  Ge4       1.0  0.5103438496589661  0.8461307287216187  0.03158612176775932  1.0000
  Ge  Ge5       1.0  0.4928811192512512  0.45492205023765564  0.4811975955963134  1.0000
  Ge  Ge6       1.0  0.4997556209564209  0.8327666521072388  0.6231784820556641  1.0000
  Ge  Ge7       1.0  0.9997392296791077  0.3208298981189728  0.10424683988094328  1.0000
  Pb  Pb1       1.0  0.5078443884849548  0.6190946102142334  0.15091931819915771  1.0000
  Tm  Tm1       1.0  0.266967236995697  0.3678404986858368  0.13410580158233643  1.0000
