data_image0
_chemical_formula_structural       Ge3Ni2SeTm5
_chemical_formula_sum              "Ge3 Ni2 Se1 Tm5"
_cell_length_a       5.795566228258703
_cell_length_b       5.804183398129251
_cell_length_c       5.9439167976379395
_cell_angle_alpha    87.58771679680294
_cell_angle_beta     89.58015525350983
_cell_angle_gamma    97.84107423223097

_space_group_name_H-M_alt    "P 1"
_space_group_IT_number       1

loop_
  _space_group_symop_operation_xyz
  'x, y, z'

loop_
  _atom_site_type_symbol
  _atom_site_label
  _atom_site_symmetry_multiplicity
  _atom_site_fract_x
  _atom_site_fract_y
  _atom_site_fract_z
  _atom_site_occupancy
  Ge  Ge1       1.0  0.9700433015823364  0.9651028513908387  0.0746966004371643  1.0000
  Ge  Ge2       1.0  0.4863496720790863  0.7724321484565735  0.4396275281906128  1.0000
  Ge  Ge3       1.0  0.9824235439300537  0.828096330165863  0.564695417881012  1.0000
  Ni  Ni1       1.0  0.4377024471759796  0.79953533411026  0.873956561088562  1.0000
  Ni  Ni2       1.0  0.46518540382385254  0.20333150029182434  0.33388009667396545  1.0000
  Se  Se1       1.0  0.9957499504089355  0.8722386956214905  0.4128147065639496  1.0000
  Tm  Tm1       1.0  0.45370203256607056  0.5095347762107849  0.8636565208435059  1.0000
  Tm  Tm2       1.0  0.4802377223968506  0.8234350681304932  0.24097713828086853  1.0000
  Tm  Tm3       1.0  0.9799959063529968  0.3538663685321808  0.6263288259506226  1.0000
  Tm  Tm4       1.0  0.9784883260726929  0.3072402775287628  0.1532818228006363  1.0000
  Tm  Tm5       1.0  0.9881645441055298  0.40941762924194336  0.7507567405700684  1.0000
