data_image0
_chemical_formula_structural       GeNi4SeTm5
_chemical_formula_sum              "Ge1 Ni4 Se1 Tm5"
_cell_length_a       5.2217466590224095
_cell_length_b       5.016315951012104
_cell_length_c       5.211542129516602
_cell_angle_alpha    82.11247861961999
_cell_angle_beta     86.84088550838021
_cell_angle_gamma    90.68973160365933

_space_group_name_H-M_alt    "P 1"
_space_group_IT_number       1

loop_
  _space_group_symop_operation_xyz
  'x, y, z'

loop_
  _atom_site_type_symbol
  _atom_site_label
  _atom_site_symmetry_multiplicity
  _atom_site_fract_x
  _atom_site_fract_y
  _atom_site_fract_z
  _atom_site_occupancy
  Ge  Ge1       1.0  0.8916515707969666  0.24262994527816772  0.9661886692047118  1.0000
  Ni  Ni1       1.0  0.39587801694869995  0.35941073298454285  0.11913628131151198  1.0000
  Ni  Ni2       1.0  0.8616509437561035  0.3066653609275818  0.9914859533309935  1.0000
  Ni  Ni3       1.0  0.8899375796318054  0.8905383348464966  0.32251614332199097  1.0000
  Ni  Ni4       1.0  0.8991929888725281  0.19535882771015167  0.06366357207298279  1.0000
  Se  Se1       1.0  0.4083820879459381  0.9590527415275574  0.48670399188995356  1.0000
  Tm  Tm1       1.0  0.8797531723976135  0.5946687459945679  0.9843901991844176  1.0000
  Tm  Tm2       1.0  0.11477185040712357  0.016587361693382263  0.5012121796607971  1.0000
  Tm  Tm3       1.0  0.14922617375850677  0.08164960145950317  0.6707051396369934  1.0000
  Tm  Tm4       1.0  0.8972994089126587  0.7369230389595032  0.12401355057954787  1.0000
  Tm  Tm5       1.0  0.408947616815567  0.9973534941673279  0.3749806582927704  1.0000
