data_image0
_chemical_formula_structural       ClCoGe6NiPbZn
_chemical_formula_sum              "Cl1 Co1 Ge6 Ni1 Pb1 Zn1"
_cell_length_a       5.506326921059195
_cell_length_b       6.158565686676844
_cell_length_c       6.5338897705078125
_cell_angle_alpha    61.768250201927565
_cell_angle_beta     67.17072134683532
_cell_angle_gamma    67.20579178359866

_space_group_name_H-M_alt    "P 1"
_space_group_IT_number       1

loop_
  _space_group_symop_operation_xyz
  'x, y, z'

loop_
  _atom_site_type_symbol
  _atom_site_label
  _atom_site_symmetry_multiplicity
  _atom_site_fract_x
  _atom_site_fract_y
  _atom_site_fract_z
  _atom_site_occupancy
  Cl  Cl1       1.0  0.03930622711777687  0.23046091198921204  0.1935596615076065  1.0000
  Co  Co1       1.0  0.8007670044898987  0.8416051268577576  0.718829870223999  1.0000
  Ge  Ge1       1.0  0.4781117439270019  0.9070956110954285  0.0813000500202179  1.0000
  Ge  Ge2       1.0  0.4852167069911956  0.7560599446296692  0.6545208692550659  1.0000
  Ge  Ge3       1.0  0.5063796043395996  0.9997971653938293  0.7936689853668213  1.0000
  Ge  Ge4       1.0  0.5621054768562317  0.6432687640190125  0.749765932559967  1.0000
  Ge  Ge5       1.0  0.01751575991511345  0.7732766270637512  0.3486584424972534  1.0000
  Ge  Ge6       1.0  0.3696761727333069  0.20496238768100739  0.36390623450279236  1.0000
  Ni  Ni1       1.0  0.9951664805412291  0.7532677054405212  0.08245856314897537  1.0000
  Pb  Pb1       1.0  0.14347857236862183  0.8901768326759338  0.717919111251831  1.0000
  Zn  Zn1       1.0  0.02535592019557953  0.26617997884750366  0.22415725886821747  1.0000
