data_image0
_chemical_formula_structural       Al2Cd3DyMoPt
_chemical_formula_sum              "Al2 Cd3 Dy1 Mo1 Pt1"
_cell_length_a       5.46860559017742
_cell_length_b       5.489861886179358
_cell_length_c       7.1520256996154785
_cell_angle_alpha    104.9617653524331
_cell_angle_beta     90.02566589012193
_cell_angle_gamma    92.17995381343742

_space_group_name_H-M_alt    "P 1"
_space_group_IT_number       1

loop_
  _space_group_symop_operation_xyz
  'x, y, z'

loop_
  _atom_site_type_symbol
  _atom_site_label
  _atom_site_symmetry_multiplicity
  _atom_site_fract_x
  _atom_site_fract_y
  _atom_site_fract_z
  _atom_site_occupancy
  Al  Al1       1.0  0.04502104967832565  0.783970832824707  0.6451020836830139  1.0000
  Al  Al2       1.0  0.04906002804636955  0.6886074542999268  0.3996682465076446  1.0000
  Cd  Cd1       1.0  0.5548336505889893  0.8711864352226257  0.4414029717445373  1.0000
  Cd  Cd2       1.0  0.05214722082018852  0.6178430318832397  0.9572239518165587  1.0000
  Cd  Cd3       1.0  0.808436393737793  0.48425087332725525  0.9220301508903502  1.0000
  Dy  Dy1       1.0  0.5726967453956604  0.2711627185344696  0.5770143270492554  1.0000
  Mo  Mo1       1.0  0.06252632290124893  0.29850706458091736  0.31180620193481445  1.0000
  Pt  Pt1       1.0  0.2840535044670105  0.0354304201900959  0.07897277921438217  1.0000
