data_image0
_chemical_formula_structural       Al3Cd4Ge
_chemical_formula_sum              "Al3 Cd4 Ge1"
_cell_length_a       5.3763929926642025
_cell_length_b       4.9880491063452075
_cell_length_c       7.215155601501465
_cell_angle_alpha    100.09283524330431
_cell_angle_beta     90.34745267873781
_cell_angle_gamma    93.55700228828198

_space_group_name_H-M_alt    "P 1"
_space_group_IT_number       1

loop_
  _space_group_symop_operation_xyz
  'x, y, z'

loop_
  _atom_site_type_symbol
  _atom_site_label
  _atom_site_symmetry_multiplicity
  _atom_site_fract_x
  _atom_site_fract_y
  _atom_site_fract_z
  _atom_site_occupancy
  Al  Al1       1.0  0.7850990891456604  0.3616856634616852  0.8452337384223939  1.0000
  Al  Al2       1.0  0.8053709864616394  0.9153709411621094  0.9981908202171327  1.0000
  Al  Al3       1.0  0.7888607382774353  0.34181252121925354  0.4038752913475037  1.0000
  Cd  Cd1       1.0  0.3018260896205902  0.6479610204696655  0.9327388405799867  1.0000
  Cd  Cd2       1.0  0.8030046820640564  0.9699216485023499  0.43450009822845465  1.0000
  Cd  Cd3       1.0  0.8000620603561401  0.5580311417579651  0.6017556190490723  1.0000
  Cd  Cd4       1.0  0.30103421211242676  0.5783509612083435  0.6861075758934021  1.0000
  Ge  Ge1       1.0  0.30511364340782166  0.796735405921936  0.3001842796802521  1.0000
