data_image0
_chemical_formula_structural       Al3Cd4Dy
_chemical_formula_sum              "Al3 Cd4 Dy1"
_cell_length_a       5.859980087479842
_cell_length_b       6.287585172996183
_cell_length_c       6.244361400604248
_cell_angle_alpha    69.02915002353322
_cell_angle_beta     66.6331572752699
_cell_angle_gamma    68.21924059721641

_space_group_name_H-M_alt    "P 1"
_space_group_IT_number       1

loop_
  _space_group_symop_operation_xyz
  'x, y, z'

loop_
  _atom_site_type_symbol
  _atom_site_label
  _atom_site_symmetry_multiplicity
  _atom_site_fract_x
  _atom_site_fract_y
  _atom_site_fract_z
  _atom_site_occupancy
  Al  Al1       1.0  0.7925881743431091  0.48211291432380676  0.8602788448333739  1.0000
  Al  Al2       1.0  0.36028921604156494  0.5712632536888123  0.4134595096111297  1.0000
  Al  Al3       1.0  0.4970912039279937  0.8686602115631104  0.272503137588501  1.0000
  Cd  Cd1       1.0  0.9769588708877562  0.06191866844892501  0.7999624609947203  1.0000
  Cd  Cd2       1.0  0.46817499399185175  0.09575856477022171  0.737135350704193  1.0000
  Cd  Cd3       1.0  0.5791460871696472  0.5249744653701782  0.1289598047733307  1.0000
  Cd  Cd4       1.0  0.6699581742286682  0.8703291416168213  0.3986274600028991  1.0000
  Dy  Dy1       1.0  0.5725541710853577  0.74749356508255  0.6625562906265259  1.0000
