data_image0
_chemical_formula_structural       Al2Cd6
_chemical_formula_sum              "Al2 Cd6"
_cell_length_a       5.051851209169761
_cell_length_b       4.571133883667798
_cell_length_c       4.6452202796936035
_cell_angle_alpha    91.6381930968018
_cell_angle_beta     89.63764872340788
_cell_angle_gamma    91.74252117737707

_space_group_name_H-M_alt    "P 1"
_space_group_IT_number       1

loop_
  _space_group_symop_operation_xyz
  'x, y, z'

loop_
  _atom_site_type_symbol
  _atom_site_label
  _atom_site_symmetry_multiplicity
  _atom_site_fract_x
  _atom_site_fract_y
  _atom_site_fract_z
  _atom_site_occupancy
  Al  Al1       1.0  0.6214791536331177  0.38459891080856323  0.21385103464126587  1.0000
  Al  Al2       1.0  0.9751851558685303  0.8242658972740173  0.02729852870106697  1.0000
  Cd  Cd1       1.0  0.5321470499038696  0.6540443301200867  0.7862286567687988  1.0000
  Cd  Cd2       1.0  0.6543452143669128  0.4606581926345825  0.029841851443052292  1.0000
  Cd  Cd3       1.0  0.15384624898433685  0.9540000557899475  0.6020279526710511  1.0000
  Cd  Cd4       1.0  0.3640000522136688  0.8795941472053528  0.9836021065711976  1.0000
  Cd  Cd5       1.0  0.13837914168834686  0.9100834131240845  0.5984660387039186  1.0000
  Cd  Cd6       1.0  0.9995598196983337  0.26540401577949524  0.3071640133857727  1.0000
