data_image0
_chemical_formula_structural       Al2Cd6
_chemical_formula_sum              "Al2 Cd6"
_cell_length_a       5.751385598407443
_cell_length_b       5.2685063873518905
_cell_length_c       5.116583824157715
_cell_angle_alpha    92.3510367905731
_cell_angle_beta     87.82033177218958
_cell_angle_gamma    91.01318433505062

_space_group_name_H-M_alt    "P 1"
_space_group_IT_number       1

loop_
  _space_group_symop_operation_xyz
  'x, y, z'

loop_
  _atom_site_type_symbol
  _atom_site_label
  _atom_site_symmetry_multiplicity
  _atom_site_fract_x
  _atom_site_fract_y
  _atom_site_fract_z
  _atom_site_occupancy
  Al  Al1       1.0  0.38614019751548767  0.33764269948005676  0.8816900253295898  1.0000
  Al  Al2       1.0  0.7379968762397766  0.1786605715751648  0.3906116187572479  1.0000
  Cd  Cd1       1.0  0.3899606466293335  0.8502728343009949  0.9636058807373048  1.0000
  Cd  Cd2       1.0  0.893484890460968  0.5614526867866516  0.35217341780662537  1.0000
  Cd  Cd3       1.0  0.8822141885757446  0.8407896161079407  0.23374867439270022  1.0000
  Cd  Cd4       1.0  0.3903684914112091  0.8530867099761963  0.430814653635025  1.0000
  Cd  Cd5       1.0  0.8780938386917114  0.5851616263389587  0.24880462884902957  1.0000
  Cd  Cd6       1.0  0.39268919825553894  0.5050508975982666  0.5918959975242615  1.0000
