data_image0
_chemical_formula_structural       Ni2OPrS4Zn
_chemical_formula_sum              "Ni2 O1 Pr1 S4 Zn1"
_cell_length_a       4.06698232981495
_cell_length_b       7.439233968534403
_cell_length_c       7.516111373901367
_cell_angle_alpha    116.9429194071958
_cell_angle_beta     90.49017762369165
_cell_angle_gamma    87.96340663758546

_space_group_name_H-M_alt    "P 1"
_space_group_IT_number       1

loop_
  _space_group_symop_operation_xyz
  'x, y, z'

loop_
  _atom_site_type_symbol
  _atom_site_label
  _atom_site_symmetry_multiplicity
  _atom_site_fract_x
  _atom_site_fract_y
  _atom_site_fract_z
  _atom_site_occupancy
  Ni  Ni1       1.0  0.2969234883785248  0.8902905583381653  0.7923821210861205  1.0000
  Ni  Ni2       1.0  0.7991935610771179  0.2504376769065857  0.012459545396268352  1.0000
  O   O1        1.0  0.28745418787002563  0.46259236335754395  0.13723310828208918  1.0000
  Pr  Pr1       1.0  0.7960158586502075  0.7773769497871399  0.30314996838569636  1.0000
  S   S1        1.0  0.3148192763328552  0.7584812045097351  0.7034080028533934  1.0000
  S   S2        1.0  0.31206437945365906  0.47039365768432617  0.060201849788427346  1.0000
  S   S3        1.0  0.31546279788017273  0.7214298248291016  0.6470366120338439  1.0000
  S   S4        1.0  0.8108794093132019  0.024797853082418442  0.20486377179622647  1.0000
  Zn  Zn1       1.0  0.31475934386253357  0.19798137247562408  0.2125642895698547  1.0000
