data_image0
_chemical_formula_structural       BaNi2P2S3Zn
_chemical_formula_sum              "Ba1 Ni2 P2 S3 Zn1"
_cell_length_a       4.9580903283061115
_cell_length_b       5.354480727931307
_cell_length_c       7.101061820983887
_cell_angle_alpha    79.17586709778764
_cell_angle_beta     70.10157341383083
_cell_angle_gamma    60.09015825025738

_space_group_name_H-M_alt    "P 1"
_space_group_IT_number       1

loop_
  _space_group_symop_operation_xyz
  'x, y, z'

loop_
  _atom_site_type_symbol
  _atom_site_label
  _atom_site_symmetry_multiplicity
  _atom_site_fract_x
  _atom_site_fract_y
  _atom_site_fract_z
  _atom_site_occupancy
  Ba  Ba1       1.0  0.3134264647960663  0.34067681431770325  0.22174768149852753  1.0000
  Ni  Ni1       1.0  0.13532128930091858  0.7137709856033325  0.4491538405418396  1.0000
  Ni  Ni2       1.0  0.06033286079764366  0.36460331082344055  0.29297900199890137  1.0000
  P   P1        1.0  0.34805819392204285  0.3235410153865814  0.5886642932891846  1.0000
  P   P2        1.0  0.9558704495429993  0.04768483340740204  0.5380818843841553  1.0000
  S   S1        1.0  0.7281365990638733  0.6730839610099792  0.019054671749472618  1.0000
  S   S2        1.0  0.46015480160713196  0.4979962110519409  0.4165247976779938  1.0000
  S   S3        1.0  0.43345311284065247  0.02945995330810547  0.5330703854560852  1.0000
  Zn  Zn1       1.0  0.05819148197770119  0.03429931029677391  0.8160094618797302  1.0000
