data_image0
_chemical_formula_structural       GdP2PdPrS3Zr
_chemical_formula_sum              "Gd1 P2 Pd1 Pr1 S3 Zr1"
_cell_length_a       4.778098691615527
_cell_length_b       7.742741982365217
_cell_length_c       8.051140785217285
_cell_angle_alpha    118.3991597496078
_cell_angle_beta     95.00855968261243
_cell_angle_gamma    89.5883704805424

_space_group_name_H-M_alt    "P 1"
_space_group_IT_number       1

loop_
  _space_group_symop_operation_xyz
  'x, y, z'

loop_
  _atom_site_type_symbol
  _atom_site_label
  _atom_site_symmetry_multiplicity
  _atom_site_fract_x
  _atom_site_fract_y
  _atom_site_fract_z
  _atom_site_occupancy
  Gd  Gd1       1.0  0.282987117767334  0.24499492347240445  0.021235410124063492  1.0000
  P   P1        1.0  0.974434196949005  0.3460196256637573  0.19944407045841217  1.0000
  P   P2        1.0  0.7702202796936035  0.6003838777542114  0.2134581059217453  1.0000
  Pd  Pd1       1.0  0.7572586536407471  0.8212022185325621  0.33221563696861267  1.0000
  Pr  Pr1       1.0  0.2559031546115875  0.8190314173698424  0.6444170475006104  1.0000
  S   S1        1.0  0.9929426312446593  0.02568908222019672  0.7285510897636414  1.0000
  S   S2        1.0  0.4803472161293029  0.12121818959712981  0.9025005102157593  1.0000
  S   S3        1.0  0.4813372194766998  0.2871086001396179  0.34920817613601685  1.0000
  Zr  Zr1       1.0  0.2870660722255707  0.5227473974227905  0.943733811378479  1.0000
