data_image0
_chemical_formula_structural       MnPr6S3Si
_chemical_formula_sum              "Mn1 Pr6 S3 Si1"
_cell_length_a       5.383356408987225
_cell_length_b       7.991178709042335
_cell_length_c       8.383584022521973
_cell_angle_alpha    118.40363896014622
_cell_angle_beta     90.73013496280348
_cell_angle_gamma    89.6083721415445

_space_group_name_H-M_alt    "P 1"
_space_group_IT_number       1

loop_
  _space_group_symop_operation_xyz
  'x, y, z'

loop_
  _atom_site_type_symbol
  _atom_site_label
  _atom_site_symmetry_multiplicity
  _atom_site_fract_x
  _atom_site_fract_y
  _atom_site_fract_z
  _atom_site_occupancy
  Mn  Mn1       1.0  0.057607829570770264  0.11549778282642363  0.012025778181850903  1.0000
  Pr  Pr1       1.0  0.553634524345398  0.4600346982479095  0.9195100665092468  1.0000
  Pr  Pr2       1.0  0.5553258657455444  0.481068730354309  0.9740724563598633  1.0000
  Pr  Pr3       1.0  0.05010877549648285  0.7803549170494078  0.4334371089935302  1.0000
  Pr  Pr4       1.0  0.5438364148139954  0.9201657772064208  0.8801141381263733  1.0000
  Pr  Pr5       1.0  0.04833437129855156  0.43803909420967096  0.23133471608161926  1.0000
  Pr  Pr6       1.0  0.04631759226322174  0.1983300596475601  0.3614569306373596  1.0000
  S   S1        1.0  0.5501988530158998  0.986181080341339  0.7794221043586731  1.0000
  S   S2        1.0  0.5562492609024048  0.2650585174560547  0.43414539098739624  1.0000
  S   S3        1.0  0.04982311651110649  0.960924744606018  0.24302060902118677  1.0000
  Si  Si1       1.0  0.038850147277116776  0.34281057119369507  0.1699879467487335  1.0000
