data_image0
_chemical_formula_structural       NiPr3S3Si4
_chemical_formula_sum              "Ni1 Pr3 S3 Si4"
_cell_length_a       5.199811525499232
_cell_length_b       7.516755853297401
_cell_length_c       7.833261966705322
_cell_angle_alpha    119.38879036707218
_cell_angle_beta     89.48055762718991
_cell_angle_gamma    89.30988899717389

_space_group_name_H-M_alt    "P 1"
_space_group_IT_number       1

loop_
  _space_group_symop_operation_xyz
  'x, y, z'

loop_
  _atom_site_type_symbol
  _atom_site_label
  _atom_site_symmetry_multiplicity
  _atom_site_fract_x
  _atom_site_fract_y
  _atom_site_fract_z
  _atom_site_occupancy
  Ni  Ni1       1.0  0.10656152665615082  0.09158134460449219  0.9381147027015686  1.0000
  Pr  Pr1       1.0  0.6150387525558472  0.3538060784339905  0.18717887997627258  1.0000
  Pr  Pr2       1.0  0.6040396690368652  0.8569629192352295  0.8624438047409058  1.0000
  Pr  Pr3       1.0  0.10175114125013351  0.3984238803386688  0.8539188504219055  1.0000
  S   S1        1.0  0.6038146018981934  0.5540820956230164  0.8433252573013306  1.0000
  S   S2        1.0  0.6086732745170593  0.6866586208343506  0.6950799822807312  1.0000
  S   S3        1.0  0.10512534528970718  0.9051209092140198  0.49286541342735296  1.0000
  Si  Si1       1.0  0.6021357178688049  0.4256095588207245  0.8367565870285035  1.0000
  Si  Si2       1.0  0.11030854284763336  0.8851140141487122  0.89239901304245  1.0000
  Si  Si3       1.0  0.6371724605560303  0.3504927456378937  0.37661921977996826  1.0000
  Si  Si4       1.0  0.3632846474647522  0.1409609615802765  0.6696721911430359  1.0000
