data_image0
_chemical_formula_structural       Al4PPr4Si2
_chemical_formula_sum              "Al4 P1 Pr4 Si2"
_cell_length_a       5.390222934944973
_cell_length_b       7.504051626955416
_cell_length_c       7.532503604888916
_cell_angle_alpha    121.72057331516731
_cell_angle_beta     89.76533778011633
_cell_angle_gamma    89.87581366702067

_space_group_name_H-M_alt    "P 1"
_space_group_IT_number       1

loop_
  _space_group_symop_operation_xyz
  'x, y, z'

loop_
  _atom_site_type_symbol
  _atom_site_label
  _atom_site_symmetry_multiplicity
  _atom_site_fract_x
  _atom_site_fract_y
  _atom_site_fract_z
  _atom_site_occupancy
  Al  Al1       1.0  0.9067279696464539  0.9947207570075989  0.3194868266582488  1.0000
  Al  Al2       1.0  0.4153578281402588  0.060930535197257996  0.7736973762512205  1.0000
  Al  Al3       1.0  0.4197468161582947  0.5635422468185425  0.7364899516105651  1.0000
  Al  Al4       1.0  0.9253931045532227  0.389290452003479  0.9450349807739257  1.0000
  P   P1        1.0  0.41886869072914124  0.5692844390869141  0.8800887465476989  1.0000
  Pr  Pr1       1.0  0.41961368918418884  0.22887401282787323  0.15586836636066437  1.0000
  Pr  Pr2       1.0  0.912032425403595  0.781183123588562  0.7972993254661559  1.0000
  Pr  Pr3       1.0  0.9233519434928894  0.20677851140499115  0.6634025573730469  1.0000
  Pr  Pr4       1.0  0.4214392900466919  0.7997920513153076  0.174376606941223  1.0000
  Si  Si1       1.0  0.9209056496620178  0.39290425181388855  0.5308027863502502  1.0000
  Si  Si2       1.0  0.9234419465065002  0.9240216612815857  0.5348712801933289  1.0000
