data_image0
_chemical_formula_structural       Al3Pr7S
_chemical_formula_sum              "Al3 Pr7 S1"
_cell_length_a       6.200474917332712
_cell_length_b       7.85822561132856
_cell_length_c       8.108630180358887
_cell_angle_alpha    120.41449995273265
_cell_angle_beta     89.5376473155867
_cell_angle_gamma    89.95943082468268

_space_group_name_H-M_alt    "P 1"
_space_group_IT_number       1

loop_
  _space_group_symop_operation_xyz
  'x, y, z'

loop_
  _atom_site_type_symbol
  _atom_site_label
  _atom_site_symmetry_multiplicity
  _atom_site_fract_x
  _atom_site_fract_y
  _atom_site_fract_z
  _atom_site_occupancy
  Al  Al1       1.0  0.6957693696022034  0.38483080267906183  0.15775847434997556  1.0000
  Al  Al2       1.0  0.6921623945236206  0.8618943691253661  0.7513268589973449  1.0000
  Al  Al3       1.0  0.04578694328665733  0.8996813893318175  0.18699394166469563  1.0000
  Pr  Pr1       1.0  0.7039861083030701  0.8080384135246276  0.45139637589454645  1.0000
  Pr  Pr2       1.0  0.2092975229024887  0.2497081011533737  0.7031218409538269  1.0000
  Pr  Pr3       1.0  0.1925693303346634  0.8813955783843993  0.6799206733703612  1.0000
  Pr  Pr4       1.0  0.6869115829467773  0.8928622007369994  0.702869713306427  1.0000
  Pr  Pr5       1.0  0.19663847982883453  0.5546926856040955  0.8437162637710571  1.0000
  Pr  Pr6       1.0  0.7071787118911743  0.24662977457046506  0.6484100818634033  1.0000
  Pr  Pr7       1.0  0.2004927098751068  0.30409568548202515  0.18990266323089594  1.0000
  S   S1        1.0  0.9271869659423827  0.6150394082069397  0.729979932308197  1.0000
