data_image0
_chemical_formula_structural       AlPr6S2Si2
_chemical_formula_sum              "Al1 Pr6 S2 Si2"
_cell_length_a       5.850368468884778
_cell_length_b       7.558299171555923
_cell_length_c       8.037172317504883
_cell_angle_alpha    118.8290808953029
_cell_angle_beta     96.25207939349487
_cell_angle_gamma    88.61672253157279

_space_group_name_H-M_alt    "P 1"
_space_group_IT_number       1

loop_
  _space_group_symop_operation_xyz
  'x, y, z'

loop_
  _atom_site_type_symbol
  _atom_site_label
  _atom_site_symmetry_multiplicity
  _atom_site_fract_x
  _atom_site_fract_y
  _atom_site_fract_z
  _atom_site_occupancy
  Al  Al1       1.0  0.3922030031681061  0.03208405524492264  0.5456135272979736  1.0000
  Pr  Pr1       1.0  0.15063267946243286  0.07650455087423325  0.5552303194999695  1.0000
  Pr  Pr2       1.0  0.15566347539424896  0.7399352192878724  0.22698251903057098  1.0000
  Pr  Pr3       1.0  0.9075787663459778  0.48551216721534735  0.737708568572998  1.0000
  Pr  Pr4       1.0  0.6466447710990906  0.295066773891449  0.23857297003269196  1.0000
  Pr  Pr5       1.0  0.4471132159233093  0.76048082113266  0.42682725191116333  1.0000
  Pr  Pr6       1.0  0.14985276758670807  0.255494087934494  0.7868895530700684  1.0000
  S   S1        1.0  0.13941633701324463  0.10056694597005846  0.3158688545227051  1.0000
  S   S2        1.0  0.38525062799453735  0.5588532090187073  0.5419148802757263  1.0000
  Si  Si1       1.0  0.6628631949424744  0.7949254512786866  0.5032414197921753  1.0000
  Si  Si2       1.0  0.6359224319458008  0.7851673364639283  0.7806069850921631  1.0000
