data_image0
_chemical_formula_structural       Al5DyFePr3Si
_chemical_formula_sum              "Al5 Dy1 Fe1 Pr3 Si1"
_cell_length_a       5.883875835566511
_cell_length_b       7.994751076890026
_cell_length_c       8.140352249145508
_cell_angle_alpha    120.95981136490524
_cell_angle_beta     89.68039371652328
_cell_angle_gamma    89.24401849757818

_space_group_name_H-M_alt    "P 1"
_space_group_IT_number       1

loop_
  _space_group_symop_operation_xyz
  'x, y, z'

loop_
  _atom_site_type_symbol
  _atom_site_label
  _atom_site_symmetry_multiplicity
  _atom_site_fract_x
  _atom_site_fract_y
  _atom_site_fract_z
  _atom_site_occupancy
  Al  Al1       1.0  0.02767624333500862  0.3242064118385315  0.09866832196712491  1.0000
  Al  Al2       1.0  0.8107767701148987  0.8988854289054872  0.8294877409934998  1.0000
  Al  Al3       1.0  0.2894079387187958  0.39483892917633057  0.7082865238189697  1.0000
  Al  Al4       1.0  0.5423303246498108  0.2919616103172302  0.95096755027771  1.0000
  Al  Al5       1.0  0.027600029483437538  0.5802468657493591  0.21655932068824768  1.0000
  Dy  Dy1       1.0  0.022954756394028664  0.03289061412215233  0.09399732202291489  1.0000
  Fe  Fe1       1.0  0.2832978069782257  0.05834887176752091  0.450165718793869  1.0000
  Pr  Pr1       1.0  0.5321807861328125  0.08232817053794861  0.19483526051044464  1.0000
  Pr  Pr2       1.0  0.5308237671852112  0.5113588571548462  0.19089367985725408  1.0000
  Pr  Pr3       1.0  0.03307129815220833  0.90640926361084  0.20257036387920374  1.0000
  Si  Si1       1.0  0.5309777855873108  0.5080286264419556  0.5207031965255737  1.0000
