data_image0
_chemical_formula_structural       AsCs5O3Se5
_chemical_formula_sum              "As1 Cs5 O3 Se5"
_cell_length_a       6.161881005870491
_cell_length_b       9.59982893910723
_cell_length_c       10.58525562286377
_cell_angle_alpha    120.59243613657154
_cell_angle_beta     89.75300221427642
_cell_angle_gamma    89.67804789184974

_space_group_name_H-M_alt    "P 1"
_space_group_IT_number       1

loop_
  _space_group_symop_operation_xyz
  'x, y, z'

loop_
  _atom_site_type_symbol
  _atom_site_label
  _atom_site_symmetry_multiplicity
  _atom_site_fract_x
  _atom_site_fract_y
  _atom_site_fract_z
  _atom_site_occupancy
  As  As1       1.0  0.8435347676277161  0.4675922095775604  0.9572489857673645  1.0000
  Cs  Cs1       1.0  0.3809176981449127  0.5204649567604065  0.6568164229393005  1.0000
  Cs  Cs2       1.0  0.3549087941646576  0.038601674139499664  0.14722351729869843  1.0000
  Cs  Cs3       1.0  0.35445070266723633  0.033145707100629807  0.3280608654022217  1.0000
  Cs  Cs4       1.0  0.8808648586273193  0.7763525247573853  0.3589252829551697  1.0000
  Cs  Cs5       1.0  0.8616897463798523  0.025185246020555496  0.7635008096694946  1.0000
  O   O1        1.0  0.6806459426879883  0.7794726490974426  0.6556129455566406  1.0000
  O   O2        1.0  0.166226327419281  0.9622939229011536  0.5629668831825256  1.0000
  O   O3        1.0  0.1822872906923294  0.2879244387149811  0.7616700530052185  1.0000
  Se  Se1       1.0  0.5756481885910034  0.7409117817878723  0.2797762155532837  1.0000
  Se  Se2       1.0  0.8884009122848511  0.9628835916519165  0.338604599237442  1.0000
  Se  Se3       1.0  0.6527863144874573  0.03970922902226448  0.8484967947006226  1.0000
  Se  Se4       1.0  0.3408326506614685  0.45783138275146484  0.44527754187583923  1.0000
  Se  Se5       1.0  0.8676732778549194  0.9870337843894958  0.21321065723896027  1.0000
