data_image0
_chemical_formula_structural       Cs6O3Se5
_chemical_formula_sum              "Cs6 O3 Se5"
_cell_length_a       6.047999917317948
_cell_length_b       8.719164602300749
_cell_length_c       10.075126647949219
_cell_angle_alpha    111.59394693833389
_cell_angle_beta     89.94370305075574
_cell_angle_gamma    102.62437999690808

_space_group_name_H-M_alt    "P 1"
_space_group_IT_number       1

loop_
  _space_group_symop_operation_xyz
  'x, y, z'

loop_
  _atom_site_type_symbol
  _atom_site_label
  _atom_site_symmetry_multiplicity
  _atom_site_fract_x
  _atom_site_fract_y
  _atom_site_fract_z
  _atom_site_occupancy
  Cs  Cs1       1.0  0.976883888244629  0.9243276715278625  0.14827774465084076  1.0000
  Cs  Cs2       1.0  0.7687355279922486  0.38295942544937134  0.7720485329627991  1.0000
  Cs  Cs3       1.0  0.27793148159980774  0.5199352502822876  0.7459890246391295  1.0000
  Cs  Cs4       1.0  0.4741739630699158  0.7895706295967102  0.43635448813438416  1.0000
  Cs  Cs5       1.0  0.4809811711311341  0.8543341159820557  0.5855000019073486  1.0000
  Cs  Cs6       1.0  0.2652004063129425  0.41062402725219727  0.9243096709251404  1.0000
  O   O1        1.0  0.9843831062316896  0.6250877380371094  0.6450023651123047  1.0000
  O   O2        1.0  0.9563305974006654  0.3934305012226105  0.9553480744361877  1.0000
  O   O3        1.0  0.46490022540092474  0.41269418597221375  0.9004029631614685  1.0000
  Se  Se1       1.0  0.7670599818229676  0.24024640023708344  0.6466008424758911  1.0000
  Se  Se2       1.0  0.2670391798019409  0.5007741451263428  0.2306775599718094  1.0000
  Se  Se3       1.0  0.4789480865001679  0.14256933331489563  0.5652311444282532  1.0000
  Se  Se4       1.0  0.9969540834426881  0.831916093826294  0.41179174184799194  1.0000
  Se  Se5       1.0  0.22868916392326358  0.37250789999961853  0.5695204734802246  1.0000
