data_image0
_chemical_formula_structural       Cs6O4Se4
_chemical_formula_sum              "Cs6 O4 Se4"
_cell_length_a       5.138165751006584
_cell_length_b       10.10460013929376
_cell_length_c       11.220697402954102
_cell_angle_alpha    119.58945583957522
_cell_angle_beta     89.27966506706672
_cell_angle_gamma    89.27014587373671

_space_group_name_H-M_alt    "P 1"
_space_group_IT_number       1

loop_
  _space_group_symop_operation_xyz
  'x, y, z'

loop_
  _atom_site_type_symbol
  _atom_site_label
  _atom_site_symmetry_multiplicity
  _atom_site_fract_x
  _atom_site_fract_y
  _atom_site_fract_z
  _atom_site_occupancy
  Cs  Cs1       1.0  0.9956137537956238  0.1438450962305069  0.6078698039054871  1.0000
  Cs  Cs2       1.0  0.495773583650589  0.4148457646369934  0.1564820110797882  1.0000
  Cs  Cs3       1.0  0.9972060322761536  0.007248002104461193  0.9525278210639954  1.0000
  Cs  Cs4       1.0  0.49748656153678894  0.7004683613777161  0.9577805399894714  1.0000
  Cs  Cs5       1.0  0.9952717423439026  0.7252746820449829  0.0978972464799881  1.0000
  Cs  Cs6       1.0  0.9945279955863953  0.6556519269943237  0.9670579433441162  1.0000
  O   O1        1.0  0.49268168210983276  0.7489824295043945  0.019645050168037376  1.0000
  O   O2        1.0  0.9821223616600037  0.2522903382778168  0.8733368515968323  1.0000
  O   O3        1.0  0.49200382828712463  0.9636450409889221  0.6560344696044921  1.0000
  O   O4        1.0  0.46052286028862  0.7255461812019348  0.16683118045330045  1.0000
  Se  Se1       1.0  0.5001358389854431  0.9651537537574768  0.4701840877532959  1.0000
  Se  Se2       1.0  0.4970661997795105  0.15835949778556824  0.7162203192710876  1.0000
  Se  Se3       1.0  0.9950198531150818  0.06374894827604294  0.5044453740119934  1.0000
  Se  Se4       1.0  0.9811522960662842  0.6652382016181946  0.8173377513885498  1.0000
