data_image0
_chemical_formula_structural       Cs9O2Se3
_chemical_formula_sum              "Cs9 O2 Se3"
_cell_length_a       5.3177710570288
_cell_length_b       10.320069386377554
_cell_length_c       13.360685348510742
_cell_angle_alpha    113.77657531373585
_cell_angle_beta     86.98350030273976
_cell_angle_gamma    89.35471254949765

_space_group_name_H-M_alt    "P 1"
_space_group_IT_number       1

loop_
  _space_group_symop_operation_xyz
  'x, y, z'

loop_
  _atom_site_type_symbol
  _atom_site_label
  _atom_site_symmetry_multiplicity
  _atom_site_fract_x
  _atom_site_fract_y
  _atom_site_fract_z
  _atom_site_occupancy
  Cs  Cs1       1.0  0.3774685263633728  0.6847950220108032  0.046615939587354625  1.0000
  Cs  Cs2       1.0  0.8821026086807251  0.18181274831295013  0.15226370096206665  1.0000
  Cs  Cs3       1.0  0.8786203265190125  0.9298359751701355  0.8724809885025024  1.0000
  Cs  Cs4       1.0  0.889396071434021  0.09345746040344238  0.6364021301269531  1.0000
  Cs  Cs5       1.0  0.3849409520626068  0.28326115012168884  0.20650939643383026  1.0000
  Cs  Cs6       1.0  0.38516002893447876  0.9328980445861816  0.34620457887649536  1.0000
  Cs  Cs7       1.0  0.8802148699760437  0.7608159184455872  0.6333197951316833  1.0000
  Cs  Cs8       1.0  0.3815575838088989  0.2289910912513733  0.9313690662384033  1.0000
  Cs  Cs9       1.0  0.3817117512226105  0.454599529504776  0.37129029631614685  1.0000
  O   O1        1.0  0.8844764828681946  0.9887970089912415  0.9040348529815674  1.0000
  O   O2        1.0  0.6874101161956787  0.6976819038391113  0.11742652952671048  1.0000
  Se  Se1       1.0  0.39137712121009827  0.9501714110374451  0.8725359439849854  1.0000
  Se  Se2       1.0  0.37418413162231445  0.9199003577232361  0.8779190182685852  1.0000
  Se  Se3       1.0  0.8891955614089966  0.3190647065639496  0.1090518534183502  1.0000
