data_image0
_chemical_formula_structural       AsCs2O3Se8
_chemical_formula_sum              "As1 Cs2 O3 Se8"
_cell_length_a       5.454212790723314
_cell_length_b       8.598504078060712
_cell_length_c       8.33443546295166
_cell_angle_alpha    121.95507208144271
_cell_angle_beta     85.66599988453257
_cell_angle_gamma    91.30618727998677

_space_group_name_H-M_alt    "P 1"
_space_group_IT_number       1

loop_
  _space_group_symop_operation_xyz
  'x, y, z'

loop_
  _atom_site_type_symbol
  _atom_site_label
  _atom_site_symmetry_multiplicity
  _atom_site_fract_x
  _atom_site_fract_y
  _atom_site_fract_z
  _atom_site_occupancy
  As  As1       1.0  0.2134522944688797  9.02414321899414e-05  0.5935485363006592  1.0000
  Cs  Cs1       1.0  0.731414258480072  0.14865683019161224  0.9976107478141785  1.0000
  Cs  Cs2       1.0  0.2346055656671524  0.7670082449913025  0.1979912966489792  1.0000
  O   O1        1.0  0.21127134561538696  0.9104401469230652  0.15471407771110524  1.0000
  O   O2        1.0  0.9883489012718201  0.16470639407634735  0.17109286785125732  1.0000
  O   O3        1.0  0.7252468466758728  0.5426351428031921  0.8409603834152222  1.0000
  Se  Se1       1.0  0.7289703488349915  0.15860231220722198  0.22016185522079468  1.0000
  Se  Se2       1.0  0.21428975462913513  0.221517875790596  0.5365018844604492  1.0000
  Se  Se3       1.0  0.2307659089565277  0.022555770352482796  0.6346753835678101  1.0000
  Se  Se4       1.0  0.7308779954910278  0.4683156907558441  0.48686861991882324  1.0000
  Se  Se5       1.0  0.2397359162569046  0.5302067995071411  0.8556392788887023  1.0000
  Se  Se6       1.0  0.7156832218170166  0.7155007123947144  0.9181488752365112  1.0000
  Se  Se7       1.0  0.2098022699356079  0.7124752998352051  0.9157770872116089  1.0000
  Se  Se8       1.0  0.724997878074646  0.6783972978591919  0.5876566171646118  1.0000
