data_image0
_chemical_formula_structural       CeCsO4Se8
_chemical_formula_sum              "Ce1 Cs1 O4 Se8"
_cell_length_a       4.645767640371421
_cell_length_b       7.863503184463813
_cell_length_c       8.110152244567871
_cell_angle_alpha    125.68337774867445
_cell_angle_beta     90.58848383049396
_cell_angle_gamma    89.57968781525315

_space_group_name_H-M_alt    "P 1"
_space_group_IT_number       1

loop_
  _space_group_symop_operation_xyz
  'x, y, z'

loop_
  _atom_site_type_symbol
  _atom_site_label
  _atom_site_symmetry_multiplicity
  _atom_site_fract_x
  _atom_site_fract_y
  _atom_site_fract_z
  _atom_site_occupancy
  Ce  Ce1       1.0  0.3449857234954834  0.780389904975891  0.5258708596229553  1.0000
  Cs  Cs1       1.0  0.3517502546310425  0.1729093790054321  0.10163138061761856  1.0000
  O   O1        1.0  0.8431136608123779  0.90555602312088  0.6941545009613037  1.0000
  O   O2        1.0  0.3512992858886719  0.07872690260410309  0.567051351070404  1.0000
  O   O3        1.0  0.3621385395526886  0.49217686057090754  0.3694692254066467  1.0000
  O   O4        1.0  0.35894075036048895  0.7512531876564025  0.7730053663253784  1.0000
  Se  Se1       1.0  0.37005117535591125  0.5019644498825073  0.23524732887744904  1.0000
  Se  Se2       1.0  0.8539616465568542  0.18737585842609403  0.4773319363594055  1.0000
  Se  Se3       1.0  0.8582937717437744  0.15381331741809845  0.9431049823760986  1.0000
  Se  Se4       1.0  0.8387860059738159  0.5493755340576172  0.5373843908309937  1.0000
  Se  Se5       1.0  0.848914384841919  0.9201771616935729  0.4737180173397064  1.0000
  Se  Se6       1.0  0.8490912914276123  0.19537618756294248  0.7779383063316345  1.0000
  Se  Se7       1.0  0.8667854070663452  0.5621874332427979  0.8078457117080688  1.0000
  Se  Se8       1.0  0.8377935290336609  0.5019315481185913  0.6189751625061035  1.0000
