data_image0
_chemical_formula_structural       AlNSc5Si4
_chemical_formula_sum              "Al1 N1 Sc5 Si4"
_cell_length_a       4.740332326761799
_cell_length_b       5.973552035471342
_cell_length_c       8.235883712768555
_cell_angle_alpha    112.30653635222178
_cell_angle_beta     102.8014370873385
_cell_angle_gamma    88.78968852622984

_space_group_name_H-M_alt    "P 1"
_space_group_IT_number       1

loop_
  _space_group_symop_operation_xyz
  'x, y, z'

loop_
  _atom_site_type_symbol
  _atom_site_label
  _atom_site_symmetry_multiplicity
  _atom_site_fract_x
  _atom_site_fract_y
  _atom_site_fract_z
  _atom_site_occupancy
  Al  Al1       1.0  0.14533783495426178  0.7154175639152527  0.3316337466239929  1.0000
  N   N1        1.0  0.810288667678833  0.4005703628063202  0.6781209707260132  1.0000
  Sc  Sc1       1.0  0.1533975601196289  0.6973384022712708  0.6194930672645569  1.0000
  Sc  Sc2       1.0  0.36276063323020935  0.8402879238128662  0.7912040948867798  1.0000
  Sc  Sc3       1.0  0.2265087366104126  0.039874330163002014  0.9573657512664795  1.0000
  Sc  Sc4       1.0  0.6868057250976562  0.2027670294046402  0.770857036113739  1.0000
  Sc  Sc5       1.0  0.6714512705802917  0.19552822411060333  0.8082096576690674  1.0000
  Si  Si1       1.0  0.8652359247207642  0.6926639080047607  0.8286008238792419  1.0000
  Si  Si2       1.0  0.7500370740890503  0.6281443238258362  0.5105164647102356  1.0000
  Si  Si3       1.0  0.8849421143531799  0.12845738232135773  0.24025824666023254  1.0000
  Si  Si4       1.0  0.0971197858452797  0.4157892167568207  0.016907289624214172  1.0000
