data_image0
_chemical_formula_structural       SSc5Si5
_chemical_formula_sum              "S1 Sc5 Si5"
_cell_length_a       5.135111007815556
_cell_length_b       6.071993845970559
_cell_length_c       7.958687782287598
_cell_angle_alpha    112.67485190848689
_cell_angle_beta     104.79499629394711
_cell_angle_gamma    89.80724080984862

_space_group_name_H-M_alt    "P 1"
_space_group_IT_number       1

loop_
  _space_group_symop_operation_xyz
  'x, y, z'

loop_
  _atom_site_type_symbol
  _atom_site_label
  _atom_site_symmetry_multiplicity
  _atom_site_fract_x
  _atom_site_fract_y
  _atom_site_fract_z
  _atom_site_occupancy
  S   S1        1.0  0.01306490320712328  0.9483615756034851  0.635154664516449  1.0000
  Sc  Sc1       1.0  0.9007523655891418  0.681544840335846  0.9531657099723816  1.0000
  Sc  Sc2       1.0  0.40611395239830017  0.039458226412534714  0.3804491460323334  1.0000
  Sc  Sc3       1.0  0.414874404668808  0.5236514806747437  0.9365794062614441  1.0000
  Sc  Sc4       1.0  0.908521831035614  0.19786487519741058  0.7228183746337891  1.0000
  Sc  Sc5       1.0  0.8551274538040161  0.5410028696060181  0.1991817057132721  1.0000
  Si  Si1       1.0  0.16028916835784912  0.7176567316055298  0.9833626747131348  1.0000
  Si  Si2       1.0  0.5131726264953613  0.8412361741065979  0.28315275907516474  1.0000
  Si  Si3       1.0  0.6423876881599426  0.21176405251026154  0.043839577585458755  1.0000
  Si  Si4       1.0  0.1578870415687561  0.22656439244747162  0.21805167198181152  1.0000
  Si  Si5       1.0  0.5508770942687988  0.21078087389469147  0.5876327157020569  1.0000
