data_image0
_chemical_formula_structural       Al2GeSc5Si2Zn
_chemical_formula_sum              "Al2 Ge1 Sc5 Si2 Zn1"
_cell_length_a       4.807815982444811
_cell_length_b       5.514922385151739
_cell_length_c       9.026341438293457
_cell_angle_alpha    96.81987473405692
_cell_angle_beta     94.43192898504527
_cell_angle_gamma    101.86200524066479

_space_group_name_H-M_alt    "P 1"
_space_group_IT_number       1

loop_
  _space_group_symop_operation_xyz
  'x, y, z'

loop_
  _atom_site_type_symbol
  _atom_site_label
  _atom_site_symmetry_multiplicity
  _atom_site_fract_x
  _atom_site_fract_y
  _atom_site_fract_z
  _atom_site_occupancy
  Al  Al1       1.0  0.220387801527977  0.3973136842250824  0.1733543425798416  1.0000
  Al  Al2       1.0  0.5290506482124329  0.8940610885620117  0.8068749308586121  1.0000
  Ge  Ge1       1.0  0.6491784453392029  0.36150869727134705  0.48938795924186707  1.0000
  Sc  Sc1       1.0  0.5441776514053345  0.8988791108131409  0.23196403682231903  1.0000
  Sc  Sc2       1.0  0.03371863067150116  0.8672321438789368  0.8865492343902588  1.0000
  Sc  Sc3       1.0  0.023944489657878876  0.17233744263648987  0.045707058161497116  1.0000
  Sc  Sc4       1.0  0.2899603545665741  0.15448999404907227  0.4261403977870941  1.0000
  Sc  Sc5       1.0  0.8587616682052612  0.4242289364337921  0.5368133187294006  1.0000
  Si  Si1       1.0  0.49504268169403076  0.6492612957954407  0.5714231729507446  1.0000
  Si  Si2       1.0  0.507592499256134  0.1958407759666443  0.8350716829299927  1.0000
  Zn  Zn1       1.0  0.016467059031128883  0.6532341837882996  0.21948114037513733  1.0000
