data_image0
_chemical_formula_structural       AlH2Sc6SiY
_chemical_formula_sum              "Al1 H2 Sc6 Si1 Y1"
_cell_length_a       4.882199867783826
_cell_length_b       6.212276135070719
_cell_length_c       9.163010597229004
_cell_angle_alpha    107.44376863784281
_cell_angle_beta     91.05668980662558
_cell_angle_gamma    97.48117384997151

_space_group_name_H-M_alt    "P 1"
_space_group_IT_number       1

loop_
  _space_group_symop_operation_xyz
  'x, y, z'

loop_
  _atom_site_type_symbol
  _atom_site_label
  _atom_site_symmetry_multiplicity
  _atom_site_fract_x
  _atom_site_fract_y
  _atom_site_fract_z
  _atom_site_occupancy
  Al  Al1       1.0  0.16686804592609406  0.14584419131278992  0.38794293999671936  1.0000
  H   H1        1.0  0.051118239760398865  0.023902827873826027  0.8168244957923889  1.0000
  H   H2        1.0  0.334085613489151  0.6660862565040588  0.9716871380805969  1.0000
  Sc  Sc1       1.0  0.01689079962670803  0.3433651328086853  0.9188421368598938  1.0000
  Sc  Sc2       1.0  0.5723558664321899  0.5564789772033691  0.6590040922164917  1.0000
  Sc  Sc3       1.0  0.06657746434211731  0.5663572549819946  0.2641339600086212  1.0000
  Sc  Sc4       1.0  0.5692102909088135  0.09851670265197754  0.14815200865268707  1.0000
  Sc  Sc5       1.0  0.5770905613899231  0.32631608843803406  0.22853386402130127  1.0000
  Sc  Sc6       1.0  0.052349645644426346  0.8407168984413147  0.30608248710632324  1.0000
  Si  Si1       1.0  0.36922526359558105  0.22871805727481842  0.6049574613571167  1.0000
  Y   Y1        1.0  0.2519441843032837  0.03159082308411598  0.21718859672546387  1.0000
