data_image0
_chemical_formula_structural       Al5Ge3ScSiSn
_chemical_formula_sum              "Al5 Ge3 Sc1 Si1 Sn1"
_cell_length_a       4.742419035631423
_cell_length_b       7.097248136349586
_cell_length_c       7.078978061676025
_cell_angle_alpha    120.4058349830034
_cell_angle_beta     87.61703580690282
_cell_angle_gamma    90.01171209684225

_space_group_name_H-M_alt    "P 1"
_space_group_IT_number       1

loop_
  _space_group_symop_operation_xyz
  'x, y, z'

loop_
  _atom_site_type_symbol
  _atom_site_label
  _atom_site_symmetry_multiplicity
  _atom_site_fract_x
  _atom_site_fract_y
  _atom_site_fract_z
  _atom_site_occupancy
  Al  Al1       1.0  0.6788825988769531  0.07085467129945755  0.7078424096107483  1.0000
  Al  Al2       1.0  0.6825919151306152  0.6326582431793213  0.6882274150848389  1.0000
  Al  Al3       1.0  0.6790876984596252  0.5799376368522644  0.11591080576181409  1.0000
  Al  Al4       1.0  0.6818287968635559  0.06132732704281807  0.9082559943199158  1.0000
  Al  Al5       1.0  0.1810920089483261  0.15582117438316345  0.518097996711731  1.0000
  Ge  Ge1       1.0  0.18474839627742767  0.15457451343536377  0.5447314977645874  1.0000
  Ge  Ge2       1.0  0.6810497641563416  0.40227821469306946  0.6919098496437073  1.0000
  Ge  Ge3       1.0  0.17540235817432404  0.9052168726921082  0.11109472066164011  1.0000
  Sc  Sc1       1.0  0.18198834359645844  0.40136727690696716  0.17537027597427365  1.0000
  Si  Si1       1.0  0.17871589958667755  0.764493465423584  0.21485623717308044  1.0000
  Sn  Sn1       1.0  0.1785375475883484  0.1007852703332901  0.20925037562847137  1.0000
