data_image0
_chemical_formula_structural       Al6Ge2Sc2Sn
_chemical_formula_sum              "Al6 Ge2 Sc2 Sn1"
_cell_length_a       4.581136984503504
_cell_length_b       7.626937953604909
_cell_length_c       7.726649284362793
_cell_angle_alpha    118.3312237864944
_cell_angle_beta     89.51261679284022
_cell_angle_gamma    89.78710963248331

_space_group_name_H-M_alt    "P 1"
_space_group_IT_number       1

loop_
  _space_group_symop_operation_xyz
  'x, y, z'

loop_
  _atom_site_type_symbol
  _atom_site_label
  _atom_site_symmetry_multiplicity
  _atom_site_fract_x
  _atom_site_fract_y
  _atom_site_fract_z
  _atom_site_occupancy
  Al  Al1       1.0  0.7204063534736633  0.6740336418151855  0.48547643423080444  1.0000
  Al  Al2       1.0  0.4830167293548584  0.9718353152275084  0.49129527807235723  1.0000
  Al  Al3       1.0  0.20956112444400787  0.5605171918869019  0.29370009899139404  1.0000
  Al  Al4       1.0  0.710622251033783  0.3383738696575165  0.45148158073425293  1.0000
  Al  Al5       1.0  0.9205130934715271  0.32533589005470276  0.9031980037689209  1.0000
  Al  Al6       1.0  0.21649128198623657  0.29192787408828735  0.5978069305419922  1.0000
  Ge  Ge1       1.0  0.7130106091499329  0.9800626039505004  0.8033745288848877  1.0000
  Ge  Ge2       1.0  0.20973613858222961  0.8334377408027649  0.9114674925804138  1.0000
  Sc  Sc1       1.0  0.21517211198806763  0.8884670734405516  0.746592104434967  1.0000
  Sc  Sc2       1.0  0.22166112065315247  0.19270175695419312  0.18458335101604462  1.0000
  Sn  Sn1       1.0  0.7051857113838196  0.9489399790763854  0.7831962704658508  1.0000
