data_image0
_chemical_formula_structural       Br6CuPb2
_chemical_formula_sum              "Br6 Cu1 Pb2"
_cell_length_a       7.009554188510903
_cell_length_b       6.973376610487598
_cell_length_c       7.187872886657715
_cell_angle_alpha    101.45898249833007
_cell_angle_beta     101.57123227829061
_cell_angle_gamma    117.83265439213802

_space_group_name_H-M_alt    "P 1"
_space_group_IT_number       1

loop_
  _space_group_symop_operation_xyz
  'x, y, z'

loop_
  _atom_site_type_symbol
  _atom_site_label
  _atom_site_symmetry_multiplicity
  _atom_site_fract_x
  _atom_site_fract_y
  _atom_site_fract_z
  _atom_site_occupancy
  Br  Br1       1.0  0.8232060670852661  0.9389268159866333  0.7642395496368408  1.0000
  Br  Br2       1.0  0.6585214734077454  0.11141398549079895  0.2456148862838745  1.0000
  Br  Br3       1.0  0.5245183110237122  0.3379310965538025  0.7617219686508179  1.0000
  Br  Br4       1.0  0.2000688910484314  0.6345255970954895  0.7604185342788696  1.0000
  Br  Br5       1.0  0.3533652722835541  0.48716339468955994  0.2474820464849472  1.0000
  Br  Br6       1.0  0.9783723950386047  0.7865870594978333  0.24693083763122559  1.0000
  Cu  Cu1       1.0  0.5961580872535706  0.7262598872184753  0.003555297851562469  1.0000
  Pb  Pb1       1.0  0.7551854848861694  0.544020414352417  0.5026953220367432  1.0000
  Pb  Pb2       1.0  0.9353747963905334  0.36056753993034363  0.0036793947219848477  1.0000
