data_image0
_chemical_formula_structural       Br2CuKPbPrReSbTe
_chemical_formula_sum              "Br2 Cu1 K1 Pb1 Pr1 Re1 Sb1 Te1"
_cell_length_a       7.091852665052847
_cell_length_b       7.0900631484132575
_cell_length_c       7.2865190505981445
_cell_angle_alpha    60.85656121392821
_cell_angle_beta     60.79150388544937
_cell_angle_gamma    59.964772713538146

_space_group_name_H-M_alt    "P 1"
_space_group_IT_number       1

loop_
  _space_group_symop_operation_xyz
  'x, y, z'

loop_
  _atom_site_type_symbol
  _atom_site_label
  _atom_site_symmetry_multiplicity
  _atom_site_fract_x
  _atom_site_fract_y
  _atom_site_fract_z
  _atom_site_occupancy
  Br  Br1       1.0  0.7695772647857666  0.7136079668998718  0.6958025693893433  1.0000
  Br  Br2       1.0  0.5880948901176453  0.5898129940032959  0.21371109783649445  1.0000
  Cu  Cu1       1.0  0.9769338369369507  0.4852790832519531  0.011467450298368962  1.0000
  K   K1        1.0  0.2630814015865326  0.20205064117908478  0.690199077129364  1.0000
  Pb  Pb1       1.0  0.26786598563194275  0.7132987976074219  0.7057774066925049  1.0000
  Pr  Pr1       1.0  0.9052903652191162  0.883349597454071  0.22565861046314245  1.0000
  Re  Re1       1.0  0.5318536162376404  0.4534166753292084  0.9802667498588563  1.0000
  Sb  Sb1       1.0  0.2578487992286682  0.2092522382736206  0.210306853055954  1.0000
  Te  Te1       1.0  0.7541489005088806  0.2054189145565033  0.7327646613121033  1.0000
