data_image0
_chemical_formula_structural       BrCuGePbPrSb2TeW
_chemical_formula_sum              "Br1 Cu1 Ge1 Pb1 Pr1 Sb2 Te1 W1"
_cell_length_a       6.72474406543876
_cell_length_b       6.723076982296719
_cell_length_c       6.749492168426514
_cell_angle_alpha    64.83320796167509
_cell_angle_beta     64.65663855906107
_cell_angle_gamma    64.60952345843091

_space_group_name_H-M_alt    "P 1"
_space_group_IT_number       1

loop_
  _space_group_symop_operation_xyz
  'x, y, z'

loop_
  _atom_site_type_symbol
  _atom_site_label
  _atom_site_symmetry_multiplicity
  _atom_site_fract_x
  _atom_site_fract_y
  _atom_site_fract_z
  _atom_site_occupancy
  Br  Br1       1.0  0.6155271530151367  0.6512004137039185  0.7699913382530212  1.0000
  Cu  Cu1       1.0  0.8685950040817261  0.35331305861473083  0.5165766477584839  1.0000
  Ge  Ge1       1.0  0.7722719311714172  0.2943723797798157  0.2444078624248504  1.0000
  Pb  Pb1       1.0  0.27854815125465393  0.7988404035568237  0.2424243539571762  1.0000
  Pr  Pr1       1.0  0.113126240670681  0.6443398594856262  0.7977747917175293  1.0000
  Sb  Sb1       1.0  0.7875906825065613  0.7617353200912476  0.22101032733917234  1.0000
  Sb  Sb2       1.0  0.6032741069793701  0.20976397395133972  0.999200701713562  1.0000
  Te  Te1       1.0  0.1302565038204193  0.1548435539007187  0.7683168053627014  1.0000
  W   W1        1.0  0.5208519101142883  0.04258563369512558  0.47538262605667114  1.0000
