data_image0
_chemical_formula_structural       Cs2Eu2P2Zn4
_chemical_formula_sum              "Cs2 Eu2 P2 Zn4"
_cell_length_a       4.988710700275449
_cell_length_b       6.065275786462603
_cell_length_c       8.472765922546387
_cell_angle_alpha    91.88189163849574
_cell_angle_beta     91.63369750054036
_cell_angle_gamma    98.69509148318637

_space_group_name_H-M_alt    "P 1"
_space_group_IT_number       1

loop_
  _space_group_symop_operation_xyz
  'x, y, z'

loop_
  _atom_site_type_symbol
  _atom_site_label
  _atom_site_symmetry_multiplicity
  _atom_site_fract_x
  _atom_site_fract_y
  _atom_site_fract_z
  _atom_site_occupancy
  Cs  Cs1       1.0  0.5265543460845947  0.4196200966835022  0.33098307251930237  1.0000
  Cs  Cs2       1.0  0.5036458373069763  0.5195627212524414  0.8512981534004211  1.0000
  Eu  Eu1       1.0  0.5420728325843811  0.5073418617248535  0.0742315948009491  1.0000
  Eu  Eu2       1.0  0.03922073915600777  0.23070083558559418  0.061998140066862106  1.0000
  P   P1        1.0  0.07689919322729111  0.9973655343055725  0.8253137469291687  1.0000
  P   P2        1.0  0.07998844981193542  0.24571502208709717  0.2806127965450287  1.0000
  Zn  Zn1       1.0  0.028544127941131592  0.24533793330192566  0.32822632789611816  1.0000
  Zn  Zn2       1.0  0.9972739815711975  0.45769840478897095  0.6486810445785522  1.0000
  Zn  Zn3       1.0  0.5099653601646423  0.7701538801193237  0.5714274644851685  1.0000
  Zn  Zn4       1.0  0.0031173229217529297  0.7254050970077515  0.9389013648033142  1.0000
