data_image0
_chemical_formula_structural       Cs2EuMnPZn5
_chemical_formula_sum              "Cs2 Eu1 Mn1 P1 Zn5"
_cell_length_a       4.686502458969097
_cell_length_b       7.1535101705056
_cell_length_c       9.765679359436035
_cell_angle_alpha    80.47494182495564
_cell_angle_beta     75.7242577448854
_cell_angle_gamma    71.2622289478184

_space_group_name_H-M_alt    "P 1"
_space_group_IT_number       1

loop_
  _space_group_symop_operation_xyz
  'x, y, z'

loop_
  _atom_site_type_symbol
  _atom_site_label
  _atom_site_symmetry_multiplicity
  _atom_site_fract_x
  _atom_site_fract_y
  _atom_site_fract_z
  _atom_site_occupancy
  Cs  Cs1       1.0  0.33310768008232117  0.2792758643627167  0.8609405159950256  1.0000
  Cs  Cs2       1.0  0.9435755610466003  0.6789057850837708  0.37379416823387146  1.0000
  Eu  Eu1       1.0  0.8890492916107178  0.18801867961883545  0.12508733570575717  1.0000
  Mn  Mn1       1.0  0.8599870800971985  0.30046507716178894  0.25076135993003845  1.0000
  P   P1        1.0  0.946948230266571  0.18528947234153748  0.40512213110923767  1.0000
  Zn  Zn1       1.0  0.41957464814186096  0.7514528632164001  0.28861936926841736  1.0000
  Zn  Zn2       1.0  0.3938962519168854  0.2911027669906616  0.09822053462266923  1.0000
  Zn  Zn3       1.0  0.8822125196456909  0.9956580400466919  0.15296532213687897  1.0000
  Zn  Zn4       1.0  0.8401657342910767  0.510992169380188  0.06142863258719444  1.0000
  Zn  Zn5       1.0  0.36065107583999634  0.7882429361343384  0.9297066330909729  1.0000
