data_image0
_chemical_formula_structural       Eu4NbPZn4
_chemical_formula_sum              "Eu4 Nb1 P1 Zn4"
_cell_length_a       5.087339552834657
_cell_length_b       6.738046990745004
_cell_length_c       8.077766418457031
_cell_angle_alpha    78.62461120072413
_cell_angle_beta     73.99506592324008
_cell_angle_gamma    71.54725826078626

_space_group_name_H-M_alt    "P 1"
_space_group_IT_number       1

loop_
  _space_group_symop_operation_xyz
  'x, y, z'

loop_
  _atom_site_type_symbol
  _atom_site_label
  _atom_site_symmetry_multiplicity
  _atom_site_fract_x
  _atom_site_fract_y
  _atom_site_fract_z
  _atom_site_occupancy
  Eu  Eu1       1.0  0.10014594346284866  0.9123764038085938  0.45513057708740234  1.0000
  Eu  Eu2       1.0  0.7655483484268188  0.1709536910057068  0.9637485146522522  1.0000
  Eu  Eu3       1.0  0.5323879718780518  0.6799450516700745  0.3044129014015198  1.0000
  Eu  Eu4       1.0  0.568480908870697  0.10820655524730682  0.4860168397426605  1.0000
  Nb  Nb1       1.0  0.7333901524543762  0.3731708824634552  0.5647704601287842  1.0000
  P   P1        1.0  0.826535701751709  0.6533724069595337  0.6535400152206421  1.0000
  Zn  Zn1       1.0  0.5657964944839478  0.6531772613525391  0.47312092781066895  1.0000
  Zn  Zn2       1.0  0.27348005771636963  0.6891594529151917  0.9567578434944153  1.0000
  Zn  Zn3       1.0  0.1091620922088623  0.05475420132279396  0.13255693018436432  1.0000
  Zn  Zn4       1.0  0.09766647964715958  0.3735370337963104  0.422006219625473  1.0000
