data_image0
_chemical_formula_structural       Eu5P2Zn3
_chemical_formula_sum              "Eu5 P2 Zn3"
_cell_length_a       5.744917466107652
_cell_length_b       6.547312721579625
_cell_length_c       7.369868755340576
_cell_angle_alpha    66.81850626453438
_cell_angle_beta     64.85514544570295
_cell_angle_gamma    65.80450582547287

_space_group_name_H-M_alt    "P 1"
_space_group_IT_number       1

loop_
  _space_group_symop_operation_xyz
  'x, y, z'

loop_
  _atom_site_type_symbol
  _atom_site_label
  _atom_site_symmetry_multiplicity
  _atom_site_fract_x
  _atom_site_fract_y
  _atom_site_fract_z
  _atom_site_occupancy
  Eu  Eu1       1.0  0.1916169822216034  0.3195345997810364  0.27414917945861816  1.0000
  Eu  Eu2       1.0  0.019174130633473396  0.6096967458724976  0.5222427845001222  1.0000
  Eu  Eu3       1.0  0.5776439905166626  0.3993995487689972  0.5905421376228333  1.0000
  Eu  Eu4       1.0  0.16113236546516418  0.3726487457752228  0.3691096901893616  1.0000
  Eu  Eu5       1.0  0.007862742058932781  0.5901103615760803  0.5693029761314392  1.0000
  P   P1        1.0  0.7123439311981201  0.4670950472354889  0.7891124486923219  1.0000
  P   P2        1.0  0.19759686291217804  0.11435257643461227  0.24959813058376315  1.0000
  Zn  Zn1       1.0  0.5119966268539429  0.11720623075962067  0.989184319972992  1.0000
  Zn  Zn2       1.0  0.9729249477386476  0.6341822147369385  0.2969379127025604  1.0000
  Zn  Zn3       1.0  0.9467422366142273  0.11716317385435104  0.5657370686531067  1.0000
