data_image0
_chemical_formula_structural       Cs2EuP3Zn4
_chemical_formula_sum              "Cs2 Eu1 P3 Zn4"
_cell_length_a       4.823774394137252
_cell_length_b       6.400364217649277
_cell_length_c       8.02414608001709
_cell_angle_alpha    78.06212856477259
_cell_angle_beta     71.79334648375759
_cell_angle_gamma    70.24872858060724

_space_group_name_H-M_alt    "P 1"
_space_group_IT_number       1

loop_
  _space_group_symop_operation_xyz
  'x, y, z'

loop_
  _atom_site_type_symbol
  _atom_site_label
  _atom_site_symmetry_multiplicity
  _atom_site_fract_x
  _atom_site_fract_y
  _atom_site_fract_z
  _atom_site_occupancy
  Cs  Cs1       1.0  0.1385819911956787  0.7702517509460449  0.0031411193776875734  1.0000
  Cs  Cs2       1.0  0.8401011228561401  0.4126451313495636  0.5739563703536987  1.0000
  Eu  Eu1       1.0  0.9489729404449464  0.050854794681072235  0.08319585770368576  1.0000
  P   P1        1.0  0.41777676343917847  0.7333263158798218  0.6101710796356201  1.0000
  P   P2        1.0  0.9154725074768066  0.2648373544216156  0.824072539806366  1.0000
  P   P3        1.0  0.7913742065429688  0.8630059957504272  0.5653610229492188  1.0000
  Zn  Zn1       1.0  0.08420063555240631  0.08346004784107208  0.2656470239162445  1.0000
  Zn  Zn2       1.0  0.4964571297168732  0.05051073431968689  0.25971418619155884  1.0000
  Zn  Zn3       1.0  0.6308258175849915  0.2352123707532883  0.4847555458545685  1.0000
  Zn  Zn4       1.0  0.35760486125946045  0.37899449467658997  0.062457408756017685  1.0000
