data_image0
_chemical_formula_structural       BCs3EuP2Zn3
_chemical_formula_sum              "B1 Cs3 Eu1 P2 Zn3"
_cell_length_a       4.846903033858709
_cell_length_b       6.811327633200212
_cell_length_c       8.51276683807373
_cell_angle_alpha    94.81335815536544
_cell_angle_beta     96.6635282745725
_cell_angle_gamma    102.8984306039729

_space_group_name_H-M_alt    "P 1"
_space_group_IT_number       1

loop_
  _space_group_symop_operation_xyz
  'x, y, z'

loop_
  _atom_site_type_symbol
  _atom_site_label
  _atom_site_symmetry_multiplicity
  _atom_site_fract_x
  _atom_site_fract_y
  _atom_site_fract_z
  _atom_site_occupancy
  B   B1        1.0  0.055685222148895264  0.5604218244552612  0.9261180758476257  1.0000
  Cs  Cs1       1.0  0.5816563367843628  0.25289386510849  0.1309034377336502  1.0000
  Cs  Cs2       1.0  0.04534709826111795  0.16498690843582156  0.945260763168335  1.0000
  Cs  Cs3       1.0  0.28586477041244507  0.5379231572151184  0.31431910395622253  1.0000
  Eu  Eu1       1.0  0.5260611772537231  0.5202096104621887  0.630085289478302  1.0000
  P   P1        1.0  0.030690204352140427  0.5608980059623718  0.6157997846603395  1.0000
  P   P2        1.0  0.5884536504745483  0.9524954557418824  0.3516522943973541  1.0000
  Zn  Zn1       1.0  0.6954203844070435  0.6868128180503846  0.11946528404951096  1.0000
  Zn  Zn2       1.0  0.5815330147743225  0.18617489933967593  0.6528583765029907  1.0000
  Zn  Zn3       1.0  0.006569147109985353  0.031024161726236347  0.4071575403213501  1.0000
