data_image0
_chemical_formula_structural       Ho4Tb2Zr3
_chemical_formula_sum              "Ho4 Tb2 Zr3"
_cell_length_a       4.372289897123515
_cell_length_b       6.989346588191453
_cell_length_c       9.147409439086914
_cell_angle_alpha    112.46417065048752
_cell_angle_beta     103.86023771627627
_cell_angle_gamma    90.06478118101646

_space_group_name_H-M_alt    "P 1"
_space_group_IT_number       1

loop_
  _space_group_symop_operation_xyz
  'x, y, z'

loop_
  _atom_site_type_symbol
  _atom_site_label
  _atom_site_symmetry_multiplicity
  _atom_site_fract_x
  _atom_site_fract_y
  _atom_site_fract_z
  _atom_site_occupancy
  Ho  Ho1       1.0  0.4165688455104828  0.789677083492279  0.14047950506210327  1.0000
  Ho  Ho2       1.0  0.7945851683616638  0.9393706917762756  0.888935923576355  1.0000
  Ho  Ho3       1.0  0.42638474702835083  0.30789604783058167  0.1426212340593338  1.0000
  Ho  Ho4       1.0  0.21148507297039032  0.5674030184745789  0.7235108017921448  1.0000
  Tb  Tb1       1.0  0.025167958810925484  0.13908754289150238  0.35031893849372864  1.0000
  Tb  Tb2       1.0  0.06897710263729095  0.6913127899169922  0.425535649061203  1.0000
  Zr  Zr1       1.0  0.6330283880233765  0.29816922545433044  0.5563677549362183  1.0000
  Zr  Zr2       1.0  0.20965780317783356  0.12221650779247284  0.7175095081329346  1.0000
  Zr  Zr3       1.0  0.8143286108970642  0.4422515630722046  0.9207913875579834  1.0000
