data_image0
_chemical_formula_structural       BrFHHfHoSb2TaZr
_chemical_formula_sum              "Br1 F1 H1 Hf1 Ho1 Sb2 Ta1 Zr1"
_cell_length_a       6.1692022876925225
_cell_length_b       6.1703051664606985
_cell_length_c       7.240046977996826
_cell_angle_alpha    65.42620244484432
_cell_angle_beta     65.33216199878788
_cell_angle_gamma    60.528336211662634

_space_group_name_H-M_alt    "P 1"
_space_group_IT_number       1

loop_
  _space_group_symop_operation_xyz
  'x, y, z'

loop_
  _atom_site_type_symbol
  _atom_site_label
  _atom_site_symmetry_multiplicity
  _atom_site_fract_x
  _atom_site_fract_y
  _atom_site_fract_z
  _atom_site_occupancy
  Br  Br1       1.0  0.5046761631965637  0.08151599764823914  0.32088497281074524  1.0000
  F   F1        1.0  0.609651505947113  0.27586430311203003  0.7843254804611206  1.0000
  H   H1        1.0  0.24511314928531647  0.9662366509437561  0.7793880105018616  1.0000
  Hf  Hf1       1.0  0.9110081195831299  0.9852384328842163  0.9846865534782411  1.0000
  Ho  Ho1       1.0  0.00948462076485157  0.12601229548454285  0.49331048130989075  1.0000
  Sb  Sb1       1.0  0.8822343349456787  0.4843839704990387  0.03639130294322963  1.0000
  Sb  Sb2       1.0  0.16064733266830444  0.6915477514266968  0.3185146450996399  1.0000
  Ta  Ta1       1.0  0.2567146122455597  0.3168364465236664  0.7040011286735535  1.0000
  Zr  Zr1       1.0  0.6131088733673096  0.7196899652481079  0.691792905330658  1.0000
