data_image0
_chemical_formula_structural       GeHHoSSbSrTbTeZr
_chemical_formula_sum              "Ge1 H1 Ho1 S1 Sb1 Sr1 Tb1 Te1 Zr1"
_cell_length_a       6.66726996640277
_cell_length_b       6.646633378330079
_cell_length_c       6.674233913421631
_cell_angle_alpha    109.25772807125475
_cell_angle_beta     109.60368523470272
_cell_angle_gamma    109.64805395941896

_space_group_name_H-M_alt    "P 1"
_space_group_IT_number       1

loop_
  _space_group_symop_operation_xyz
  'x, y, z'

loop_
  _atom_site_type_symbol
  _atom_site_label
  _atom_site_symmetry_multiplicity
  _atom_site_fract_x
  _atom_site_fract_y
  _atom_site_fract_z
  _atom_site_occupancy
  Ge  Ge1       1.0  0.7347670793533325  0.7597913146018982  0.9277458190917969  1.0000
  H   H1        1.0  0.22905327379703522  0.2546633183956146  0.4255427122116089  1.0000
  Ho  Ho1       1.0  0.4988483190536499  0.25842031836509705  0.6777544617652893  1.0000
  S   S1        1.0  0.2365739643573761  0.7570972442626953  0.4246805012226105  1.0000
  Sb  Sb1       1.0  0.738226592540741  0.26088038086891174  0.42594441771507263  1.0000
  Sr  Sr1       1.0  0.2317228764295578  0.7553223967552185  0.9269502758979797  1.0000
  Tb  Tb1       1.0  0.7280803322792053  0.7570870518684387  0.4264712631702423  1.0000
  Te  Te1       1.0  0.23772145807743073  0.25820446014404297  0.9293069243431091  1.0000
  Zr  Zr1       1.0  0.9731957912445068  0.26213574409484863  0.17491824924945834  1.0000
