data_image0
_chemical_formula_structural       I3O2Pb3TiZr
_chemical_formula_sum              "I3 O2 Pb3 Ti1 Zr1"
_cell_length_a       6.71177502871201
_cell_length_b       6.624230654904072
_cell_length_c       7.821195602416992
_cell_angle_alpha    65.4671340976386
_cell_angle_beta     69.12245483087348
_cell_angle_gamma    69.32507489981796

_space_group_name_H-M_alt    "P 1"
_space_group_IT_number       1

loop_
  _space_group_symop_operation_xyz
  'x, y, z'

loop_
  _atom_site_type_symbol
  _atom_site_label
  _atom_site_symmetry_multiplicity
  _atom_site_fract_x
  _atom_site_fract_y
  _atom_site_fract_z
  _atom_site_occupancy
  I   I1        1.0  0.20816926658153534  0.214138925075531  0.8378646373748779  1.0000
  I   I2        1.0  0.42353975772857666  0.9549521803855896  0.10860546678304672  1.0000
  I   I3        1.0  0.9153314828872681  0.4101088047027588  0.6548242568969727  1.0000
  O   O1        1.0  0.8628969192504883  0.06689461320638657  0.20935443043708796  1.0000
  O   O2        1.0  0.17907235026359558  0.16604577004909515  0.00041424110531806946  1.0000
  Pb  Pb1       1.0  0.2577502727508545  0.7939566969871521  0.5926672220230103  1.0000
  Pb  Pb2       1.0  0.7065075039863586  0.15932796895503998  0.8277446627616882  1.0000
  Pb  Pb3       1.0  0.18285684287548065  0.5602238178253174  0.8007636070251465  1.0000
  Ti  Ti1       1.0  0.946211040019989  0.5928393006324768  0.02556406892836094  1.0000
  Zr  Zr1       1.0  0.7160824537277222  0.6947185397148132  0.2806982398033142  1.0000
