data_image0
_chemical_formula_structural       InLaO8
_chemical_formula_sum              "In1 La1 O8"
_cell_length_a       4.849869035683963
_cell_length_b       4.844137049952398
_cell_length_c       7.605760097503662
_cell_angle_alpha    92.15978755946144
_cell_angle_beta     89.90999976736428
_cell_angle_gamma    87.34641952635444

_space_group_name_H-M_alt    "P 1"
_space_group_IT_number       1

loop_
  _space_group_symop_operation_xyz
  'x, y, z'

loop_
  _atom_site_type_symbol
  _atom_site_label
  _atom_site_symmetry_multiplicity
  _atom_site_fract_x
  _atom_site_fract_y
  _atom_site_fract_z
  _atom_site_occupancy
  In  In1       1.0  0.7565937042236328  0.5419775247573853  0.6706082224845886  1.0000
  La  La1       1.0  0.23672328889369965  0.5265355706214905  0.6020004153251648  1.0000
  O   O1        1.0  0.3128350079059601  0.2875364422798157  0.4225092828273773  1.0000
  O   O2        1.0  0.7260165214538574  0.21387283504009247  0.4424155652523041  1.0000
  O   O3        1.0  0.22574961185455322  0.7495679259300232  0.6292495727539062  1.0000
  O   O4        1.0  0.22605541348457336  0.5060173869132996  0.11186740547418594  1.0000
  O   O5        1.0  0.7462401986122131  0.12926994264125824  0.674396812915802  1.0000
  O   O6        1.0  0.24491190910339355  0.2556379735469818  0.6154817342758179  1.0000
  O   O7        1.0  0.7281023859977722  0.014779756776988506  0.8760405778884888  1.0000
  O   O8        1.0  0.24329237639904022  0.2733808159828186  0.19747096300125122  1.0000
