data_image0
_chemical_formula_structural       Ca2I2O4PZn
_chemical_formula_sum              "Ca2 I2 O4 P1 Zn1"
_cell_length_a       5.897651096778176
_cell_length_b       6.26941483972583
_cell_length_c       7.125304698944092
_cell_angle_alpha    70.31925468470087
_cell_angle_beta     78.076095630445
_cell_angle_gamma    78.57184785107806

_space_group_name_H-M_alt    "P 1"
_space_group_IT_number       1

loop_
  _space_group_symop_operation_xyz
  'x, y, z'

loop_
  _atom_site_type_symbol
  _atom_site_label
  _atom_site_symmetry_multiplicity
  _atom_site_fract_x
  _atom_site_fract_y
  _atom_site_fract_z
  _atom_site_occupancy
  Ca  Ca1       1.0  0.0032332385890185833  0.7306481003761292  0.8064940571784973  1.0000
  Ca  Ca2       1.0  0.9961388707160951  0.3164275586605072  0.4631150960922242  1.0000
  I   I1        1.0  0.5166517496109009  0.9026035666465759  0.3297489285469055  1.0000
  I   I2        1.0  0.9983925223350526  0.8031125664710999  0.9106425046920777  1.0000
  O   O1        1.0  0.4641176760196686  0.5711789131164551  0.5459955930709839  1.0000
  O   O2        1.0  0.01814468763768673  0.7503176927566528  0.020505862310528755  1.0000
  O   O3        1.0  0.21084755659103394  0.022676855325698853  0.9219660162925721  1.0000
  O   O4        1.0  0.13115547597408295  0.7776976823806763  0.50928795337677  1.0000
  P   P1        1.0  0.7006420493125916  0.6162327527999878  0.6852981448173523  1.0000
  Zn  Zn1       1.0  0.5053110718727112  0.7469642162322998  0.9921476244926454  1.0000
