data_image0
_chemical_formula_structural       FI3O4PZn
_chemical_formula_sum              "F1 I3 O4 P1 Zn1"
_cell_length_a       5.109909145491281
_cell_length_b       5.200345941713662
_cell_length_c       7.642058849334717
_cell_angle_alpha    89.15729772859814
_cell_angle_beta     89.70798063077925
_cell_angle_gamma    90.466559634873

_space_group_name_H-M_alt    "P 1"
_space_group_IT_number       1

loop_
  _space_group_symop_operation_xyz
  'x, y, z'

loop_
  _atom_site_type_symbol
  _atom_site_label
  _atom_site_symmetry_multiplicity
  _atom_site_fract_x
  _atom_site_fract_y
  _atom_site_fract_z
  _atom_site_occupancy
  F   F1        1.0  0.20613473653793335  0.3255448639392853  0.6822563409805298  1.0000
  I   I1        1.0  0.14071597158908844  0.4307304918766021  0.36071738600730896  1.0000
  I   I2        1.0  0.657892644405365  0.12497898191213606  0.7339257001876831  1.0000
  I   I3        1.0  0.6749199032783508  0.6121814846992493  0.22070179879665375  1.0000
  O   O1        1.0  0.16710332036018372  0.41299015283584595  0.6707337498664856  1.0000
  O   O2        1.0  0.6595487594604492  0.17996998131275177  0.11947990953922272  1.0000
  O   O3        1.0  0.15400543808937073  0.2984139025211334  0.7012683749198914  1.0000
  O   O4        1.0  0.17959977686405182  0.7723350524902344  0.15445426106452942  1.0000
  P   P1        1.0  0.6477574706077576  0.35891857743263245  0.6575595736503601  1.0000
  Zn  Zn1       1.0  0.18024516105651855  0.6536778807640076  0.7195729613304138  1.0000
