data_image0
_chemical_formula_structural       Ag3O6Te
_chemical_formula_sum              "Ag3 O6 Te1"
_cell_length_a       4.895036455933288
_cell_length_b       5.175201105593462
_cell_length_c       7.624307632446289
_cell_angle_alpha    101.59184999175567
_cell_angle_beta     103.47918790928992
_cell_angle_gamma    88.86819711525845

_space_group_name_H-M_alt    "P 1"
_space_group_IT_number       1

loop_
  _space_group_symop_operation_xyz
  'x, y, z'

loop_
  _atom_site_type_symbol
  _atom_site_label
  _atom_site_symmetry_multiplicity
  _atom_site_fract_x
  _atom_site_fract_y
  _atom_site_fract_z
  _atom_site_occupancy
  Ag  Ag1       1.0  0.8545840978622437  0.9119580984115601  0.5545238852500916  1.0000
  Ag  Ag2       1.0  0.7981303334236145  0.5954508781433105  0.30495065450668335  1.0000
  Ag  Ag3       1.0  0.1424909234046936  0.2538459897041321  0.5813308358192444  1.0000
  O   O1        1.0  0.6059210896492004  0.6347444653511047  0.9352050423622131  1.0000
  O   O2        1.0  0.657214879989624  0.9841539263725281  0.06158047914505005  1.0000
  O   O3        1.0  0.9270185232162476  0.6407001614570618  0.9365546703338623  1.0000
  O   O4        1.0  0.3900229334831238  0.15538106858730316  0.6922054886817932  1.0000
  O   O5        1.0  0.16330872476100922  0.011484382674098015  0.8202449679374695  1.0000
  O   O6        1.0  0.9050100445747375  0.3815668523311615  0.6170903444290161  1.0000
  Te  Te1       1.0  0.6302123665809631  0.7048864364624023  0.9450513124465942  1.0000
