data_image0
_chemical_formula_structural       AsCGeI2Na2PZnZr
_chemical_formula_sum              "As1 C1 Ge1 I2 Na2 P1 Zn1 Zr1"
_cell_length_a       6.7036163962107675
_cell_length_b       6.467085367971962
_cell_length_c       7.145405292510986
_cell_angle_alpha    111.16296112501627
_cell_angle_beta     105.53752028761173
_cell_angle_gamma    104.83766347315927

_space_group_name_H-M_alt    "P 1"
_space_group_IT_number       1

loop_
  _space_group_symop_operation_xyz
  'x, y, z'

loop_
  _atom_site_type_symbol
  _atom_site_label
  _atom_site_symmetry_multiplicity
  _atom_site_fract_x
  _atom_site_fract_y
  _atom_site_fract_z
  _atom_site_occupancy
  As  As1       1.0  0.5982894897460938  0.8812850713729858  0.6042050719261169  1.0000
  C   C1        1.0  0.11932910233736038  0.06589625775814056  0.6760399341583252  1.0000
  Ge  Ge1       1.0  0.18664857745170593  0.3855837881565094  0.45583918690681463  1.0000
  I   I1        1.0  0.7177214622497559  0.56073397397995  0.05623538047075272  1.0000
  I   I2        1.0  0.079269640147686  0.17578497529029846  0.5814506411552429  1.0000
  Na  Na1       1.0  0.6025916337966919  0.6782888770103455  0.8844982385635377  1.0000
  Na  Na2       1.0  0.6438186764717102  0.5414615273475647  0.4428416788578034  1.0000
  P   P1        1.0  0.8495867252349854  0.8987153172492981  0.5901550650596619  1.0000
  Zn  Zn1       1.0  0.13406608998775482  0.2775195240974426  0.914254128932953  1.0000
  Zr  Zr1       1.0  0.33669012784957886  0.6842218041419983  0.7637881040573121  1.0000
