data_image0
_chemical_formula_structural       FeGe2INa2OPtSZn
_chemical_formula_sum              "Fe1 Ge2 I1 Na2 O1 Pt1 S1 Zn1"
_cell_length_a       5.463162673141767
_cell_length_b       5.603276542424793
_cell_length_c       6.878458023071289
_cell_angle_alpha    91.71636231294488
_cell_angle_beta     73.56600237980297
_cell_angle_gamma    61.22382586592677

_space_group_name_H-M_alt    "P 1"
_space_group_IT_number       1

loop_
  _space_group_symop_operation_xyz
  'x, y, z'

loop_
  _atom_site_type_symbol
  _atom_site_label
  _atom_site_symmetry_multiplicity
  _atom_site_fract_x
  _atom_site_fract_y
  _atom_site_fract_z
  _atom_site_occupancy
  Fe  Fe1       1.0  0.5860732793807983  0.7112189531326294  0.8155842423439026  1.0000
  Ge  Ge1       1.0  0.07890035212039948  0.383547306060791  0.8315932750701904  1.0000
  Ge  Ge2       1.0  0.5757689476013184  0.5562266707420349  0.11278020590543747  1.0000
  I   I1        1.0  0.08259405195713043  0.15705671906471252  0.820164680480957  1.0000
  Na  Na1       1.0  0.5837886333465576  0.7365496754646301  0.3691902756690979  1.0000
  Na  Na2       1.0  0.0736713781952858  0.3516366183757782  0.7697003483772277  1.0000
  O   O1        1.0  0.9954594373703003  0.5172905325889587  0.9602295160293578  1.0000
  Pt  Pt1       1.0  0.07888893038034439  0.2348555326461792  0.4697435796260834  1.0000
  S   S1        1.0  0.08444023132324219  0.2965664267539978  0.011625298298895359  1.0000
  Zn  Zn1       1.0  0.5738385319709778  0.07131889462471008  0.0103549063205719  1.0000
