data_image0
_chemical_formula_structural       Fe6O4
_chemical_formula_sum              "Fe6 O4"
_cell_length_a       3.0315217933381886
_cell_length_b       7.049482210381342
_cell_length_c       6.367848873138428
_cell_angle_alpha    85.31152322631353
_cell_angle_beta     68.83472126677226
_cell_angle_gamma    51.696284429933975

_space_group_name_H-M_alt    "P 1"
_space_group_IT_number       1

loop_
  _space_group_symop_operation_xyz
  'x, y, z'

loop_
  _atom_site_type_symbol
  _atom_site_label
  _atom_site_symmetry_multiplicity
  _atom_site_fract_x
  _atom_site_fract_y
  _atom_site_fract_z
  _atom_site_occupancy
  Fe  Fe1       1.0  0.030915025621652444  0.49266785383224493  0.30255502462387085  1.0000
  Fe  Fe2       1.0  0.03756263479590408  0.2375428229570389  0.5802724957466125  1.0000
  Fe  Fe3       1.0  0.23480826616287198  0.9325304627418519  0.8883386254310608  1.0000
  Fe  Fe4       1.0  0.5424782037734985  0.3648601472377777  0.8938673734664917  1.0000
  Fe  Fe5       1.0  0.02790004201233385  0.10579031705856325  0.03138895705342293  1.0000
  Fe  Fe6       1.0  0.5388758182525633  0.48697096109390264  0.11131229251623154  1.0000
  O   O1        1.0  0.4904773533344269  0.6569947600364685  0.8364745378494263  1.0000
  O   O2        1.0  0.5244697928428647  0.9020308852195741  0.2772922217845917  1.0000
  O   O3        1.0  0.5322009921073914  0.7433701157569885  0.5301867723464966  1.0000
  O   O4        1.0  0.7339965105056763  0.6862878203392029  0.47471609711647034  1.0000
