data_image0
_chemical_formula_structural       Fe7O3
_chemical_formula_sum              "Fe7 O3"
_cell_length_a       2.32787965726881
_cell_length_b       7.339124273932028
_cell_length_c       6.432075500488281
_cell_angle_alpha    82.65238902066056
_cell_angle_beta     50.92610160986029
_cell_angle_gamma    49.13132431888419

_space_group_name_H-M_alt    "P 1"
_space_group_IT_number       1

loop_
  _space_group_symop_operation_xyz
  'x, y, z'

loop_
  _atom_site_type_symbol
  _atom_site_label
  _atom_site_symmetry_multiplicity
  _atom_site_fract_x
  _atom_site_fract_y
  _atom_site_fract_z
  _atom_site_occupancy
  Fe  Fe1       1.0  0.5003893971443176  0.16498920321464539  0.8315020799636841  1.0000
  Fe  Fe2       1.0  0.49386817216873174  0.7580915689468384  0.5582588911056519  1.0000
  Fe  Fe3       1.0  0.04779640957713103  0.8992208242416382  0.8269912004470825  1.0000
  Fe  Fe4       1.0  0.014599949121475221  0.01672392338514328  0.8023568391799927  1.0000
  Fe  Fe5       1.0  0.9646058678627015  0.02213117852807045  0.9738759398460388  1.0000
  Fe  Fe6       1.0  0.4706936180591584  0.3063853681087494  0.6365896463394165  1.0000
  Fe  Fe7       1.0  0.019131159409880517  0.4998067319393158  0.3901958167552948  1.0000
  O   O1        1.0  0.011722737923264505  0.2702602744102478  0.46771031618118286  1.0000
  O   O2        1.0  0.5214978456497192  0.45037829875946045  0.40351226925849915  1.0000
  O   O3        1.0  0.36974278092384344  0.19325320422649384  0.9348168969154358  1.0000
