data_image0
_chemical_formula_structural       FeGeI3Na3OP
_chemical_formula_sum              "Fe1 Ge1 I3 Na3 O1 P1"
_cell_length_a       5.931130145746163
_cell_length_b       6.316860710198777
_cell_length_c       8.214451789855957
_cell_angle_alpha    82.91969634231775
_cell_angle_beta     78.01942825607972
_cell_angle_gamma    75.06733362359091

_space_group_name_H-M_alt    "P 1"
_space_group_IT_number       1

loop_
  _space_group_symop_operation_xyz
  'x, y, z'

loop_
  _atom_site_type_symbol
  _atom_site_label
  _atom_site_symmetry_multiplicity
  _atom_site_fract_x
  _atom_site_fract_y
  _atom_site_fract_z
  _atom_site_occupancy
  Fe  Fe1       1.0  0.606406033039093  0.15372328460216522  0.5624620914459229  1.0000
  Ge  Ge1       1.0  0.6153974533081055  0.25178197026252747  0.7079288959503174  1.0000
  I   I1        1.0  0.10935386270284651  0.048684556037187576  0.9567158818244935  1.0000
  I   I2        1.0  0.03022224828600883  0.14429748058319092  0.35121598839759827  1.0000
  I   I3        1.0  0.10422934591770171  0.021393341943621635  0.20837590098381045  1.0000
  Na  Na1       1.0  0.6111893653869629  0.11680630594491959  0.9351231455802917  1.0000
  Na  Na2       1.0  0.11129081249237059  0.20609985291957855  0.08821514248847961  1.0000
  Na  Na3       1.0  0.6187735795974731  0.36837494373321533  0.16712769865989685  1.0000
  O   O1        1.0  0.6219721436500549  0.6312885880470276  0.7803205251693726  1.0000
  P   P1        1.0  0.11758260428905486  0.7150620222091675  0.728265643119812  1.0000
