data_image0
_chemical_formula_structural       FFe2I2NaO2PdZn
_chemical_formula_sum              "F1 Fe2 I2 Na1 O2 Pd1 Zn1"
_cell_length_a       6.238589250607714
_cell_length_b       6.330783532320382
_cell_length_c       6.7688069343566895
_cell_angle_alpha    109.66466448805987
_cell_angle_beta     108.77454169270467
_cell_angle_gamma    110.05332231714482

_space_group_name_H-M_alt    "P 1"
_space_group_IT_number       1

loop_
  _space_group_symop_operation_xyz
  'x, y, z'

loop_
  _atom_site_type_symbol
  _atom_site_label
  _atom_site_symmetry_multiplicity
  _atom_site_fract_x
  _atom_site_fract_y
  _atom_site_fract_z
  _atom_site_occupancy
  F   F1        1.0  0.7064729928970336  0.8041606545448303  0.2910382449626923  1.0000
  Fe  Fe1       1.0  0.555004358291626  0.49832883477211  0.3052074611186982  1.0000
  Fe  Fe2       1.0  0.34318873286247253  0.4405162036418915  0.5464940071105958  1.0000
  I   I1        1.0  0.33115702867507935  0.8796447515487671  0.921707272529602  1.0000
  I   I2        1.0  0.342794805765152  0.7331722974777222  0.27225109934806824  1.0000
  Na  Na1       1.0  0.07738441228866577  0.5764597654342651  0.23549367487430578  1.0000
  O   O1        1.0  0.027858171612024304  0.753134548664093  0.9917787909507751  1.0000
  O   O2        1.0  0.5721083879470825  0.02176658995449543  0.08382148295640945  1.0000
  Pd  Pd1       1.0  0.026502540335059162  0.4163729250431061  0.8577187657356263  1.0000
  Zn  Zn1       1.0  0.6037630438804626  0.5511189699172974  0.4774650633335114  1.0000
