data_image0
_chemical_formula_structural       CuH3O3Y5
_chemical_formula_sum              "Cu1 H3 O3 Y5"
_cell_length_a       4.506457537766934
_cell_length_b       6.251210461603654
_cell_length_c       6.240230560302734
_cell_angle_alpha    120.36978006097254
_cell_angle_beta     101.10741425857871
_cell_angle_gamma    119.05077507724302

_space_group_name_H-M_alt    "P 1"
_space_group_IT_number       1

loop_
  _space_group_symop_operation_xyz
  'x, y, z'

loop_
  _atom_site_type_symbol
  _atom_site_label
  _atom_site_symmetry_multiplicity
  _atom_site_fract_x
  _atom_site_fract_y
  _atom_site_fract_z
  _atom_site_occupancy
  Cu  Cu1       1.0  0.14071156084537495  0.7636002302169799  0.1441930085420608  1.0000
  H   H1        1.0  0.7609554529190063  0.5122780799865723  0.0528583899140358  1.0000
  H   H2        1.0  0.13892962038516996  0.24254477024078366  0.8674981594085693  1.0000
  H   H3        1.0  0.1584665030241012  0.3280953168869018  0.522714376449585  1.0000
  O   O1        1.0  0.11740831285715098  0.2975237369537353  0.3698809742927551  1.0000
  O   O2        1.0  0.5587277412414551  0.221253827214241  0.3130617141723633  1.0000
  O   O3        1.0  0.9879956245422363  0.7604890465736388  0.09745137393474572  1.0000
  Y   Y1        1.0  0.6226822137832642  0.48460122942924494  0.29335966706275934  1.0000
  Y   Y2        1.0  0.9526259303092957  0.24289521574974057  0.5776000618934631  1.0000
  Y   Y3        1.0  0.4506086111068725  0.3558946549892425  0.5894144177436829  1.0000
  Y   Y4        1.0  0.7222331762313842  0.6436991691589354  0.998726487159729  1.0000
  Y   Y5        1.0  0.4960990846157073  0.822920799255371  0.19235345721244806  1.0000
