data_image0
_chemical_formula_structural       H2NiOUY7
_chemical_formula_sum              "H2 Ni1 O1 U1 Y7"
_cell_length_a       5.154977928546064
_cell_length_b       7.294438065991586
_cell_length_c       7.494532585144043
_cell_angle_alpha    112.02853490457609
_cell_angle_beta     94.34608003762449
_cell_angle_gamma    107.58535447407738

_space_group_name_H-M_alt    "P 1"
_space_group_IT_number       1

loop_
  _space_group_symop_operation_xyz
  'x, y, z'

loop_
  _atom_site_type_symbol
  _atom_site_label
  _atom_site_symmetry_multiplicity
  _atom_site_fract_x
  _atom_site_fract_y
  _atom_site_fract_z
  _atom_site_occupancy
  H   H1        1.0  0.5353521704673766  0.8774188756942748  0.14023426175117487  1.0000
  H   H2        1.0  0.4224046766757965  0.35076653957366943  0.5191184282302856  1.0000
  Ni  Ni1       1.0  0.5436232089996338  0.5889079570770264  0.9557528495788574  1.0000
  O   O1        1.0  0.8995038270950317  0.6473439335823059  0.9783825874328613  1.0000
  U   U1        1.0  0.21910190582275382  0.9187471866607665  0.4016595482826233  1.0000
  Y   Y1        1.0  0.6609188318252563  0.18042810261249542  0.9474997520446777  1.0000
  Y   Y2        1.0  0.20994418859481812  0.5618335604667664  0.6175153851509094  1.0000
  Y   Y3        1.0  0.4655677378177643  0.6660341024398804  0.09102925658226013  1.0000
  Y   Y4        1.0  0.3130455613136291  0.8963513374328612  0.002385897329077095  1.0000
  Y   Y5        1.0  0.9013693332672119  0.868853986263275  0.4781768321990967  1.0000
  Y   Y6        1.0  0.9047388434410095  0.354109525680542  0.4870987832546234  1.0000
  Y   Y7        1.0  0.6996974945068359  0.43331038951873774  0.1381600052118301  1.0000
