data_image0
_chemical_formula_structural       CuO3W4Y4
_chemical_formula_sum              "Cu1 O3 W4 Y4"
_cell_length_a       3.639855098858586
_cell_length_b       6.468231564434254
_cell_length_c       6.934386730194092
_cell_angle_alpha    88.36376219933243
_cell_angle_beta     85.72564428809994
_cell_angle_gamma    83.55133344395136

_space_group_name_H-M_alt    "P 1"
_space_group_IT_number       1

loop_
  _space_group_symop_operation_xyz
  'x, y, z'

loop_
  _atom_site_type_symbol
  _atom_site_label
  _atom_site_symmetry_multiplicity
  _atom_site_fract_x
  _atom_site_fract_y
  _atom_site_fract_z
  _atom_site_occupancy
  Cu  Cu1       1.0  0.22049207985401154  0.592782199382782  0.31676605343818665  1.0000
  O   O1        1.0  0.478052705526352  0.05639623478055  0.7922444343566895  1.0000
  O   O2        1.0  0.6064518094062805  0.9434174299240112  0.38282331824302673  1.0000
  O   O3        1.0  0.17384283244609833  0.3946102559566498  0.12862879037857056  1.0000
  W   W1        1.0  0.7290517091751099  0.4019109904766083  0.4657492339611054  1.0000
  W   W2        1.0  0.22319960594177246  0.798404335975647  0.1920803040266037  1.0000
  W   W3        1.0  0.6350390315055847  0.7135964632034302  0.5412694215774536  1.0000
  W   W4        1.0  0.7388129830360413  0.0747813731431961  0.010620952583849427  1.0000
  Y   Y1        1.0  0.22489576041698456  0.8621287941932678  0.918855905532837  1.0000
  Y   Y2        1.0  0.2386882156133652  0.4630014896392822  0.5754373073577881  1.0000
  Y   Y3        1.0  0.7146874666213989  0.43052443861961365  0.08152098953723907  1.0000
  Y   Y4        1.0  0.7440732717514038  0.10032554715871811  0.509141206741333  1.0000
