data_image0
_chemical_formula_structural       CuO3W3Y5
_chemical_formula_sum              "Cu1 O3 W3 Y5"
_cell_length_a       4.075558653489363
_cell_length_b       5.927078561774221
_cell_length_c       6.461978435516357
_cell_angle_alpha    85.49169766196547
_cell_angle_beta     84.93270406902583
_cell_angle_gamma    87.1678849928469

_space_group_name_H-M_alt    "P 1"
_space_group_IT_number       1

loop_
  _space_group_symop_operation_xyz
  'x, y, z'

loop_
  _atom_site_type_symbol
  _atom_site_label
  _atom_site_symmetry_multiplicity
  _atom_site_fract_x
  _atom_site_fract_y
  _atom_site_fract_z
  _atom_site_occupancy
  Cu  Cu1       1.0  0.24369512498378754  0.13694274425506592  0.988842248916626  1.0000
  O   O1        1.0  0.49535948038101196  0.303107351064682  0.4490889310836792  1.0000
  O   O2        1.0  0.12854020297527313  0.3560846447944641  0.4695999026298523  1.0000
  O   O3        1.0  0.8041420578956604  0.11319507658481598  0.29767319560050964  1.0000
  W   W1        1.0  0.6248403787612915  0.19580243527889252  0.8112025260925293  1.0000
  W   W2        1.0  0.6170613765716553  0.8448902368545532  0.8008780479431152  1.0000
  W   W3        1.0  0.6374900341033936  0.8299756050109863  0.7796701192855835  1.0000
  Y   Y1        1.0  0.12736022472381592  0.8234078884124756  0.7789649367332458  1.0000
  Y   Y2        1.0  0.8348389267921448  0.205862358212471  0.4157087206840515  1.0000
  Y   Y3        1.0  0.38375383615493774  0.5441118478775024  0.29792520403862  1.0000
  Y   Y4        1.0  0.6305519342422485  0.8392722010612488  0.40745705366134644  1.0000
  Y   Y5        1.0  0.7762571573257446  0.49067580699920654  0.5982968807220459  1.0000
