data_image0
_chemical_formula_structural       CuH3OW2Y5
_chemical_formula_sum              "Cu1 H3 O1 W2 Y5"
_cell_length_a       4.695573201140031
_cell_length_b       5.868229560707801
_cell_length_c       6.217573165893555
_cell_angle_alpha    117.89467038455973
_cell_angle_beta     95.48976596447689
_cell_angle_gamma    90.24610433274138

_space_group_name_H-M_alt    "P 1"
_space_group_IT_number       1

loop_
  _space_group_symop_operation_xyz
  'x, y, z'

loop_
  _atom_site_type_symbol
  _atom_site_label
  _atom_site_symmetry_multiplicity
  _atom_site_fract_x
  _atom_site_fract_y
  _atom_site_fract_z
  _atom_site_occupancy
  Cu  Cu1       1.0  0.2003227174282074  0.44214946031570435  0.021377451717853546  1.0000
  H   H1        1.0  0.9385835528373718  0.8505096435546875  0.18929032981395721  1.0000
  H   H2        1.0  0.6461558938026428  0.34796974062919617  0.07009924203157425  1.0000
  H   H3        1.0  0.28903019428253174  0.47716352343559265  0.6930180788040161  1.0000
  O   O1        1.0  0.5447947382926941  0.5749203562736511  0.5009657740592957  1.0000
  W   W1        1.0  0.41675862669944763  0.9679381251335144  0.7705097794532775  1.0000
  W   W2        1.0  0.7204793691635132  0.3441172242164612  0.5291182398796082  1.0000
  Y   Y1        1.0  0.44256919622421265  0.887875497341156  0.2517048120498657  1.0000
  Y   Y2        1.0  0.1639135628938675  0.8560952544212341  0.6334417462348938  1.0000
  Y   Y3        1.0  0.22102497518062592  0.1755315661430359  0.4592500030994415  1.0000
  Y   Y4        1.0  0.7447131276130676  0.6145691275596619  0.5807187557220459  1.0000
  Y   Y5        1.0  0.7357897162437439  0.6298019886016846  0.7485336065292358  1.0000
