data_image0
_chemical_formula_structural       H3OWY6Zn
_chemical_formula_sum              "H3 O1 W1 Y6 Zn1"
_cell_length_a       5.426648653524766
_cell_length_b       6.154170608398951
_cell_length_c       6.285102367401123
_cell_angle_alpha    66.07062173960551
_cell_angle_beta     63.72023123140621
_cell_angle_gamma    62.65289694830549

_space_group_name_H-M_alt    "P 1"
_space_group_IT_number       1

loop_
  _space_group_symop_operation_xyz
  'x, y, z'

loop_
  _atom_site_type_symbol
  _atom_site_label
  _atom_site_symmetry_multiplicity
  _atom_site_fract_x
  _atom_site_fract_y
  _atom_site_fract_z
  _atom_site_occupancy
  H   H1        1.0  0.34765055775642395  0.9906483292579651  0.7969310879707336  1.0000
  H   H2        1.0  0.30210426449775696  0.2684468626976013  0.3682533800601959  1.0000
  H   H3        1.0  0.47407934069633484  0.20745167136192322  0.973015785217285  1.0000
  O   O1        1.0  0.7925909161567688  0.775545060634613  0.4496422410011291  1.0000
  W   W1        1.0  0.07879761606454849  0.24960172176361084  0.7969300150871277  1.0000
  Y   Y1        1.0  0.6837254762649536  0.04365932568907738  0.8678345680236815  1.0000
  Y   Y2        1.0  0.3289802074432373  0.24899177253246307  0.12852396070957184  1.0000
  Y   Y3        1.0  0.9601219892501831  0.6970826983451843  0.6070115566253662  1.0000
  Y   Y4        1.0  0.07046782225370407  0.47356370091438293  0.04132029414176941  1.0000
  Y   Y5        1.0  0.6874865293502808  0.6203065514564514  0.3062037229537964  1.0000
  Y   Y6        1.0  0.34424924850463867  0.7511252164840698  0.5060691833496094  1.0000
  Zn  Zn1       1.0  0.35052475333213806  0.6720225214958191  0.297486811876297  1.0000
