data_image0
_chemical_formula_structural       HO2PtV2
_chemical_formula_sum              "H1 O2 Pt1 V2"
_cell_length_a       3.00961182651859
_cell_length_b       3.890339024766441
_cell_length_c       5.458456516265869
_cell_angle_alpha    103.44069353628096
_cell_angle_beta     90.58453612888201
_cell_angle_gamma    129.6513684147762

_space_group_name_H-M_alt    "P 1"
_space_group_IT_number       1

loop_
  _space_group_symop_operation_xyz
  'x, y, z'

loop_
  _atom_site_type_symbol
  _atom_site_label
  _atom_site_symmetry_multiplicity
  _atom_site_fract_x
  _atom_site_fract_y
  _atom_site_fract_z
  _atom_site_occupancy
  H   H1        1.0  0.25495287775993347  0.7640992999076843  0.8396468758583069  1.0000
  O   O1        1.0  0.5421057343482971  0.2272024303674698  0.06196598336100578  1.0000
  O   O2        1.0  0.6842352747917175  0.059764984995126724  0.4800635278224945  1.0000
  Pt  Pt1       1.0  0.9590117335319519  0.03239821642637253  0.16991260647773743  1.0000
  V   V1        1.0  0.6818182468414307  0.4596821665763855  0.8563448190689087  1.0000
  V   V2        1.0  0.19223475456237793  0.44642210006713867  0.6754655241966248  1.0000
