data_image0
_chemical_formula_structural       O2V4
_chemical_formula_sum              "O2 V4"
_cell_length_a       3.127731488148312
_cell_length_b       4.7113613447456695
_cell_length_c       5.047211170196533
_cell_angle_alpha    120.93061599862422
_cell_angle_beta     78.35751759747286
_cell_angle_gamma    92.0405964726248

_space_group_name_H-M_alt    "P 1"
_space_group_IT_number       1

loop_
  _space_group_symop_operation_xyz
  'x, y, z'

loop_
  _atom_site_type_symbol
  _atom_site_label
  _atom_site_symmetry_multiplicity
  _atom_site_fract_x
  _atom_site_fract_y
  _atom_site_fract_z
  _atom_site_occupancy
  O   O1        1.0  0.4525651931762695  0.4616447985172272  0.18103665113449097  1.0000
  O   O2        1.0  0.957194685935974  0.9506278038024902  0.8985308408737183  1.0000
  V   V1        1.0  0.9879993796348571  0.019273143261671066  0.6860262155532837  1.0000
  V   V2        1.0  0.9656079411506652  0.22829103469848633  0.18585266172885898  1.0000
  V   V3        1.0  0.4953542351722717  0.30481022596359253  0.9077533483505249  1.0000
  V   V4        1.0  0.494238793849945  0.6484814286231995  0.3631711304187775  1.0000
