data_image0
_chemical_formula_structural       O4V2
_chemical_formula_sum              "O4 V2"
_cell_length_a       3.618478054391298
_cell_length_b       4.448882520913386
_cell_length_c       5.425613880157471
_cell_angle_alpha    94.20703236577651
_cell_angle_beta     105.44372553160812
_cell_angle_gamma    147.0942791804075

_space_group_name_H-M_alt    "P 1"
_space_group_IT_number       1

loop_
  _space_group_symop_operation_xyz
  'x, y, z'

loop_
  _atom_site_type_symbol
  _atom_site_label
  _atom_site_symmetry_multiplicity
  _atom_site_fract_x
  _atom_site_fract_y
  _atom_site_fract_z
  _atom_site_occupancy
  O   O1        1.0  0.34726187586784363  0.7154726386070251  0.6363418698310852  1.0000
  O   O2        1.0  0.38243439793586725  0.9444504380226135  0.6550911664962769  1.0000
  O   O3        1.0  0.07510753720998764  0.39700257778167725  0.8927983045578003  1.0000
  O   O4        1.0  0.6790487170219421  0.05937902256846428  0.657582700252533  1.0000
  V   V1        1.0  0.30987653136253357  0.2484036087989807  0.09436343610286713  1.0000
  V   V2        1.0  0.002916938392445397  0.6162005662918091  0.4030188024044037  1.0000
