data_image0
_chemical_formula_structural       PPd2RbS3Si3
_chemical_formula_sum              "P1 Pd2 Rb1 S3 Si3"
_cell_length_a       6.374966327285856
_cell_length_b       6.937510990473171
_cell_length_c       7.3814191818237305
_cell_angle_alpha    73.49597186314685
_cell_angle_beta     61.53041536837042
_cell_angle_gamma    59.88356898648177

_space_group_name_H-M_alt    "P 1"
_space_group_IT_number       1

loop_
  _space_group_symop_operation_xyz
  'x, y, z'

loop_
  _atom_site_type_symbol
  _atom_site_label
  _atom_site_symmetry_multiplicity
  _atom_site_fract_x
  _atom_site_fract_y
  _atom_site_fract_z
  _atom_site_occupancy
  P   P1        1.0  0.1714552938938141  0.1353679746389389  0.10368381440639496  1.0000
  Pd  Pd1       1.0  0.029041191563010136  0.6995123028755189  0.954066276550293  1.0000
  Pd  Pd2       1.0  0.7261661887168884  0.8545184135437013  0.9687380194664001  1.0000
  Rb  Rb1       1.0  0.7073191404342651  0.2839641571044922  0.6879818439483643  1.0000
  S   S1        1.0  0.9906752109527588  0.3658877611160279  0.1873351484537124  1.0000
  S   S2        1.0  0.3713825047016143  0.9546815156936647  0.2899843752384186  1.0000
  S   S3        1.0  0.6324935555458069  0.4253240525722504  0.713297426700592  1.0000
  Si  Si1       1.0  0.4829774498939514  0.6677316427230835  0.4537619948387146  1.0000
  Si  Si2       1.0  0.348059207201004  0.38369435071945196  0.027203770354390144  1.0000
  Si  Si3       1.0  0.9767120480537415  0.9801964759826661  0.9495389461517333  1.0000
