data_image0
_chemical_formula_structural       P2Pd2S4Si2
_chemical_formula_sum              "P2 Pd2 S4 Si2"
_cell_length_a       6.857355729653435
_cell_length_b       6.442672978409078
_cell_length_c       8.497296333312988
_cell_angle_alpha    66.61639388347214
_cell_angle_beta     65.62300830002472
_cell_angle_gamma    58.23730594008644

_space_group_name_H-M_alt    "P 1"
_space_group_IT_number       1

loop_
  _space_group_symop_operation_xyz
  'x, y, z'

loop_
  _atom_site_type_symbol
  _atom_site_label
  _atom_site_symmetry_multiplicity
  _atom_site_fract_x
  _atom_site_fract_y
  _atom_site_fract_z
  _atom_site_occupancy
  P   P1        1.0  0.7897366881370544  0.8980701565742493  0.7145737409591675  1.0000
  P   P2        1.0  0.14964045584201813  0.6402182579040527  0.02234693616628647  1.0000
  Pd  Pd1       1.0  0.15054377913475037  0.32623860239982605  0.7138082385063171  1.0000
  Pd  Pd2       1.0  0.5704997777938843  0.14568592607975006  0.011675581336021397  1.0000
  S   S1        1.0  0.9122244715690614  0.5916103720664978  0.3421866297721863  1.0000
  S   S2        1.0  0.5355104804039001  0.888748049736023  0.5808365941047668  1.0000
  S   S3        1.0  0.3502485454082489  0.38473621010780334  0.4668111503124237  1.0000
  S   S4        1.0  0.6498776078224182  0.08020827174186707  0.8284010887145996  1.0000
  Si  Si1       1.0  0.04364747181534767  0.8431209325790405  0.0955168753862381  1.0000
  Si  Si2       1.0  0.04688015207648277  0.34812021255493164  0.5856321454048157  1.0000
