data_image0
_chemical_formula_structural       FOPd2RhS4Tl
_chemical_formula_sum              "F1 O1 Pd2 Rh1 S4 Tl1"
_cell_length_a       5.7246034975231845
_cell_length_b       5.1197908638803815
_cell_length_c       5.9417290687561035
_cell_angle_alpha    61.42326511426005
_cell_angle_beta     65.1164154549215
_cell_angle_gamma    52.623332027520746

_space_group_name_H-M_alt    "P 1"
_space_group_IT_number       1

loop_
  _space_group_symop_operation_xyz
  'x, y, z'

loop_
  _atom_site_type_symbol
  _atom_site_label
  _atom_site_symmetry_multiplicity
  _atom_site_fract_x
  _atom_site_fract_y
  _atom_site_fract_z
  _atom_site_occupancy
  F   F1        1.0  0.12584207952022552  0.24798692762851715  0.6077130436897278  1.0000
  O   O1        1.0  0.8277534246444702  0.12107399106025696  0.4367322027683258  1.0000
  Pd  Pd1       1.0  0.5292996168136597  0.6199259757995605  0.4523368179798126  1.0000
  Pd  Pd2       1.0  0.975555956363678  0.5886797308921814  0.32678720355033875  1.0000
  Rh  Rh1       1.0  0.5267049670219421  0.07921656221151352  0.7667480707168579  1.0000
  S   S1        1.0  0.1831984519958496  0.646918535232544  0.9593625664710999  1.0000
  S   S2        1.0  0.5502575039863586  0.45564690232276917  0.457882821559906  1.0000
  S   S3        1.0  0.9394352436065674  0.8332528471946716  0.10389076173305511  1.0000
  S   S4        1.0  0.7000851631164551  0.38891324400901794  0.7265816330909729  1.0000
  Tl  Tl1       1.0  0.17028923332691193  0.10859603434801102  0.9857508540153503  1.0000
