data_image0
_chemical_formula_structural       PPd2S5Si2
_chemical_formula_sum              "P1 Pd2 S5 Si2"
_cell_length_a       6.376359031466284
_cell_length_b       6.94079668803382
_cell_length_c       7.235772609710693
_cell_angle_alpha    74.9539741928879
_cell_angle_beta     64.85203695141769
_cell_angle_gamma    60.8770367245678

_space_group_name_H-M_alt    "P 1"
_space_group_IT_number       1

loop_
  _space_group_symop_operation_xyz
  'x, y, z'

loop_
  _atom_site_type_symbol
  _atom_site_label
  _atom_site_symmetry_multiplicity
  _atom_site_fract_x
  _atom_site_fract_y
  _atom_site_fract_z
  _atom_site_occupancy
  P   P1        1.0  0.42101335525512695  0.681673526763916  0.38417840003967285  1.0000
  Pd  Pd1       1.0  0.6313904523849487  0.9126541614532471  0.4805230796337128  1.0000
  Pd  Pd2       1.0  0.7853955626487732  0.682840883731842  0.7702581286430359  1.0000
  S   S1        1.0  0.9896368384361266  0.6415923833847046  0.4896409809589386  1.0000
  S   S2        1.0  0.8439488410949707  0.5231810212135315  0.1528281271457672  1.0000
  S   S3        1.0  0.16205066442489624  0.07243787497282028  0.14333011209964752  1.0000
  S   S4        1.0  0.576613187789917  0.14843077957630157  0.15275560319423676  1.0000
  S   S5        1.0  0.2296197414398193  0.028094587847590446  0.6758865118026733  1.0000
  Si  Si1       1.0  0.7558976411819458  0.6823388934135437  0.9362151026725769  1.0000
  Si  Si2       1.0  0.1387375444173813  0.605513870716095  0.9821562767028809  1.0000
