data_image0
_chemical_formula_structural       MgPdRbS4Si3
_chemical_formula_sum              "Mg1 Pd1 Rb1 S4 Si3"
_cell_length_a       6.969040274787257
_cell_length_b       6.558661432249373
_cell_length_c       6.756418704986572
_cell_angle_alpha    61.97379999233326
_cell_angle_beta     60.205319006694644
_cell_angle_gamma    58.02527672591449

_space_group_name_H-M_alt    "P 1"
_space_group_IT_number       1

loop_
  _space_group_symop_operation_xyz
  'x, y, z'

loop_
  _atom_site_type_symbol
  _atom_site_label
  _atom_site_symmetry_multiplicity
  _atom_site_fract_x
  _atom_site_fract_y
  _atom_site_fract_z
  _atom_site_occupancy
  Mg  Mg1       1.0  0.31898024678230286  0.6641659736633301  0.5909022092819214  1.0000
  Pd  Pd1       1.0  0.9828220009803772  0.9143124818801879  0.4626666605472566  1.0000
  Rb  Rb1       1.0  0.7996799945831299  0.6059576869010925  0.12282858043909073  1.0000
  S   S1        1.0  0.35534948110580444  0.110542856156826  0.4225640296936035  1.0000
  S   S2        1.0  0.9944019913673401  0.9272848963737487  0.8915734887123108  1.0000
  S   S3        1.0  0.6904422044754028  0.44252061843872065  0.7337403893470764  1.0000
  S   S4        1.0  0.5672063231468201  0.6247717142105103  0.8948526978492737  1.0000
  Si  Si1       1.0  0.8690171241760254  0.6133655905723572  0.007151455618441039  1.0000
  Si  Si2       1.0  0.789024829864502  0.6667119860649109  0.24032190442085266  1.0000
  Si  Si3       1.0  0.19308365881443024  0.19617313146591187  0.24036426842212677  1.0000
