data_image0
_chemical_formula_structural       Pd5Rb2S3
_chemical_formula_sum              "Pd5 Rb2 S3"
_cell_length_a       6.904025165311358
_cell_length_b       6.973019378720886
_cell_length_c       7.411404609680176
_cell_angle_alpha    68.6520121531706
_cell_angle_beta     63.902529052362894
_cell_angle_gamma    63.14254026346468

_space_group_name_H-M_alt    "P 1"
_space_group_IT_number       1

loop_
  _space_group_symop_operation_xyz
  'x, y, z'

loop_
  _atom_site_type_symbol
  _atom_site_label
  _atom_site_symmetry_multiplicity
  _atom_site_fract_x
  _atom_site_fract_y
  _atom_site_fract_z
  _atom_site_occupancy
  Pd  Pd1       1.0  0.3780662417411804  0.7806453704833984  0.18388758599758145  1.0000
  Pd  Pd2       1.0  0.0689549520611763  0.47339344024658203  0.9192574620246886  1.0000
  Pd  Pd3       1.0  0.16584521532058716  0.07300971448421478  0.5735933780670166  1.0000
  Pd  Pd4       1.0  0.6238142848014832  0.5893546938896179  0.46351090073585505  1.0000
  Pd  Pd5       1.0  0.6271139979362488  0.4661698639392853  0.8886663913726806  1.0000
  Rb  Rb1       1.0  0.0677676871418953  0.1353851556777954  0.1685487776994705  1.0000
  Rb  Rb2       1.0  0.08804325014352798  0.11971860378980637  0.17990942299365995  1.0000
  S   S1        1.0  0.38758713006973267  0.8141959309577942  0.6898545026779174  1.0000
  S   S2        1.0  0.39705532789230347  0.1736973077058792  0.021739812567830082  1.0000
  S   S3        1.0  0.018398722633719444  0.9261924028396606  0.16902598738670346  1.0000
