data_image0
_chemical_formula_structural       Ba4FGeI2Ti2
_chemical_formula_sum              "Ba4 F1 Ge1 I2 Ti2"
_cell_length_a       6.542167515139892
_cell_length_b       6.595272816326694
_cell_length_c       7.487133979797363
_cell_angle_alpha    76.71819554164146
_cell_angle_beta     70.93429445849178
_cell_angle_gamma    62.27679933176671

_space_group_name_H-M_alt    "P 1"
_space_group_IT_number       1

loop_
  _space_group_symop_operation_xyz
  'x, y, z'

loop_
  _atom_site_type_symbol
  _atom_site_label
  _atom_site_symmetry_multiplicity
  _atom_site_fract_x
  _atom_site_fract_y
  _atom_site_fract_z
  _atom_site_occupancy
  Ba  Ba1       1.0  0.1982407420873642  0.6117792129516602  0.0028863907791674137  1.0000
  Ba  Ba2       1.0  0.30201026797294617  0.9519078135490417  0.3476572334766388  1.0000
  Ba  Ba3       1.0  0.2982783615589142  0.3119330108165741  0.9675197601318359  1.0000
  Ba  Ba4       1.0  0.2962179481983185  0.8725327849388123  0.018844926729798317  1.0000
  F   F1        1.0  0.838192880153656  0.6398889422416687  0.0965326726436615  1.0000
  Ge  Ge1       1.0  0.818094789981842  0.9100394248962402  0.10309599339962006  1.0000
  I   I1        1.0  0.5650713443756104  0.637063205242157  0.5223932266235352  1.0000
  I   I2        1.0  0.8052321076393127  0.8630641102790833  0.2312222272157669  1.0000
  Ti  Ti1       1.0  0.7343311905860901  0.8824876546859741  0.7738780975341797  1.0000
  Ti  Ti2       1.0  0.7474130392074585  0.8539912104606628  0.11517385393381119  1.0000
