data_image0
_chemical_formula_structural       AsBa4Dy2OSb2
_chemical_formula_sum              "As1 Ba4 Dy2 O1 Sb2"
_cell_length_a       1.9517123754295238
_cell_length_b       6.428119822415338
_cell_length_c       10.23711109161377
_cell_angle_alpha    101.31652087439112
_cell_angle_beta     92.8704635907933
_cell_angle_gamma    46.20725341076714

_space_group_name_H-M_alt    "P 1"
_space_group_IT_number       1

loop_
  _space_group_symop_operation_xyz
  'x, y, z'

loop_
  _atom_site_type_symbol
  _atom_site_label
  _atom_site_symmetry_multiplicity
  _atom_site_fract_x
  _atom_site_fract_y
  _atom_site_fract_z
  _atom_site_occupancy
  As  As1       1.0  0.135899156332016  0.013412865810096264  0.25930023193359375  1.0000
  Ba  Ba1       1.0  0.6602053046226501  0.8747883439064026  0.12102040648460388  1.0000
  Ba  Ba2       1.0  0.6525291204452515  0.7544982433319092  0.16029973328113556  1.0000
  Ba  Ba3       1.0  0.17198240756988525  0.33431801199913025  0.8282195925712585  1.0000
  Ba  Ba4       1.0  0.6382083892822266  0.543799877166748  0.7540610432624817  1.0000
  Dy  Dy1       1.0  0.17247970402240753  0.4281099736690521  0.23634473979473114  1.0000
  Dy  Dy2       1.0  0.64537113904953  0.2583453953266144  0.11333157122135162  1.0000
  O   O1        1.0  0.6461713910102844  0.4045828878879547  0.24270464479923248  1.0000
  Sb  Sb1       1.0  0.6687774062156677  0.6291084289550781  0.7397711873054504  1.0000
  Sb  Sb2       1.0  0.13809563219547272  0.530394434928894  0.7640852332115173  1.0000
