data_image0
_chemical_formula_structural       Ba8GeO
_chemical_formula_sum              "Ba8 Ge1 O1"
_cell_length_a       5.496081974006764
_cell_length_b       8.21141426532784
_cell_length_c       9.652655601501465
_cell_angle_alpha    116.86253406031287
_cell_angle_beta     92.42314785484709
_cell_angle_gamma    92.6963998604237

_space_group_name_H-M_alt    "P 1"
_space_group_IT_number       1

loop_
  _space_group_symop_operation_xyz
  'x, y, z'

loop_
  _atom_site_type_symbol
  _atom_site_label
  _atom_site_symmetry_multiplicity
  _atom_site_fract_x
  _atom_site_fract_y
  _atom_site_fract_z
  _atom_site_occupancy
  Ba  Ba1       1.0  0.6946035027503967  0.7646873593330383  0.46310508251190186  1.0000
  Ba  Ba2       1.0  0.6981024742126465  0.9160832166671753  0.5385639071464539  1.0000
  Ba  Ba3       1.0  0.6961609125137329  0.508855938911438  0.21387602388858792  1.0000
  Ba  Ba4       1.0  0.8918489217758178  0.7810825705528259  0.5244817137718201  1.0000
  Ba  Ba5       1.0  0.027191238477826115  0.03283547982573509  0.9626222252845764  1.0000
  Ba  Ba6       1.0  0.20672500133514402  0.44112440943717957  0.7964969873428345  1.0000
  Ba  Ba7       1.0  0.19329051673412323  0.3054756820201874  0.13815827667713163  1.0000
  Ba  Ba8       1.0  0.6788567304611206  0.13150346279144287  0.4969753623008728  1.0000
  Ge  Ge1       1.0  0.41289743781089777  0.420107364654541  0.3591115474700928  1.0000
  O   O1        1.0  0.536493718624115  0.774178147315979  0.6788557171821594  1.0000
