data_image0
_chemical_formula_structural       Ba4OSb5
_chemical_formula_sum              "Ba4 O1 Sb5"
_cell_length_a       6.146585703030642
_cell_length_b       6.232735342662672
_cell_length_c       8.08261775970459
_cell_angle_alpha    129.73581670672758
_cell_angle_beta     92.92611604976378
_cell_angle_gamma    84.95601542604282

_space_group_name_H-M_alt    "P 1"
_space_group_IT_number       1

loop_
  _space_group_symop_operation_xyz
  'x, y, z'

loop_
  _atom_site_type_symbol
  _atom_site_label
  _atom_site_symmetry_multiplicity
  _atom_site_fract_x
  _atom_site_fract_y
  _atom_site_fract_z
  _atom_site_occupancy
  Ba  Ba1       1.0  0.34228312969207764  0.23272915184497833  0.3104926347732544  1.0000
  Ba  Ba2       1.0  0.3436864912509918  0.6090894341468811  0.7767552137374878  1.0000
  Ba  Ba3       1.0  0.8405067324638368  0.7873817086219788  0.1615178883075714  1.0000
  Ba  Ba4       1.0  0.8335427641868592  0.07886599749326706  0.9127868413925171  1.0000
  O   O1        1.0  0.8344216346740724  0.22353044152259827  0.34514379501342773  1.0000
  Sb  Sb1       1.0  0.3366677463054657  0.5478579998016357  0.4010215401649475  1.0000
  Sb  Sb2       1.0  0.33825185894966125  0.5460907220840454  0.46275976300239563  1.0000
  Sb  Sb3       1.0  0.34113141894340515  0.2970849275588989  0.5907648801803589  1.0000
  Sb  Sb4       1.0  0.840355157852173  0.9991648197174072  0.15435370802879333  1.0000
  Sb  Sb5       1.0  0.04749889299273491  0.6083066463470459  0.8966608047485352  1.0000
