data_image0
_chemical_formula_structural       Ba4O3Sb3
_chemical_formula_sum              "Ba4 O3 Sb3"
_cell_length_a       6.407761605419212
_cell_length_b       6.320174249192433
_cell_length_c       9.488136291503906
_cell_angle_alpha    113.3140411432791
_cell_angle_beta     113.81420489076501
_cell_angle_gamma    99.63400604567006

_space_group_name_H-M_alt    "P 1"
_space_group_IT_number       1

loop_
  _space_group_symop_operation_xyz
  'x, y, z'

loop_
  _atom_site_type_symbol
  _atom_site_label
  _atom_site_symmetry_multiplicity
  _atom_site_fract_x
  _atom_site_fract_y
  _atom_site_fract_z
  _atom_site_occupancy
  Ba  Ba1       1.0  0.9928752183914185  0.040505409240722656  0.5923565626144409  1.0000
  Ba  Ba2       1.0  0.6237000226974487  0.26048794388771057  0.049294210970401764  1.0000
  Ba  Ba3       1.0  0.3613194227218628  0.6125772595405579  0.9568367004394532  1.0000
  Ba  Ba4       1.0  0.019576063379645348  0.9875715970993042  0.4703230261802674  1.0000
  O   O1        1.0  0.12529192864894867  0.9612730741500854  0.020008426159620285  1.0000
  O   O2        1.0  0.6485611200332642  0.24741798639297485  0.4335494935512543  1.0000
  O   O3        1.0  0.5713315010070801  0.702820360660553  0.331949919462204  1.0000
  Sb  Sb1       1.0  0.5884144902229309  0.956391453742981  0.866062581539154  1.0000
  Sb  Sb2       1.0  0.05123964697122574  0.07176610082387924  0.20704059302806854  1.0000
  Sb  Sb3       1.0  0.3862811028957367  0.14331959187984467  0.2853872776031494  1.0000
