data_image0
_chemical_formula_structural       Ba7GeISb
_chemical_formula_sum              "Ba7 Ge1 I1 Sb1"
_cell_length_a       6.630189436246332
_cell_length_b       5.78035769838997
_cell_length_c       9.661405563354492
_cell_angle_alpha    117.77843434318314
_cell_angle_beta     110.29510353830314
_cell_angle_gamma    131.18663512367948

_space_group_name_H-M_alt    "P 1"
_space_group_IT_number       1

loop_
  _space_group_symop_operation_xyz
  'x, y, z'

loop_
  _atom_site_type_symbol
  _atom_site_label
  _atom_site_symmetry_multiplicity
  _atom_site_fract_x
  _atom_site_fract_y
  _atom_site_fract_z
  _atom_site_occupancy
  Ba  Ba1       1.0  0.9607298970222473  0.12692129611968986  0.5920441746711731  1.0000
  Ba  Ba2       1.0  0.905007541179657  0.48839026689529413  0.1449508368968964  1.0000
  Ba  Ba3       1.0  0.5023543238639832  0.1442437916994095  0.1941858381032944  1.0000
  Ba  Ba4       1.0  0.9342970252037046  0.2341977059841155  0.7977048158645629  1.0000
  Ba  Ba5       1.0  0.4177571535110472  0.3882515132427214  0.7146384716033934  1.0000
  Ba  Ba6       1.0  0.14746242761611925  0.863850176334381  0.9404336810112  1.0000
  Ba  Ba7       1.0  0.9024716019630432  0.5055857896804808  0.5442148447036743  1.0000
  Ge  Ge1       1.0  0.9249538779258726  0.1306793838739394  0.8798500895500183  1.0000
  I   I1        1.0  0.6022307872772215  0.8593016862869262  0.4314538836479187  1.0000
  Sb  Sb1       1.0  0.6276599168777466  0.5477650165557861  0.5887469053268433  1.0000
