data_image0
_chemical_formula_structural       K4Ni2O7
_chemical_formula_sum              "K4 Ni2 O7"
_cell_length_a       5.49635813257623
_cell_length_b       6.993707642793587
_cell_length_c       6.861733436584473
_cell_angle_alpha    75.49478353724072
_cell_angle_beta     64.81232413037704
_cell_angle_gamma    69.36949719036072

_space_group_name_H-M_alt    "P 1"
_space_group_IT_number       1

loop_
  _space_group_symop_operation_xyz
  'x, y, z'

loop_
  _atom_site_type_symbol
  _atom_site_label
  _atom_site_symmetry_multiplicity
  _atom_site_fract_x
  _atom_site_fract_y
  _atom_site_fract_z
  _atom_site_occupancy
  K   K1        1.0  0.8327805995941162  0.6761336922645569  0.4657962918281555  1.0000
  K   K2        1.0  0.8029221296310425  0.3960424065589905  0.7835734486579895  1.0000
  K   K3        1.0  0.316119521856308  0.5907360911369324  0.7371364831924438  1.0000
  K   K4        1.0  0.28804174065589905  0.013132870197296143  0.4020974040031433  1.0000
  Ni  Ni1       1.0  0.3175106942653656  0.9388793110847473  0.2992618680000305  1.0000
  Ni  Ni2       1.0  0.87272709608078  0.126732736825943  0.5662212371826172  1.0000
  O   O1        1.0  0.5472233891487122  0.8587915301322937  0.26645752787590027  1.0000
  O   O2        1.0  0.24565726518630981  0.6769289374351501  0.008235612884163857  1.0000
  O   O3        1.0  0.7437834143638611  0.18661703169345856  0.5121361017227173  1.0000
  O   O4        1.0  0.36206090450286865  0.21015727519989014  0.9707738161087036  1.0000
  O   O5        1.0  0.8472991585731506  0.42702215909957886  0.047554340213537216  1.0000
  O   O6        1.0  0.04118291661143303  0.9964015483856201  0.12460188567638397  1.0000
  O   O7        1.0  0.36925020813941956  0.4502890408039093  0.2978323996067047  1.0000
