data_image0
_chemical_formula_structural       GaHK2NaNiO6V
_chemical_formula_sum              "Ga1 H1 K2 Na1 Ni1 O6 V1"
_cell_length_a       5.530666603060843
_cell_length_b       6.603555049889134
_cell_length_c       6.533573150634766
_cell_angle_alpha    71.60680950326388
_cell_angle_beta     66.07390476476297
_cell_angle_gamma    67.94219004278541

_space_group_name_H-M_alt    "P 1"
_space_group_IT_number       1

loop_
  _space_group_symop_operation_xyz
  'x, y, z'

loop_
  _atom_site_type_symbol
  _atom_site_label
  _atom_site_symmetry_multiplicity
  _atom_site_fract_x
  _atom_site_fract_y
  _atom_site_fract_z
  _atom_site_occupancy
  Ga  Ga1       1.0  0.2731408178806305  0.583511471748352  0.5484654307365417  1.0000
  H   H1        1.0  0.8688369989395143  0.8559182882308961  0.7351771593093872  1.0000
  K   K1        1.0  0.2807798981666565  0.0956038236618042  0.42493024468421936  1.0000
  K   K2        1.0  0.26531273126602173  0.08289701491594315  0.10553238540887833  1.0000
  Na  Na1       1.0  0.7677828073501587  0.5954431891441345  0.8712926506996155  1.0000
  Ni  Ni1       1.0  0.7831778526306152  0.1026321053504944  0.6279700398445129  1.0000
  O   O1        1.0  0.1480526030063629  0.8893417716026307  0.9220919013023376  1.0000
  O   O2        1.0  0.5695269107818604  0.7176175117492676  0.1081373542547226  1.0000
  O   O3        1.0  0.5320436358451843  0.8866066336631776  0.39748671650886536  1.0000
  O   O4        1.0  0.59430992603302  0.3768995404243469  0.7277289628982544  1.0000
  O   O5        1.0  0.020749876275658607  0.38096511363983154  0.3975696265697479  1.0000
  O   O6        1.0  0.5355181097984314  0.11568073183298112  0.4083736538887024  1.0000
  V   V1        1.0  0.5226749181747437  0.9193396568298341  0.8884227871894836  1.0000
