data_image0
_chemical_formula_structural       AlClGaNa2O7V
_chemical_formula_sum              "Al1 Cl1 Ga1 Na2 O7 V1"
_cell_length_a       5.641829664263744
_cell_length_b       6.206598527313176
_cell_length_c       6.1895670890808105
_cell_angle_alpha    70.32082696018962
_cell_angle_beta     65.26578034621922
_cell_angle_gamma    68.72165529467904

_space_group_name_H-M_alt    "P 1"
_space_group_IT_number       1

loop_
  _space_group_symop_operation_xyz
  'x, y, z'

loop_
  _atom_site_type_symbol
  _atom_site_label
  _atom_site_symmetry_multiplicity
  _atom_site_fract_x
  _atom_site_fract_y
  _atom_site_fract_z
  _atom_site_occupancy
  Al  Al1       1.0  0.7965299487113953  0.2024092972278595  0.0084124356508255  1.0000
  Cl  Cl1       1.0  0.5721489191055298  0.457381933927536  0.0418650358915329  1.0000
  Ga  Ga1       1.0  0.21568237245082855  0.06439196318387985  0.7542323470115662  1.0000
  Na  Na1       1.0  0.5268828272819519  0.9597683548927307  0.5466094017028809  1.0000
  Na  Na2       1.0  0.017534786835312843  0.9306515455245972  0.97868412733078  1.0000
  O   O1        1.0  0.7743743062019348  0.9768738150596619  0.04418729618191719  1.0000
  O   O2        1.0  0.4747146666049957  0.47065889835357666  0.5587203502655029  1.0000
  O   O3        1.0  0.367096871137619  0.5001170039176941  0.027112372219562492  1.0000
  O   O4        1.0  0.0136628532782197  0.7048341035842896  0.19556593894958496  1.0000
  O   O5        1.0  0.5934812426567078  0.9642121195793152  0.32606443762779236  1.0000
  O   O6        1.0  0.9899195432662964  0.397845059633255  0.23417013883590698  1.0000
  O   O7        1.0  0.9741557836532593  0.46865594387054443  0.08838749676942825  1.0000
  V   V1        1.0  0.9786669611930847  0.17185285687446594  0.7671854496002197  1.0000
