data_image0
_chemical_formula_structural       Cr6KMoNaO4
_chemical_formula_sum              "Cr6 K1 Mo1 Na1 O4"
_cell_length_a       6.076955008663601
_cell_length_b       7.5949303163401565
_cell_length_c       8.075998306274414
_cell_angle_alpha    118.22550226004775
_cell_angle_beta     96.75767233393385
_cell_angle_gamma    89.79442094386077

_space_group_name_H-M_alt    "P 1"
_space_group_IT_number       1

loop_
  _space_group_symop_operation_xyz
  'x, y, z'

loop_
  _atom_site_type_symbol
  _atom_site_label
  _atom_site_symmetry_multiplicity
  _atom_site_fract_x
  _atom_site_fract_y
  _atom_site_fract_z
  _atom_site_occupancy
  Cr  Cr1       1.0  0.3740902543067932  0.5450872182846069  0.5938385725021362  1.0000
  Cr  Cr2       1.0  0.5088501572608948  0.8316540122032167  0.9785318970680237  1.0000
  Cr  Cr3       1.0  0.5047948956489564  0.04594386368989945  0.2672651410102844  1.0000
  Cr  Cr4       1.0  0.37054014205932617  0.5416833162307739  0.8015688061714172  1.0000
  Cr  Cr5       1.0  0.8673695921897888  0.45875549316406256  0.10226654261350632  1.0000
  Cr  Cr6       1.0  0.8862751722335815  0.9238718152046205  0.08814705908298492  1.0000
  K   K1        1.0  0.007021012250334034  0.8386229872703553  0.9731230735778809  1.0000
  Mo  Mo1       1.0  0.02501428872346878  0.31118783354759216  0.5339825749397278  1.0000
  Na  Na1       1.0  0.5175732374191284  0.08153136819601059  0.3820096552371979  1.0000
  O   O1        1.0  0.015426518395543098  0.5420270562171936  0.4796541631221771  1.0000
  O   O2        1.0  0.9971708059310913  0.5665944218635559  0.7975175976753235  1.0000
  O   O3        1.0  0.6864275932312012  0.8339911699295045  0.7843104004859924  1.0000
  O   O4        1.0  0.005198214668780565  0.32837650179862976  0.3128080368041992  1.0000
