data_image0
_chemical_formula_structural       Cr5Mo2O6
_chemical_formula_sum              "Cr5 Mo2 O6"
_cell_length_a       6.8643227717787765
_cell_length_b       6.977034148286963
_cell_length_c       7.268956184387207
_cell_angle_alpha    109.56308603224859
_cell_angle_beta     98.44304187784488
_cell_angle_gamma    114.91636888768998

_space_group_name_H-M_alt    "P 1"
_space_group_IT_number       1

loop_
  _space_group_symop_operation_xyz
  'x, y, z'

loop_
  _atom_site_type_symbol
  _atom_site_label
  _atom_site_symmetry_multiplicity
  _atom_site_fract_x
  _atom_site_fract_y
  _atom_site_fract_z
  _atom_site_occupancy
  Cr  Cr1       1.0  0.6729068756103516  0.7057515978813171  0.19561138749122614  1.0000
  Cr  Cr2       1.0  0.10729846358299255  0.31367963552474976  0.24574403464794162  1.0000
  Cr  Cr3       1.0  0.3346221446990967  0.6939578652381897  0.9152300953865052  1.0000
  Cr  Cr4       1.0  0.6118090152740479  0.20335569977760312  0.5642898082733155  1.0000
  Cr  Cr5       1.0  0.8645045161247253  0.23437996208667752  0.6819598674774171  1.0000
  Mo  Mo1       1.0  0.20950183272361755  0.6701448559761047  0.42288422584533697  1.0000
  Mo  Mo2       1.0  0.591956615447998  0.20382331311702725  0.04891067743301389  1.0000
  O   O1        1.0  0.3722843527793883  0.841041326522827  0.2412126958370209  1.0000
  O   O2        1.0  0.37881535291671753  0.20697021484374997  0.7388248443603517  1.0000
  O   O3        1.0  0.3482133150100708  0.47859624028205866  0.22512668371200564  1.0000
  O   O4        1.0  0.3744104206562041  0.8613607883453368  0.818117380142212  1.0000
  O   O5        1.0  0.6771621704101562  0.6776956915855408  0.9468513727188111  1.0000
  O   O6        1.0  0.36593306064605713  0.7913830876350403  0.24085427820682523  1.0000
