data_image0
_chemical_formula_structural       AlNa2Ni2O7Pr
_chemical_formula_sum              "Al1 Na2 Ni2 O7 Pr1"
_cell_length_a       5.211934411829562
_cell_length_b       6.582711783275518
_cell_length_c       6.524008750915527
_cell_angle_alpha    71.87008158817608
_cell_angle_beta     67.22411958497824
_cell_angle_gamma    67.55989414192219

_space_group_name_H-M_alt    "P 1"
_space_group_IT_number       1

loop_
  _space_group_symop_operation_xyz
  'x, y, z'

loop_
  _atom_site_type_symbol
  _atom_site_label
  _atom_site_symmetry_multiplicity
  _atom_site_fract_x
  _atom_site_fract_y
  _atom_site_fract_z
  _atom_site_occupancy
  Al  Al1       1.0  0.17718918621540064  0.9746460914611818  0.5454496145248413  1.0000
  Na  Na1       1.0  0.4195795953273773  0.41615736484527593  0.6773666143417358  1.0000
  Na  Na2       1.0  0.9573367238044739  0.8938180804252626  0.2644168734550476  1.0000
  Ni  Ni1       1.0  0.3986759781837463  0.7340630888938905  0.02981865406036377  1.0000
  Ni  Ni2       1.0  0.11097788065671918  0.37888592481613165  0.3853646218776703  1.0000
  O   O1        1.0  0.309020459651947  0.6235215663909912  0.7434291839599609  1.0000
  O   O2        1.0  0.5702423453330994  0.0633537769317627  0.290222704410553  1.0000
  O   O3        1.0  0.16615583002567286  0.7560873031616212  0.9569811820983887  1.0000
  O   O4        1.0  0.8901710510253906  0.6449318528175354  0.6477025747299194  1.0000
  O   O5        1.0  0.31296512484550476  0.30848267674446106  0.2460375279188156  1.0000
  O   O6        1.0  0.0700145959854126  0.06043768301606179  0.7524580359458923  1.0000
  O   O7        1.0  0.9097574949264526  0.6859937906265259  0.1771215945482254  1.0000
  Pr  Pr1       1.0  0.03648744523525233  0.928356170654297  0.4063713252544403  1.0000
