data_image0
_chemical_formula_structural       HO2P2PdSZr
_chemical_formula_sum              "H1 O2 P2 Pd1 S1 Zr1"
_cell_length_a       4.995451080657844
_cell_length_b       5.952402911102008
_cell_length_c       6.749115943908691
_cell_angle_alpha    119.44412927527532
_cell_angle_beta     110.08631230542818
_cell_angle_gamma    87.15913774280557

_space_group_name_H-M_alt    "P 1"
_space_group_IT_number       1

loop_
  _space_group_symop_operation_xyz
  'x, y, z'

loop_
  _atom_site_type_symbol
  _atom_site_label
  _atom_site_symmetry_multiplicity
  _atom_site_fract_x
  _atom_site_fract_y
  _atom_site_fract_z
  _atom_site_occupancy
  H   H1        1.0  0.585679292678833  0.5788707137107849  0.11378686875104899  1.0000
  O   O1        1.0  0.23703411221504211  0.7118996977806091  0.26795661449432373  1.0000
  O   O2        1.0  0.7057886123657227  0.21776513755321503  0.2597244083881378  1.0000
  P   P1        1.0  0.17184557020664215  2.2530555725097656e-05  0.07481478899717331  1.0000
  P   P2        1.0  0.5569344758987427  0.7304863333702087  0.638385534286499  1.0000
  Pd  Pd1       1.0  0.2721191644668579  0.5218056440353394  0.6446921229362488  1.0000
  S   S1        1.0  0.9303291440010071  0.22372610867023468  0.008823753334581852  1.0000
  Zr  Zr1       1.0  0.7850332856178284  0.011492274701595306  0.932593822479248  1.0000
