data_image0
_chemical_formula_structural       O3P2PdSSb
_chemical_formula_sum              "O3 P2 Pd1 S1 Sb1"
_cell_length_a       4.595193478672953
_cell_length_b       6.481400892578669
_cell_length_c       6.8893866539001465
_cell_angle_alpha    120.63516749062252
_cell_angle_beta     95.4587301962869
_cell_angle_gamma    88.74250880800406

_space_group_name_H-M_alt    "P 1"
_space_group_IT_number       1

loop_
  _space_group_symop_operation_xyz
  'x, y, z'

loop_
  _atom_site_type_symbol
  _atom_site_label
  _atom_site_symmetry_multiplicity
  _atom_site_fract_x
  _atom_site_fract_y
  _atom_site_fract_z
  _atom_site_occupancy
  O   O1        1.0  0.9735211133956909  0.01604226976633072  0.8355430960655211  1.0000
  O   O2        1.0  0.9892460703849792  0.035396795719861984  0.03100277669727802  1.0000
  O   O3        1.0  0.4880591928958893  0.5217432975769043  0.8622744679450988  1.0000
  P   P1        1.0  0.9791064262390137  0.530168890953064  0.8187337517738341  1.0000
  P   P2        1.0  0.49986329674720764  0.9526697397232056  0.44389283657073975  1.0000
  Pd  Pd1       1.0  0.4758470952510834  0.2917683720588684  0.48867240548133845  1.0000
  S   S1        1.0  0.9867412447929382  0.797547459602356  0.3390869200229644  1.0000
  Sb  Sb1       1.0  0.4732430577278137  0.5214640498161316  0.19008140265941623  1.0000
