data_image0
_chemical_formula_structural       FHfMo2OPbPd2
_chemical_formula_sum              "F1 Hf1 Mo2 O1 Pb1 Pd2"
_cell_length_a       4.743521949419584
_cell_length_b       6.675514690460728
_cell_length_c       6.581871509552002
_cell_angle_alpha    121.22661708030462
_cell_angle_beta     89.83844937299287
_cell_angle_gamma    90.3695316211349

_space_group_name_H-M_alt    "P 1"
_space_group_IT_number       1

loop_
  _space_group_symop_operation_xyz
  'x, y, z'

loop_
  _atom_site_type_symbol
  _atom_site_label
  _atom_site_symmetry_multiplicity
  _atom_site_fract_x
  _atom_site_fract_y
  _atom_site_fract_z
  _atom_site_occupancy
  F   F1        1.0  0.23534061014652252  0.8192440867424011  0.07523322850465775  1.0000
  Hf  Hf1       1.0  0.23309069871902466  0.2488870620727539  0.7147497534751892  1.0000
  Mo  Mo1       1.0  0.7404994368553162  0.014592166990041733  0.004366307519376278  1.0000
  Mo  Mo2       1.0  0.237459197640419  0.6330565214157104  0.2542267143726349  1.0000
  O   O1        1.0  0.7356249094009399  0.526054322719574  0.5847488045692444  1.0000
  Pb  Pb1       1.0  0.23484857380390167  0.19913753867149353  0.3153248131275177  1.0000
  Pd  Pd1       1.0  0.7229614853858948  0.7776241898536682  0.8561827540397644  1.0000
  Pd  Pd2       1.0  0.7391945719718933  0.7633870244026184  0.3707942068576813  1.0000
