data_image0
_chemical_formula_structural       HMoOP2Pd2W
_chemical_formula_sum              "H1 Mo1 O1 P2 Pd2 W1"
_cell_length_a       5.009993423301132
_cell_length_b       5.789971999415253
_cell_length_c       6.712101459503174
_cell_angle_alpha    76.3994012655037
_cell_angle_beta     68.20088845485492
_cell_angle_gamma    65.16377482391408

_space_group_name_H-M_alt    "P 1"
_space_group_IT_number       1

loop_
  _space_group_symop_operation_xyz
  'x, y, z'

loop_
  _atom_site_type_symbol
  _atom_site_label
  _atom_site_symmetry_multiplicity
  _atom_site_fract_x
  _atom_site_fract_y
  _atom_site_fract_z
  _atom_site_occupancy
  H   H1        1.0  0.18851988017559052  0.2689365744590759  0.8090241551399231  1.0000
  Mo  Mo1       1.0  0.7038148641586304  0.473406732082367  0.055775731801986694  1.0000
  O   O1        1.0  0.11859629303216929  0.4901953339576722  0.3417169749736786  1.0000
  P   P1        1.0  0.013495925813913345  0.9272704124450684  0.05471530929207802  1.0000
  P   P2        1.0  0.6891740560531616  0.2699899971485138  0.5387001037597656  1.0000
  Pd  Pd1       1.0  0.12433245778083801  0.6897782683372498  0.3102596402168274  1.0000
  Pd  Pd2       1.0  0.3742913007736206  0.21935993432998657  0.8201112151145935  1.0000
  W   W1        1.0  0.31183183193206787  0.48001492023468023  0.048169076442718506  1.0000
