data_image0
_chemical_formula_structural       Ge5La5Si
_chemical_formula_sum              "Ge5 La5 Si1"
_cell_length_a       4.4274655265756655
_cell_length_b       6.471433863474501
_cell_length_c       8.788458824157715
_cell_angle_alpha    108.60145244300263
_cell_angle_beta     89.54390454482395
_cell_angle_gamma    89.65464116112844

_space_group_name_H-M_alt    "P 1"
_space_group_IT_number       1

loop_
  _space_group_symop_operation_xyz
  'x, y, z'

loop_
  _atom_site_type_symbol
  _atom_site_label
  _atom_site_symmetry_multiplicity
  _atom_site_fract_x
  _atom_site_fract_y
  _atom_site_fract_z
  _atom_site_occupancy
  Ge  Ge1       1.0  0.7067748308181763  0.004983640741556883  0.48011502623558044  1.0000
  Ge  Ge2       1.0  0.7076157331466675  0.7188981771469116  0.5033038258552551  1.0000
  Ge  Ge3       1.0  0.7024520039558411  0.4768094420433044  0.8530378341674805  1.0000
  Ge  Ge4       1.0  0.7068648338317871  0.7415025234222412  0.6202754974365234  1.0000
  Ge  Ge5       1.0  0.7054606080055237  0.9983224272727965  0.2729116380214691  1.0000
  La  La1       1.0  0.20586267113685608  0.4946467280387878  0.6934596300125122  1.0000
  La  La2       1.0  0.20801278948783875  0.02081376314163208  0.5419003963470459  1.0000
  La  La3       1.0  0.20188258588314056  0.5496079921722412  0.10660953074693677  1.0000
  La  La4       1.0  0.2072521299123764  0.11848694831132887  0.6267554759979248  1.0000
  La  La5       1.0  0.707622766494751  0.2066204696893692  0.21852214634418488  1.0000
  Si  Si1       1.0  0.21314401924610138  0.008750131353735924  0.03988385200500488  1.0000
