data_image0
_chemical_formula_structural       Ge5La5P
_chemical_formula_sum              "Ge5 La5 P1"
_cell_length_a       4.210640763649672
_cell_length_b       6.733657996054483
_cell_length_c       9.070185661315918
_cell_angle_alpha    110.10489792330897
_cell_angle_beta     94.28547454121434
_cell_angle_gamma    88.92774319838148

_space_group_name_H-M_alt    "P 1"
_space_group_IT_number       1

loop_
  _space_group_symop_operation_xyz
  'x, y, z'

loop_
  _atom_site_type_symbol
  _atom_site_label
  _atom_site_symmetry_multiplicity
  _atom_site_fract_x
  _atom_site_fract_y
  _atom_site_fract_z
  _atom_site_occupancy
  Ge  Ge1       1.0  0.31461313366889954  0.1186894401907921  0.7326278686523438  1.0000
  Ge  Ge2       1.0  0.31119441986083984  0.729421615600586  0.12585566937923434  1.0000
  Ge  Ge3       1.0  0.8117572665214539  0.9818608164787294  0.24709559977054601  1.0000
  Ge  Ge4       1.0  0.8097485899925233  0.10529264807701112  0.22727598249912262  1.0000
  Ge  Ge5       1.0  0.31029143929481506  0.4346683323383332  0.8302790522575378  1.0000
  La  La1       1.0  0.8269922137260437  0.9607461094856263  0.9234562516212463  1.0000
  La  La2       1.0  0.8110587000846863  0.1771863102912903  0.6395842432975769  1.0000
  La  La3       1.0  0.8082100749015808  0.7470932006835939  0.3762699663639069  1.0000
  La  La4       1.0  0.31826281547546387  0.20879247784614566  0.4225165843963623  1.0000
  La  La5       1.0  0.3170985281467438  0.7655488252639772  0.31104588508605957  1.0000
  P   P1        1.0  0.8190180659294128  0.4724923968315125  0.7037964463233948  1.0000
