data_image0
_chemical_formula_structural       Ge5La5Rh
_chemical_formula_sum              "Ge5 La5 Rh1"
_cell_length_a       4.477310654940433
_cell_length_b       5.984474787928017
_cell_length_c       9.948522567749023
_cell_angle_alpha    104.30576608823404
_cell_angle_beta     90.84079937970101
_cell_angle_gamma    88.40261568370751

_space_group_name_H-M_alt    "P 1"
_space_group_IT_number       1

loop_
  _space_group_symop_operation_xyz
  'x, y, z'

loop_
  _atom_site_type_symbol
  _atom_site_label
  _atom_site_symmetry_multiplicity
  _atom_site_fract_x
  _atom_site_fract_y
  _atom_site_fract_z
  _atom_site_occupancy
  Ge  Ge1       1.0  0.5053410530090332  0.5047511458396912  0.7533420324325562  1.0000
  Ge  Ge2       1.0  0.003915830049663782  0.010008180513978004  0.5228888392448425  1.0000
  Ge  Ge3       1.0  0.002728104591369629  0.15897773206233978  0.3068065643310547  1.0000
  Ge  Ge4       1.0  0.0029516220092773438  0.6196109056472778  0.22622407972812653  1.0000
  Ge  Ge5       1.0  0.5037054419517517  0.010915758088231087  0.28820210695266724  1.0000
  La  La1       1.0  0.5104910731315613  0.6486296057701111  0.9773203730583191  1.0000
  La  La2       1.0  0.5063302516937256  0.5062511563301086  0.28426888585090637  1.0000
  La  La3       1.0  0.01605922356247902  0.1371525675058365  0.04541565477848053  1.0000
  La  La4       1.0  0.5074271559715271  0.9905185103416443  0.3350496292114258  1.0000
  La  La5       1.0  0.004364602733403444  0.8254822492599487  0.3360070586204529  1.0000
  Rh  Rh1       1.0  0.40647050738334656  0.023067763075232506  0.9205941557884216  1.0000
