data_image0
_chemical_formula_structural       Ge2La7Rh2
_chemical_formula_sum              "Ge2 La7 Rh2"
_cell_length_a       4.363987634828531
_cell_length_b       5.527522240592322
_cell_length_c       9.943920135498047
_cell_angle_alpha    103.40162701224507
_cell_angle_beta     92.60759422157969
_cell_angle_gamma    90.30441813901936

_space_group_name_H-M_alt    "P 1"
_space_group_IT_number       1

loop_
  _space_group_symop_operation_xyz
  'x, y, z'

loop_
  _atom_site_type_symbol
  _atom_site_label
  _atom_site_symmetry_multiplicity
  _atom_site_fract_x
  _atom_site_fract_y
  _atom_site_fract_z
  _atom_site_occupancy
  Ge  Ge1       1.0  0.43866047263145447  0.6045559048652649  0.0021291382145136595  1.0000
  Ge  Ge2       1.0  0.93381267786026  0.7110427021980286  0.20207425951957703  1.0000
  La  La1       1.0  0.9369782209396362  0.2588297724723816  0.47207146883010864  1.0000
  La  La2       1.0  0.41130638122558594  0.9363369941711426  0.0674922913312912  1.0000
  La  La3       1.0  0.4355623424053192  0.1801043301820755  0.9036875367164612  1.0000
  La  La4       1.0  0.923706591129303  0.38364899158477783  0.9836111068725586  1.0000
  La  La5       1.0  0.9402225017547607  0.8423252105712891  0.7715650796890259  1.0000
  La  La6       1.0  0.4359365701675415  0.11105838418006897  0.3789514899253845  1.0000
  La  La7       1.0  0.42690208554267883  0.6564832925796509  0.290238618850708  1.0000
  Rh  Rh1       1.0  0.9359539747238159  0.23277698457241058  0.8990707397460938  1.0000
  Rh  Rh2       1.0  0.43530672788619995  0.6726886034011841  0.3926054537296295  1.0000
