data_image0
_chemical_formula_structural       Ge5La6
_chemical_formula_sum              "Ge5 La6"
_cell_length_a       4.550574066888215
_cell_length_b       6.329275687261428
_cell_length_c       9.099088668823242
_cell_angle_alpha    107.32990967410115
_cell_angle_beta     90.35434660788903
_cell_angle_gamma    88.0408841571539

_space_group_name_H-M_alt    "P 1"
_space_group_IT_number       1

loop_
  _space_group_symop_operation_xyz
  'x, y, z'

loop_
  _atom_site_type_symbol
  _atom_site_label
  _atom_site_symmetry_multiplicity
  _atom_site_fract_x
  _atom_site_fract_y
  _atom_site_fract_z
  _atom_site_occupancy
  Ge  Ge1       1.0  0.61794114112854  0.5792166590690613  0.3352058231830597  1.0000
  Ge  Ge2       1.0  0.620735228061676  0.9796736240386963  0.7933829426765442  1.0000
  Ge  Ge3       1.0  0.6089068055152893  0.6794154644012451  0.1425701528787613  1.0000
  Ge  Ge4       1.0  0.11248982697725296  0.5724325180053711  0.3139875829219818  1.0000
  Ge  Ge5       1.0  0.11908824741840363  0.2598820924758911  0.6630359292030334  1.0000
  La  La1       1.0  0.11824136227369308  0.3665829002857208  0.6081655621528625  1.0000
  La  La2       1.0  0.12109140306711197  0.034446850419044495  0.8584416508674622  1.0000
  La  La3       1.0  0.11744234710931778  0.1054270938038826  0.0812457948923111  1.0000
  La  La4       1.0  0.6246925592422485  0.06986378878355026  0.7688859701156616  1.0000
  La  La5       1.0  0.6101945042610168  0.5853517055511475  0.7990546226501465  1.0000
  La  La6       1.0  0.10733221471309662  0.5418683290481567  0.2609342932701111  1.0000
