data_image0
_chemical_formula_structural       Ge3La5Rh3
_chemical_formula_sum              "Ge3 La5 Rh3"
_cell_length_a       4.721095283095494
_cell_length_b       5.5314942729480725
_cell_length_c       9.277498245239258
_cell_angle_alpha    109.69615965140655
_cell_angle_beta     91.76782915128916
_cell_angle_gamma    90.17718133635823

_space_group_name_H-M_alt    "P 1"
_space_group_IT_number       1

loop_
  _space_group_symop_operation_xyz
  'x, y, z'

loop_
  _atom_site_type_symbol
  _atom_site_label
  _atom_site_symmetry_multiplicity
  _atom_site_fract_x
  _atom_site_fract_y
  _atom_site_fract_z
  _atom_site_occupancy
  Ge  Ge1       1.0  0.7764189839363098  0.6362425088882446  0.3816355764865875  1.0000
  Ge  Ge2       1.0  0.779841423034668  0.19111710786819458  0.22080078721046448  1.0000
  Ge  Ge3       1.0  0.2772461771965027  0.06614904850721359  0.8432978391647339  1.0000
  La  La1       1.0  0.27341920137405396  0.29357680678367615  0.7277876138687134  1.0000
  La  La2       1.0  0.7870306372642517  0.8975956439971923  0.9921244382858276  1.0000
  La  La3       1.0  0.26881569623947144  0.6417902708053589  0.48320531845092773  1.0000
  La  La4       1.0  0.28511667251586914  0.19222040474414825  0.7679730653762817  1.0000
  La  La5       1.0  0.7841511368751526  0.4464747309684753  0.5407939553260803  1.0000
  Rh  Rh1       1.0  0.28312209248542786  0.1812681257724762  0.7091968059539794  1.0000
  Rh  Rh2       1.0  0.27457424998283386  0.8285909295082092  0.7025058269500732  1.0000
  Rh  Rh3       1.0  0.2823156714439392  0.2832249104976654  0.2056761533021927  1.0000
