data_image0
_chemical_formula_structural       Bi3ClO5Yb4
_chemical_formula_sum              "Bi3 Cl1 O5 Yb4"
_cell_length_a       6.354577447138242
_cell_length_b       6.991662659580393
_cell_length_c       7.206860542297363
_cell_angle_alpha    63.47660620946798
_cell_angle_beta     61.354702026439305
_cell_angle_gamma    61.98903169515877

_space_group_name_H-M_alt    "P 1"
_space_group_IT_number       1

loop_
  _space_group_symop_operation_xyz
  'x, y, z'

loop_
  _atom_site_type_symbol
  _atom_site_label
  _atom_site_symmetry_multiplicity
  _atom_site_fract_x
  _atom_site_fract_y
  _atom_site_fract_z
  _atom_site_occupancy
  Bi  Bi1       1.0  0.9999581575393677  0.8675035238265991  0.6241483688354492  1.0000
  Bi  Bi2       1.0  0.3876376450061798  0.7124540209770203  0.18809206783771515  1.0000
  Bi  Bi3       1.0  0.49065351486206055  0.8706967830657959  0.8971254229545593  1.0000
  Cl  Cl1       1.0  0.7324085831642151  0.049627870321273804  0.9040834903717041  1.0000
  O   O1        1.0  0.5355845093727112  0.7788423299789429  0.17366094887256622  1.0000
  O   O2        1.0  0.9710282683372498  0.41840898990631104  0.635004460811615  1.0000
  O   O3        1.0  0.707036018371582  0.2619169354438782  0.8646727800369263  1.0000
  O   O4        1.0  0.37937527894973755  0.7659476399421692  0.9306080341339111  1.0000
  O   O5        1.0  0.14124377071857452  0.2571811079978943  0.010248363949358463  1.0000
  Yb  Yb1       1.0  0.8521304130554199  0.5995071530342102  0.11117377132177353  1.0000
  Yb  Yb2       1.0  0.44326719641685486  0.3706734776496887  0.8861750960350037  1.0000
  Yb  Yb3       1.0  0.9583008885383606  0.26381945610046387  0.5043838024139404  1.0000
  Yb  Yb4       1.0  0.4556686580181122  0.2691374719142914  0.5058407187461853  1.0000
