data_image0
_chemical_formula_structural       Bi2Cl2O6SeYb2
_chemical_formula_sum              "Bi2 Cl2 O6 Se1 Yb2"
_cell_length_a       6.07696944149283
_cell_length_b       6.94799726156247
_cell_length_c       6.877260208129883
_cell_angle_alpha    64.99432868282906
_cell_angle_beta     63.39740531948524
_cell_angle_gamma    65.32962570864235

_space_group_name_H-M_alt    "P 1"
_space_group_IT_number       1

loop_
  _space_group_symop_operation_xyz
  'x, y, z'

loop_
  _atom_site_type_symbol
  _atom_site_label
  _atom_site_symmetry_multiplicity
  _atom_site_fract_x
  _atom_site_fract_y
  _atom_site_fract_z
  _atom_site_occupancy
  Bi  Bi1       1.0  0.21928898990154266  0.6485068202018738  0.702972948551178  1.0000
  Bi  Bi2       1.0  0.48218053579330444  0.04629882425069808  0.4492095112800598  1.0000
  Cl  Cl1       1.0  0.6762162446975708  0.24584437906742093  0.8773648738861084  1.0000
  Cl  Cl2       1.0  0.6712304353713989  0.73421972990036  0.2124006152153015  1.0000
  O   O1        1.0  0.9628288149833679  0.5555776357650757  0.9817490577697754  1.0000
  O   O2        1.0  0.31992608308792114  0.4788291752338409  0.40410083532333374  1.0000
  O   O3        1.0  0.9408375024795532  0.7867426872253417  0.6804757714271545  1.0000
  O   O4        1.0  0.9583294987678528  0.19373609125614163  0.5971593856811523  1.0000
  O   O5        1.0  0.47105130553245544  0.42597374320030207  0.9952574372291565  1.0000
  O   O6        1.0  0.4598020911216736  0.1882350295782089  0.9664300680160522  1.0000
  Se  Se1       1.0  0.8670250773429871  0.05544277280569076  0.2899900376796723  1.0000
  Yb  Yb1       1.0  0.14534839987754825  0.9132010340690612  0.9506922364234924  1.0000
  Yb  Yb2       1.0  0.16222381591796875  0.637296199798584  0.35020819306373596  1.0000
