data_image0
_chemical_formula_structural       BBi6ClO3Yb2
_chemical_formula_sum              "B1 Bi6 Cl1 O3 Yb2"
_cell_length_a       7.295828545990902
_cell_length_b       7.466420321753205
_cell_length_c       7.604821681976318
_cell_angle_alpha    62.40424025584963
_cell_angle_beta     62.32891823098483
_cell_angle_gamma    62.6698055409034

_space_group_name_H-M_alt    "P 1"
_space_group_IT_number       1

loop_
  _space_group_symop_operation_xyz
  'x, y, z'

loop_
  _atom_site_type_symbol
  _atom_site_label
  _atom_site_symmetry_multiplicity
  _atom_site_fract_x
  _atom_site_fract_y
  _atom_site_fract_z
  _atom_site_occupancy
  B   B1        1.0  0.1912832409143448  0.4209679663181305  0.9388192892074584  1.0000
  Bi  Bi1       1.0  0.007698190864175558  0.5927115678787231  0.6632019877433776  1.0000
  Bi  Bi2       1.0  0.9539068937301636  0.059532683342695236  0.36819112300872797  1.0000
  Bi  Bi3       1.0  0.5288843512535095  0.21254931390285492  0.08146452158689498  1.0000
  Bi  Bi4       1.0  0.2443699985742569  0.8721227645874023  0.1258034110069276  1.0000
  Bi  Bi5       1.0  0.05462123826146126  0.6364384889602661  0.4938671588897705  1.0000
  Bi  Bi6       1.0  0.7633522748947144  0.8705320954322815  0.08161659538745879  1.0000
  Cl  Cl1       1.0  0.28178107738494873  0.09161758422851562  0.31216937303543085  1.0000
  O   O1        1.0  0.07261121273040771  0.7370845079421997  0.5752094984054565  1.0000
  O   O2        1.0  0.2821768522262573  0.4162953495979309  0.8618173003196715  1.0000
  O   O3        1.0  0.607490599155426  0.6385226249694824  0.6057302355766296  1.0000
  Yb  Yb1       1.0  0.0445220060646534  0.2391396313905716  0.08901766687631607  1.0000
  Yb  Yb2       1.0  0.615108847618103  0.3992164731025696  0.4369480013847351  1.0000
