data_image0
_chemical_formula_structural       BaBi5Cl2O2Y2Yb
_chemical_formula_sum              "Ba1 Bi5 Cl2 O2 Y2 Yb1"
_cell_length_a       7.292742902006889
_cell_length_b       7.481103242950554
_cell_length_c       7.805751800537109
_cell_angle_alpha    61.65904152006787
_cell_angle_beta     60.537196236934356
_cell_angle_gamma    61.16504884542637

_space_group_name_H-M_alt    "P 1"
_space_group_IT_number       1

loop_
  _space_group_symop_operation_xyz
  'x, y, z'

loop_
  _atom_site_type_symbol
  _atom_site_label
  _atom_site_symmetry_multiplicity
  _atom_site_fract_x
  _atom_site_fract_y
  _atom_site_fract_z
  _atom_site_occupancy
  Ba  Ba1       1.0  0.42319464683532715  0.7836456298828125  0.08357888460159302  1.0000
  Bi  Bi1       1.0  0.5338709354400635  0.33579668402671814  0.7224631905555725  1.0000
  Bi  Bi2       1.0  0.1887848973274231  0.31318414211273193  0.5776506662368774  1.0000
  Bi  Bi3       1.0  0.14978983998298645  0.3028407692909241  0.92298424243927  1.0000
  Bi  Bi4       1.0  0.6018432974815369  0.7888790965080261  0.9425991773605347  1.0000
  Bi  Bi5       1.0  0.2330501228570938  0.7620282173156738  0.4524681866168975  1.0000
  Cl  Cl1       1.0  0.1596991866827011  0.07503405958414078  0.35389208793640137  1.0000
  Cl  Cl2       1.0  0.749467134475708  0.1479274481534958  0.786517858505249  1.0000
  O   O1        1.0  0.8062915802001953  0.24835480749607086  0.7928568124771118  1.0000
  O   O2        1.0  0.31298884749412537  0.9574334621429443  0.5493593811988831  1.0000
  Y   Y1        1.0  0.9263518452644348  0.7934225797653198  0.5024424195289612  1.0000
  Y   Y2        1.0  0.4274827837944031  0.7923644781112671  0.5328181385993958  1.0000
  Yb  Yb1       1.0  0.5342690348625183  0.337965726852417  0.21610127389431  1.0000
