data_image0
_chemical_formula_structural       Bi5O4Y3Yb
_chemical_formula_sum              "Bi5 O4 Y3 Yb1"
_cell_length_a       5.101436775586811
_cell_length_b       6.6326306435658235
_cell_length_c       7.458092212677002
_cell_angle_alpha    93.5791471309834
_cell_angle_beta     91.53962359721918
_cell_angle_gamma    88.90885864001308

_space_group_name_H-M_alt    "P 1"
_space_group_IT_number       1

loop_
  _space_group_symop_operation_xyz
  'x, y, z'

loop_
  _atom_site_type_symbol
  _atom_site_label
  _atom_site_symmetry_multiplicity
  _atom_site_fract_x
  _atom_site_fract_y
  _atom_site_fract_z
  _atom_site_occupancy
  Bi  Bi1       1.0  0.626910388469696  0.0591130293905735  0.48998725414276123  1.0000
  Bi  Bi2       1.0  0.6197741627693176  0.7228820323944092  0.7305057644844055  1.0000
  Bi  Bi3       1.0  0.5965551733970642  0.4267835319042206  0.6149516701698303  1.0000
  Bi  Bi4       1.0  0.6162953972816467  0.9798088073730469  0.3053208887577057  1.0000
  Bi  Bi5       1.0  0.11401274800300597  0.5463252663612366  0.777673602104187  1.0000
  O   O1        1.0  0.6087113618850708  0.022497201338410378  0.23121103644371033  1.0000
  O   O2        1.0  0.6155341863632202  0.5045768022537231  0.9864434003829956  1.0000
  O   O3        1.0  0.10693586617708205  0.19556427001953125  0.9706007242202759  1.0000
  O   O4        1.0  0.29845714569091797  0.7436776757240295  0.426446795463562  1.0000
  Y   Y1        1.0  0.10661387443542479  0.02249365672469139  0.3765506446361542  1.0000
  Y   Y2        1.0  0.6186726093292236  0.3702516257762909  0.769634485244751  1.0000
  Y   Y3        1.0  0.16806064546108246  0.046012699604034424  0.9153375625610352  1.0000
  Yb  Yb1       1.0  0.10641422867774962  0.47648027539253235  0.34832102060317993  1.0000
