data_image0
_chemical_formula_structural       Bi5O3Y3Yb2
_chemical_formula_sum              "Bi5 O3 Y3 Yb2"
_cell_length_a       6.55790249149212
_cell_length_b       6.546315643274614
_cell_length_c       7.344172477722168
_cell_angle_alpha    116.79672263813364
_cell_angle_beta     114.49280632873791
_cell_angle_gamma    90.67905319456744

_space_group_name_H-M_alt    "P 1"
_space_group_IT_number       1

loop_
  _space_group_symop_operation_xyz
  'x, y, z'

loop_
  _atom_site_type_symbol
  _atom_site_label
  _atom_site_symmetry_multiplicity
  _atom_site_fract_x
  _atom_site_fract_y
  _atom_site_fract_z
  _atom_site_occupancy
  Bi  Bi1       1.0  0.5371702313423157  0.0744703859090805  0.5466337203979492  1.0000
  Bi  Bi2       1.0  0.02372191846370697  0.5146938562393188  0.6256514191627501  1.0000
  Bi  Bi3       1.0  0.006815352011471987  0.8181727528572083  0.91750830411911  1.0000
  Bi  Bi4       1.0  0.5528281331062317  0.4717365503311157  0.8123418688774108  1.0000
  Bi  Bi5       1.0  0.5304526686668396  0.4579487442970276  0.11252303421497344  1.0000
  O   O1        1.0  0.2516578435897827  0.5690875053405762  0.6920258998870848  1.0000
  O   O2        1.0  0.8456274271011353  0.08259348571300507  0.9756860136985778  1.0000
  O   O3        1.0  0.6211826205253601  0.21026259660720825  0.1182591989636421  1.0000
  Y   Y1        1.0  0.033844348043203354  0.08803951740264893  0.06702757626771927  1.0000
  Y   Y2        1.0  0.2793697118759155  0.9916481971740723  0.22095580399036405  1.0000
  Y   Y3        1.0  0.004471024498343468  0.7617142796516418  0.0028339973650872703  1.0000
  Yb  Yb1       1.0  0.24621817469596863  0.7837609052658081  0.3495760858058929  1.0000
  Yb  Yb2       1.0  0.5363336205482483  0.5435771942138672  0.406802624464035  1.0000
