data_image0
_chemical_formula_structural       CHo3NPPb2Zn2
_chemical_formula_sum              "C1 Ho3 N1 P1 Pb2 Zn2"
_cell_length_a       7.102869861316637
_cell_length_b       7.116147719830507
_cell_length_c       7.550943851470947
_cell_angle_alpha    111.67595627391273
_cell_angle_beta     110.86544678741416
_cell_angle_gamma    108.5393807484556

_space_group_name_H-M_alt    "P 1"
_space_group_IT_number       1

loop_
  _space_group_symop_operation_xyz
  'x, y, z'

loop_
  _atom_site_type_symbol
  _atom_site_label
  _atom_site_symmetry_multiplicity
  _atom_site_fract_x
  _atom_site_fract_y
  _atom_site_fract_z
  _atom_site_occupancy
  C   C1        1.0  0.9217849969863892  0.9355887770652772  0.34646373987197876  1.0000
  Ho  Ho1       1.0  0.1881626546382904  0.044732291251420975  0.6292117238044739  1.0000
  Ho  Ho2       1.0  0.1303969919681549  0.26871415972709656  0.02044130489230156  1.0000
  Ho  Ho3       1.0  0.46400025486946106  0.34316009283065796  0.5576942563056946  1.0000
  N   N1        1.0  0.6561840176582336  0.6498461961746216  0.9258537888526917  1.0000
  P   P1        1.0  0.19356998801231384  0.12175506353378297  0.9328387975692749  1.0000
  Pb  Pb1       1.0  0.6327593326568604  0.7452116012573242  0.4101297855377197  1.0000
  Pb  Pb2       1.0  0.9357283711433411  0.30385303497314453  0.6756843328475952  1.0000
  Zn  Zn1       1.0  0.6850100159645081  0.03738488629460335  0.18074548244476318  1.0000
  Zn  Zn2       1.0  0.4411514401435852  0.17196717858314514  0.6267890334129333  1.0000
