data_image0
_chemical_formula_structural       C3Ga2Ho3PZr
_chemical_formula_sum              "C3 Ga2 Ho3 P1 Zr1"
_cell_length_a       4.856366065399278
_cell_length_b       5.7126369947351225
_cell_length_c       7.050440311431885
_cell_angle_alpha    124.78259311209989
_cell_angle_beta     91.20353248125176
_cell_angle_gamma    91.92856545471004

_space_group_name_H-M_alt    "P 1"
_space_group_IT_number       1

loop_
  _space_group_symop_operation_xyz
  'x, y, z'

loop_
  _atom_site_type_symbol
  _atom_site_label
  _atom_site_symmetry_multiplicity
  _atom_site_fract_x
  _atom_site_fract_y
  _atom_site_fract_z
  _atom_site_occupancy
  C   C1        1.0  0.011722937226295471  0.9700317978858948  0.5328388810157776  1.0000
  C   C2        1.0  0.0021959543228149414  0.21692153811454773  0.5268070101737976  1.0000
  C   C3        1.0  0.501906156539917  0.16924145817756653  0.31470146775245667  1.0000
  Ga  Ga1       1.0  0.505949079990387  0.47898343205451965  0.23112399876117706  1.0000
  Ga  Ga2       1.0  0.5048079490661621  0.9863911271095276  0.3330229520797729  1.0000
  Ho  Ho1       1.0  0.9985457062721252  0.756477415561676  0.3372461199760437  1.0000
  Ho  Ho2       1.0  0.00889939721673727  0.3984883427619934  0.7792884111404419  1.0000
  Ho  Ho3       1.0  0.9994603991508484  0.2689363956451416  0.19071142375469208  1.0000
  P   P1        1.0  0.532943844795227  0.48527342081069946  0.6718151569366455  1.0000
  Zr  Zr1       1.0  0.0005339384078979492  0.23562736809253693  0.8755480051040649  1.0000
