data_image0
_chemical_formula_structural       C2FeHo4IPZn
_chemical_formula_sum              "C2 Fe1 Ho4 I1 P1 Zn1"
_cell_length_a       4.636307875506473
_cell_length_b       4.995647094650606
_cell_length_c       7.782825946807861
_cell_angle_alpha    92.5935589307564
_cell_angle_beta     89.89181110822007
_cell_angle_gamma    92.32522702385008

_space_group_name_H-M_alt    "P 1"
_space_group_IT_number       1

loop_
  _space_group_symop_operation_xyz
  'x, y, z'

loop_
  _atom_site_type_symbol
  _atom_site_label
  _atom_site_symmetry_multiplicity
  _atom_site_fract_x
  _atom_site_fract_y
  _atom_site_fract_z
  _atom_site_occupancy
  C   C1        1.0  0.6759045124053955  0.6918969750404358  0.6736534237861633  1.0000
  C   C2        1.0  0.17683689296245575  0.3057158291339874  0.2197185754776001  1.0000
  Fe  Fe1       1.0  0.6745173335075378  0.9436499476432801  0.3000906705856323  1.0000
  Ho  Ho1       1.0  0.6756102442741394  0.024939099326729774  0.11923791468143463  1.0000
  Ho  Ho2       1.0  0.6721320748329163  0.3780183494091034  0.6011555194854737  1.0000
  Ho  Ho3       1.0  0.14932125806808472  0.5707269310951233  0.3308640122413635  1.0000
  Ho  Ho4       1.0  0.17714348435401917  0.7107791304588318  0.6634373664855957  1.0000
  I   I1        1.0  0.1745098978281021  0.3541375398635864  0.5699298977851868  1.0000
  P   P1        1.0  0.6694605350494385  0.8493101000785829  0.6551697850227356  1.0000
  Zn  Zn1       1.0  0.6745654344558716  0.3102159798145294  0.9307966232299805  1.0000
