data_image0
_chemical_formula_structural       C2FeHo7
_chemical_formula_sum              "C2 Fe1 Ho7"
_cell_length_a       4.306367166385836
_cell_length_b       4.867897617878351
_cell_length_c       7.220048904418945
_cell_angle_alpha    108.22768790242954
_cell_angle_beta     92.17420511968221
_cell_angle_gamma    91.2339104401569

_space_group_name_H-M_alt    "P 1"
_space_group_IT_number       1

loop_
  _space_group_symop_operation_xyz
  'x, y, z'

loop_
  _atom_site_type_symbol
  _atom_site_label
  _atom_site_symmetry_multiplicity
  _atom_site_fract_x
  _atom_site_fract_y
  _atom_site_fract_z
  _atom_site_occupancy
  C   C1        1.0  0.6319454312324524  0.20739513635635376  0.24917903542518616  1.0000
  C   C2        1.0  0.12585416436195374  0.8265738487243652  0.7285236716270447  1.0000
  Fe  Fe1       1.0  0.10683523118495941  0.770102858543396  0.9148179888725281  1.0000
  Ho  Ho1       1.0  0.11165029555559158  0.13270950317382812  0.5685916543006897  1.0000
  Ho  Ho2       1.0  0.6228276491165161  0.09037885069847107  0.3116375505924225  1.0000
  Ho  Ho3       1.0  0.1218055859208107  0.2970401346683502  0.16751360893249512  1.0000
  Ho  Ho4       1.0  0.6244246959686279  0.6695948243141174  0.8617489337921143  1.0000
  Ho  Ho5       1.0  0.13676483929157257  0.8838910460472107  0.2431912869215011  1.0000
  Ho  Ho6       1.0  0.6276986598968506  0.7641896605491638  0.7274237871170044  1.0000
  Ho  Ho7       1.0  0.6353898644447327  0.42178478837013245  0.3801875114440918  1.0000
