data_image0
_chemical_formula_structural       Fe2HHo3IP2Zn
_chemical_formula_sum              "Fe2 H1 Ho3 I1 P2 Zn1"
_cell_length_a       6.544432241322953
_cell_length_b       6.503900134420977
_cell_length_c       7.253421783447266
_cell_angle_alpha    115.83229922115252
_cell_angle_beta     114.71175775991819
_cell_angle_gamma    91.53675289521199

_space_group_name_H-M_alt    "P 1"
_space_group_IT_number       1

loop_
  _space_group_symop_operation_xyz
  'x, y, z'

loop_
  _atom_site_type_symbol
  _atom_site_label
  _atom_site_symmetry_multiplicity
  _atom_site_fract_x
  _atom_site_fract_y
  _atom_site_fract_z
  _atom_site_occupancy
  Fe  Fe1       1.0  0.2790152132511139  0.5266099572181702  0.5000205636024475  1.0000
  Fe  Fe2       1.0  0.2733100950717926  0.40401977300643915  0.9254001975059508  1.0000
  H   H1        1.0  0.2882513403892517  0.10866428166627883  0.8283734917640685  1.0000
  Ho  Ho1       1.0  0.27902036905288696  0.5389034748077393  0.09507751464843749  1.0000
  Ho  Ho2       1.0  0.756789803504944  0.8952811956405639  0.5870898365974425  1.0000
  Ho  Ho3       1.0  0.7816479802131654  0.4330987930297851  0.15079209208488462  1.0000
  I   I1        1.0  0.253874808549881  0.8675100803375243  0.8024924993515014  1.0000
  P   P1        1.0  0.7776659727096559  0.05896325781941413  0.5521671175956726  1.0000
  P   P2        1.0  0.7816632986068727  0.34126970171928406  0.02075419574975967  1.0000
  Zn  Zn1       1.0  0.27795445919036865  0.4797686338424682  0.27670907974243164  1.0000
