data_image0
_chemical_formula_structural       CFe2Ho7
_chemical_formula_sum              "C1 Fe2 Ho7"
_cell_length_a       4.766391579758734
_cell_length_b       6.896093048780959
_cell_length_c       8.243182182312012
_cell_angle_alpha    113.94938109183353
_cell_angle_beta     90.47990609848041
_cell_angle_gamma    90.65991394339565

_space_group_name_H-M_alt    "P 1"
_space_group_IT_number       1

loop_
  _space_group_symop_operation_xyz
  'x, y, z'

loop_
  _atom_site_type_symbol
  _atom_site_label
  _atom_site_symmetry_multiplicity
  _atom_site_fract_x
  _atom_site_fract_y
  _atom_site_fract_z
  _atom_site_occupancy
  C   C1        1.0  0.1988261491060257  0.5232782959938049  0.24672551453113556  1.0000
  Fe  Fe1       1.0  0.19443613290786743  0.34376898407936096  0.5785567164421082  1.0000
  Fe  Fe2       1.0  0.691760778427124  0.6520643830299377  0.20639565587043762  1.0000
  Ho  Ho1       1.0  0.6973024010658264  0.006259990856051446  0.27409157156944275  1.0000
  Ho  Ho2       1.0  0.6975794434547424  0.2995651364326477  0.7782302498817444  1.0000
  Ho  Ho3       1.0  0.6875081062316895  0.7528487443923951  0.24668088555335999  1.0000
  Ho  Ho4       1.0  0.18768437206745148  0.900591790676117  0.0527541041374207  1.0000
  Ho  Ho5       1.0  0.6968036890029907  0.36033415794372564  0.6710957288742065  1.0000
  Ho  Ho6       1.0  0.18487519025802612  0.018581658601760864  0.8862070441246033  1.0000
  Ho  Ho7       1.0  0.6878247261047363  0.9719074368476869  0.25572606921195984  1.0000
