data_image0
_chemical_formula_structural       CrH6O3S8Si
_chemical_formula_sum              "Cr1 H6 O3 S8 Si1"
_cell_length_a       5.989323885511477
_cell_length_b       7.301490097941041
_cell_length_c       7.889625072479248
_cell_angle_alpha    73.35898963889441
_cell_angle_beta     72.92962872999195
_cell_angle_gamma    71.68971640699812

_space_group_name_H-M_alt    "P 1"
_space_group_IT_number       1

loop_
  _space_group_symop_operation_xyz
  'x, y, z'

loop_
  _atom_site_type_symbol
  _atom_site_label
  _atom_site_symmetry_multiplicity
  _atom_site_fract_x
  _atom_site_fract_y
  _atom_site_fract_z
  _atom_site_occupancy
  Cr  Cr1       1.0  0.10968631505966188  0.4040136933326721  0.9436815381050109  1.0000
  H   H1        1.0  0.058314274996519096  0.4803939163684845  0.4772938191890716  1.0000
  H   H2        1.0  0.820908784866333  0.8134315013885498  0.15466180443763733  1.0000
  H   H3        1.0  0.5206326246261597  0.9067915678024292  0.4188740253448486  1.0000
  H   H4        1.0  0.01156626921147108  0.2450290471315384  0.20839993655681605  1.0000
  H   H5        1.0  0.5333254337310791  0.35957974195480347  0.020682763308286667  1.0000
  H   H6        1.0  0.11425586044788362  0.9401271939277649  0.6957336664199829  1.0000
  O   O1        1.0  0.2432847768068314  0.7741171717643738  0.9709198474884032  1.0000
  O   O2        1.0  0.754227876663208  0.3468271791934967  0.9871239066123961  1.0000
  O   O3        1.0  0.735163688659668  0.736293613910675  0.16154040396213531  1.0000
  S   S1        1.0  0.95803040266037  0.8319645524024963  0.02930558659136295  1.0000
  S   S2        1.0  0.6878929138183594  0.6541302800178528  0.8083392977714537  1.0000
  S   S3        1.0  0.19236311316490173  0.9686957597732544  0.5060025453567505  1.0000
  S   S4        1.0  0.3218308389186859  0.1719953566789627  0.7136458158493042  1.0000
  S   S5        1.0  0.31748661398887634  0.7155686020851135  0.7088667154312134  1.0000
  S   S6        1.0  0.1329503208398819  0.3643813729286194  0.5624918341636658  1.0000
  S   S7        1.0  0.8604530096054078  0.3559517562389374  0.7681243419647216  1.0000
  S   S8        1.0  0.703013002872467  0.19464297592639923  0.4612185359001159  1.0000
  Si  Si1       1.0  0.38315579295158386  0.4824755787849426  0.41148105263710016  1.0000
