data_image0
_chemical_formula_structural       H8Mn5O2S3Si
_chemical_formula_sum              "H8 Mn5 O2 S3 Si1"
_cell_length_a       5.957753992796947
_cell_length_b       6.147532743123108
_cell_length_c       6.283454895019531
_cell_angle_alpha    64.27223955619324
_cell_angle_beta     64.17337729949544
_cell_angle_gamma    61.98008554315531

_space_group_name_H-M_alt    "P 1"
_space_group_IT_number       1

loop_
  _space_group_symop_operation_xyz
  'x, y, z'

loop_
  _atom_site_type_symbol
  _atom_site_label
  _atom_site_symmetry_multiplicity
  _atom_site_fract_x
  _atom_site_fract_y
  _atom_site_fract_z
  _atom_site_occupancy
  H   H1        1.0  0.4546612501144409  0.5762742757797241  0.5974257588386536  1.0000
  H   H2        1.0  0.22498400509357452  0.40020501613616943  0.14933857321739197  1.0000
  H   H3        1.0  0.30850309133529663  0.746630847454071  0.7655563354492188  1.0000
  H   H4        1.0  0.536024808883667  0.07560578733682632  0.9415618181228638  1.0000
  H   H5        1.0  0.6362476348876953  0.08525197207927704  0.30474382638931274  1.0000
  H   H6        1.0  0.8086750507354736  0.7336595058441162  0.19405293464660645  1.0000
  H   H7        1.0  0.13511963188648224  0.07230377942323685  0.0865473523736  1.0000
  H   H8        1.0  0.5103884339332581  0.5218389630317688  0.7940587401390076  1.0000
  Mn  Mn1       1.0  0.15846040844917297  0.7594116926193237  0.47756847739219666  1.0000
  Mn  Mn2       1.0  0.16621428728103638  0.7708366513252258  0.21943452954292297  1.0000
  Mn  Mn3       1.0  0.66536545753479  0.7726436257362366  0.543836772441864  1.0000
  Mn  Mn4       1.0  0.13944843411445618  0.5847052931785583  0.9258987307548523  1.0000
  Mn  Mn5       1.0  0.7359197735786438  0.3433960974216461  0.7226900458335876  1.0000
  O   O1        1.0  0.8656792640686035  0.7280232906341553  0.9340787529945374  1.0000
  O   O2        1.0  0.5255475640296936  0.25496333837509155  0.4448337256908417  1.0000
  S   S1        1.0  0.4818345904350281  0.12784463167190552  0.8915140628814697  1.0000
  S   S2        1.0  0.9035192131996155  0.0036085336469113827  0.9677614569664001  1.0000
  S   S3        1.0  0.7388339638710022  0.357924222946167  0.21071720123291016  1.0000
  Si  Si1       1.0  0.43039506673812866  0.7116872072219849  0.3994957506656647  1.0000
