data_image0
_chemical_formula_structural       H9S7Si3
_chemical_formula_sum              "H9 S7 Si3"
_cell_length_a       5.431599121218229
_cell_length_b       7.71637968712483
_cell_length_c       7.6679368019104
_cell_angle_alpha    72.45770803657028
_cell_angle_beta     75.97293662462168
_cell_angle_gamma    75.5656747476738

_space_group_name_H-M_alt    "P 1"
_space_group_IT_number       1

loop_
  _space_group_symop_operation_xyz
  'x, y, z'

loop_
  _atom_site_type_symbol
  _atom_site_label
  _atom_site_symmetry_multiplicity
  _atom_site_fract_x
  _atom_site_fract_y
  _atom_site_fract_z
  _atom_site_occupancy
  H   H1        1.0  0.7140909433364868  0.15688012540340424  0.8762785196304321  1.0000
  H   H2        1.0  0.20485414564609528  0.1758139580488205  0.6839421987533569  1.0000
  H   H3        1.0  0.16575630009174347  0.6591699123382568  0.10600115358829498  1.0000
  H   H4        1.0  0.44710665941238403  0.42024123668670654  0.26322799921035767  1.0000
  H   H5        1.0  0.1682710349559784  0.17794811725616455  0.7475664615631104  1.0000
  H   H6        1.0  0.4590468108654022  0.8218609094619751  0.7522264122962952  1.0000
  H   H7        1.0  0.9315586090087891  0.4119715392589569  0.8689262270927429  1.0000
  H   H8        1.0  0.6944237351417542  0.2147011011838913  0.7531949281692505  1.0000
  H   H9        1.0  0.7574353814125061  0.47002577781677246  0.03844309225678444  1.0000
  S   S1        1.0  0.9435241222381592  0.062436293810606  0.2955578863620758  1.0000
  S   S2        1.0  0.9580279588699341  0.04065914452075958  0.7448712587356567  1.0000
  S   S3        1.0  0.4408615231513977  0.009176414459943771  0.5400915741920471  1.0000
  S   S4        1.0  0.43434926867485046  0.01998414285480976  0.25206607580184937  1.0000
  S   S5        1.0  0.9539759159088135  0.3692949116230011  0.5852103233337402  1.0000
  S   S6        1.0  0.972183346748352  0.5335264801979065  0.9694049954414368  1.0000
  S   S7        1.0  0.4747312664985657  0.8376026153564453  0.49518725275993347  1.0000
  Si  Si1       1.0  0.834180474281311  0.18610160052776337  0.08759542554616928  1.0000
  Si  Si2       1.0  0.03621169924736023  0.6433322429656982  0.3905382454395294  1.0000
  Si  Si3       1.0  0.32697153091430664  0.6402714252471924  0.16307665407657623  1.0000
