data_image0
_chemical_formula_structural       Cr3H7OS8
_chemical_formula_sum              "Cr3 H7 O1 S8"
_cell_length_a       5.352563601325625
_cell_length_b       8.344715679479522
_cell_length_c       8.243939399719238
_cell_angle_alpha    94.88204621300908
_cell_angle_beta     89.4346422331336
_cell_angle_gamma    89.69219988001072

_space_group_name_H-M_alt    "P 1"
_space_group_IT_number       1

loop_
  _space_group_symop_operation_xyz
  'x, y, z'

loop_
  _atom_site_type_symbol
  _atom_site_label
  _atom_site_symmetry_multiplicity
  _atom_site_fract_x
  _atom_site_fract_y
  _atom_site_fract_z
  _atom_site_occupancy
  Cr  Cr1       1.0  0.13677982985973358  0.05228649452328682  0.5111867189407349  1.0000
  Cr  Cr2       1.0  0.6361603140830994  0.6855958700180054  0.7468709945678711  1.0000
  Cr  Cr3       1.0  0.128852978348732  0.21559573709964752  0.3704069256782532  1.0000
  H   H1        1.0  0.14571526646614075  0.5336935520172119  0.5702579617500305  1.0000
  H   H2        1.0  0.1110229417681694  0.5725615620613098  0.283584326505661  1.0000
  H   H3        1.0  0.1579752415418625  0.7036809325218201  0.1960299164056778  1.0000
  H   H4        1.0  0.12858229875564575  0.46706920862197876  0.9641183614730835  1.0000
  H   H5        1.0  0.6352999806404114  0.9328742623329163  0.24637354910373688  1.0000
  H   H6        1.0  0.6340458989143372  0.9762699604034424  0.382567435503006  1.0000
  H   H7        1.0  0.6337404251098633  0.6953696608543396  0.34463387727737427  1.0000
  O   O1        1.0  0.13398730754852295  0.03613419458270073  0.911453366279602  1.0000
  S   S1        1.0  0.15794435143470764  0.9838312864303589  0.3041780889034271  1.0000
  S   S2        1.0  0.14575493335723877  0.6469191908836365  0.6646977663040161  1.0000
  S   S3        1.0  0.6577012538909912  0.8284363746643066  0.6121535301208496  1.0000
  S   S4        1.0  0.14534848928451538  0.29173073172569275  0.47020494937896734  1.0000
  S   S5        1.0  0.6390335559844971  0.015702223405241966  0.4029831290245056  1.0000
  S   S6        1.0  0.6375332474708557  0.5106440782546997  0.9286079406738281  1.0000
  S   S7        1.0  0.6307370066642761  0.6699643135070801  0.9934402704238892  1.0000
  S   S8        1.0  0.14442673325538635  0.1694456934928894  0.92397540807724  1.0000
