data_image0
_chemical_formula_structural       H7MnOS7SiUY
_chemical_formula_sum              "H7 Mn1 O1 S7 Si1 U1 Y1"
_cell_length_a       5.655573634597917
_cell_length_b       7.496619266287143
_cell_length_c       7.585977554321289
_cell_angle_alpha    78.33637897652864
_cell_angle_beta     77.1980584210934
_cell_angle_gamma    75.54073959868956

_space_group_name_H-M_alt    "P 1"
_space_group_IT_number       1

loop_
  _space_group_symop_operation_xyz
  'x, y, z'

loop_
  _atom_site_type_symbol
  _atom_site_label
  _atom_site_symmetry_multiplicity
  _atom_site_fract_x
  _atom_site_fract_y
  _atom_site_fract_z
  _atom_site_occupancy
  H   H1        1.0  0.8096427321434021  0.06953075528144836  0.804091989994049  1.0000
  H   H2        1.0  0.5419504046440125  0.06686848402023315  0.7319619655609131  1.0000
  H   H3        1.0  0.5416391491889954  0.6161299347877502  0.48104441165924067  1.0000
  H   H4        1.0  0.3273784816265106  0.6623186469078064  0.6661854982376099  1.0000
  H   H5        1.0  0.33986932039260864  0.5545961856842041  0.07167885452508926  1.0000
  H   H6        1.0  0.05843418091535568  0.11272370815277098  0.3142894208431244  1.0000
  H   H7        1.0  0.3649970591068268  0.7408080697059631  0.49488106369972223  1.0000
  Mn  Mn1       1.0  0.3095163702964783  0.9485164880752562  0.9964489340782164  1.0000
  O   O1        1.0  0.5637456178665161  0.9013763666152953  0.7843204140663146  1.0000
  S   S1        1.0  0.9021523594856262  0.08569340407848358  0.3721737265586853  1.0000
  S   S2        1.0  0.9958494305610658  0.4663740694522857  0.47405207157135004  1.0000
  S   S3        1.0  0.5211732983589172  0.5280534625053406  0.4101875722408294  1.0000
  S   S4        1.0  0.9888904094696046  0.6571092009544373  0.5789509415626526  1.0000
  S   S5        1.0  0.30976927280426025  0.23592180013656613  0.9096512794494628  1.0000
  S   S6        1.0  0.24614895880222326  0.829950451850891  0.05827215686440467  1.0000
  S   S7        1.0  0.7303504943847656  0.25381800532341003  0.05959090590476989  1.0000
  Si  Si1       1.0  0.44069936871528625  0.7372567653656006  0.439280092716217  1.0000
  U   U1        1.0  0.9275065064430237  0.578195333480835  0.2823604345321655  1.0000
  Y   Y1        1.0  0.840294361114502  0.16296866536140442  0.9275457859039306  1.0000
