data_image0
_chemical_formula_structural       Cr4H7S7Sc
_chemical_formula_sum              "Cr4 H7 S7 Sc1"
_cell_length_a       4.454750552236993
_cell_length_b       7.763613651378018
_cell_length_c       7.978487491607666
_cell_angle_alpha    93.17279625321778
_cell_angle_beta     92.83501232319902
_cell_angle_gamma    88.92626182516571

_space_group_name_H-M_alt    "P 1"
_space_group_IT_number       1

loop_
  _space_group_symop_operation_xyz
  'x, y, z'

loop_
  _atom_site_type_symbol
  _atom_site_label
  _atom_site_symmetry_multiplicity
  _atom_site_fract_x
  _atom_site_fract_y
  _atom_site_fract_z
  _atom_site_occupancy
  Cr  Cr1       1.0  0.9598113298416138  0.3025634288787842  0.03465722128748894  1.0000
  Cr  Cr2       1.0  0.9465635418891907  0.03852429613471031  0.6459837555885315  1.0000
  Cr  Cr3       1.0  0.9548648595809937  0.1207548975944519  0.24843983352184293  1.0000
  Cr  Cr4       1.0  0.45818760991096497  0.005096167325973511  0.3451789319515228  1.0000
  H   H1        1.0  0.45517343282699585  0.17879529297351837  0.6446675658226013  1.0000
  H   H2        1.0  0.4575558006763458  0.23110318183898926  0.05696073547005653  1.0000
  H   H3        1.0  0.41141337156295776  0.05323539674282074  0.5030519962310791  1.0000
  H   H4        1.0  0.3927255868911743  0.6696096658706665  0.7129390239715576  1.0000
  H   H5        1.0  0.9490273594856262  0.0005078412359580398  0.9392371773719786  1.0000
  H   H6        1.0  0.9012898802757263  0.6006929278373718  0.527924656867981  1.0000
  H   H7        1.0  0.5178197026252747  0.46177905797958374  0.5615760087966919  1.0000
  S   S1        1.0  0.9477413892745972  0.5440623164176941  0.406889408826828  1.0000
  S   S2        1.0  0.9740516543388367  0.6293284296989441  0.12911085784435272  1.0000
  S   S3        1.0  0.46363207697868347  0.5759920477867126  0.7315295338630676  1.0000
  S   S4        1.0  0.5030627846717834  0.2754746377468109  0.12088054418563841  1.0000
  S   S5        1.0  0.9688831567764282  0.8132959604263306  0.7926388382911682  1.0000
  S   S6        1.0  0.45870667695999146  0.6643880009651184  0.9399074912071227  1.0000
  S   S7        1.0  0.9683313369750977  0.37261059880256653  0.7057486176490784  1.0000
  Sc  Sc1       1.0  0.4515576958656311  0.19595690071582794  0.9245963096618651  1.0000
