data_image0
_chemical_formula_structural       Al2FNa3PTi3
_chemical_formula_sum              "Al2 F1 Na3 P1 Ti3"
_cell_length_a       6.032650753957719
_cell_length_b       5.911455076957659
_cell_length_c       6.18350076675415
_cell_angle_alpha    60.82791631561503
_cell_angle_beta     60.119547493003296
_cell_angle_gamma    61.48007440623695

_space_group_name_H-M_alt    "P 1"
_space_group_IT_number       1

loop_
  _space_group_symop_operation_xyz
  'x, y, z'

loop_
  _atom_site_type_symbol
  _atom_site_label
  _atom_site_symmetry_multiplicity
  _atom_site_fract_x
  _atom_site_fract_y
  _atom_site_fract_z
  _atom_site_occupancy
  Al  Al1       1.0  0.44268447160720825  0.9486556053161621  0.8864394426345826  1.0000
  Al  Al2       1.0  0.9403722882270813  0.25503745675086975  0.06816904991865158  1.0000
  F   F1        1.0  0.598807156085968  0.7188933491706848  0.13940772414207458  1.0000
  Na  Na1       1.0  0.6077885031700134  0.25548887252807617  0.5919390916824341  1.0000
  Na  Na2       1.0  0.11380764096975327  0.7244197726249695  0.0655236765742302  1.0000
  Na  Na3       1.0  0.8049967288970947  0.45136627554893494  0.06564977020025253  1.0000
  P   P1        1.0  0.43981385231018066  0.213784322142601  0.3081830143928528  1.0000
  Ti  Ti1       1.0  0.9474499821662903  0.9538771510124207  0.6020326018333435  1.0000
  Ti  Ti2       1.0  0.9465739727020264  0.9472945928573608  0.37128680944442755  1.0000
  Ti  Ti3       1.0  0.2103540152311325  0.6114015579223633  0.8942469954490663  1.0000
