data_image0
_chemical_formula_structural       AlF2Na3Ti3Tl
_chemical_formula_sum              "Al1 F2 Na3 Ti3 Tl1"
_cell_length_a       5.742084699994092
_cell_length_b       5.762470514195341
_cell_length_c       5.915550231933594
_cell_angle_alpha    61.52560662556475
_cell_angle_beta     62.240327126152216
_cell_angle_gamma    61.24903767241587

_space_group_name_H-M_alt    "P 1"
_space_group_IT_number       1

loop_
  _space_group_symop_operation_xyz
  'x, y, z'

loop_
  _atom_site_type_symbol
  _atom_site_label
  _atom_site_symmetry_multiplicity
  _atom_site_fract_x
  _atom_site_fract_y
  _atom_site_fract_z
  _atom_site_occupancy
  Al  Al1       1.0  0.029294418171048164  0.40404456853866577  0.714708685874939  1.0000
  F   F1        1.0  0.323943555355072  0.8044888377189636  0.6049684286117554  1.0000
  F   F2        1.0  0.43033766746520996  0.23781475424766543  0.8756079673767089  1.0000
  Na  Na1       1.0  0.6653215289115906  0.40976569056510925  0.5321464538574219  1.0000
  Na  Na2       1.0  0.7872607111930847  0.7625848054885864  0.1918166875839233  1.0000
  Na  Na3       1.0  0.13081471621990204  0.7532972097396851  0.8693468570709227  1.0000
  Ti  Ti1       1.0  0.8405665755271912  0.010851714760065079  0.5435308814048767  1.0000
  Ti  Ti2       1.0  0.33575117588043213  0.49609372019767767  0.22783443331718442  1.0000
  Ti  Ti3       1.0  0.04100286588072777  0.42113763093948364  0.039946746081113815  1.0000
  Tl  Tl1       1.0  0.2892690896987915  0.39238232374191284  0.2905319333076477  1.0000
