data_image0
_chemical_formula_structural       AlF3HoNa3TiZr
_chemical_formula_sum              "Al1 F3 Ho1 Na3 Ti1 Zr1"
_cell_length_a       5.793368771303331
_cell_length_b       5.481152141807181
_cell_length_c       5.903753757476807
_cell_angle_alpha    60.69431784240998
_cell_angle_beta     60.95913634983768
_cell_angle_gamma    57.88333146988642

_space_group_name_H-M_alt    "P 1"
_space_group_IT_number       1

loop_
  _space_group_symop_operation_xyz
  'x, y, z'

loop_
  _atom_site_type_symbol
  _atom_site_label
  _atom_site_symmetry_multiplicity
  _atom_site_fract_x
  _atom_site_fract_y
  _atom_site_fract_z
  _atom_site_occupancy
  Al  Al1       1.0  0.9130975008010864  0.03989128768444061  0.2858160138130188  1.0000
  F   F1        1.0  0.13907819986343384  0.057531211525201804  0.12873779237270355  1.0000
  F   F2        1.0  0.8925344347953796  0.5399706363677979  0.13909733295440674  1.0000
  F   F3        1.0  0.5350425839424133  0.09210927784442902  0.8309539556503296  1.0000
  Ho  Ho1       1.0  0.13625659048557281  0.32627853751182556  0.5246182680130005  1.0000
  Na  Na1       1.0  0.6849717497825623  0.6470826864242554  0.581430971622467  1.0000
  Na  Na2       1.0  0.7186583280563354  0.6692297458648682  0.36258333921432495  1.0000
  Na  Na3       1.0  0.16506962478160858  0.16196949779987335  0.6082298755645752  1.0000
  Ti  Ti1       1.0  0.8004037737846375  0.33751630783081055  0.7995516061782837  1.0000
  Zr  Zr1       1.0  0.31111428141593933  0.6715289354324341  0.7938029766082764  1.0000
