data_image0
_chemical_formula_structural       Al2F2Na4PdPt
_chemical_formula_sum              "Al2 F2 Na4 Pd1 Pt1"
_cell_length_a       6.161745015439045
_cell_length_b       5.950800126286535
_cell_length_c       6.267951965332031
_cell_angle_alpha    60.4467865526687
_cell_angle_beta     61.22908370815431
_cell_angle_gamma    59.656477402112316

_space_group_name_H-M_alt    "P 1"
_space_group_IT_number       1

loop_
  _space_group_symop_operation_xyz
  'x, y, z'

loop_
  _atom_site_type_symbol
  _atom_site_label
  _atom_site_symmetry_multiplicity
  _atom_site_fract_x
  _atom_site_fract_y
  _atom_site_fract_z
  _atom_site_occupancy
  Al  Al1       1.0  0.6053946614265442  0.6062568426132202  0.32683053612709045  1.0000
  Al  Al2       1.0  0.2366867959499359  0.579749584197998  0.3504202961921692  1.0000
  F   F1        1.0  0.03308704495429993  0.7130124568939209  0.6202861070632935  1.0000
  F   F2        1.0  0.6100180149078369  0.8757285475730896  0.832352340221405  1.0000
  Na  Na1       1.0  0.45610901713371277  0.17879803478717804  0.2998780310153961  1.0000
  Na  Na2       1.0  0.934211790561676  0.6100410223007202  0.08747081458568573  1.0000
  Na  Na3       1.0  0.9451309442520142  0.118554025888443  0.3271457254886628  1.0000
  Na  Na4       1.0  0.4508274793624878  0.6469870209693909  0.6164908409118652  1.0000
  Pd  Pd1       1.0  0.3373519480228424  0.18141433596611023  0.9234777688980103  1.0000
  Pt  Pt1       1.0  0.7462049126625061  0.719142496585846  0.5899863243103027  1.0000
