data_image0
_chemical_formula_structural       AlF4LaNaTi3
_chemical_formula_sum              "Al1 F4 La1 Na1 Ti3"
_cell_length_a       5.680739162382183
_cell_length_b       6.048046290379551
_cell_length_c       5.763607978820801
_cell_angle_alpha    60.92761956367607
_cell_angle_beta     59.31066275121538
_cell_angle_gamma    56.05616833223986

_space_group_name_H-M_alt    "P 1"
_space_group_IT_number       1

loop_
  _space_group_symop_operation_xyz
  'x, y, z'

loop_
  _atom_site_type_symbol
  _atom_site_label
  _atom_site_symmetry_multiplicity
  _atom_site_fract_x
  _atom_site_fract_y
  _atom_site_fract_z
  _atom_site_occupancy
  Al  Al1       1.0  0.8654253482818604  0.21655848622322083  0.08922602981328963  1.0000
  F   F1        1.0  0.655909538269043  0.017631523311138153  0.43349125981330866  1.0000
  F   F2        1.0  0.3207169473171234  0.3167724311351776  0.5657491087913513  1.0000
  F   F3        1.0  0.3693290054798126  0.49595150351524353  0.4633203744888305  1.0000
  F   F4        1.0  0.2983068823814392  0.8157228827476501  0.9794711470603942  1.0000
  La  La1       1.0  0.7028203010559082  0.33969342708587646  0.870360493659973  1.0000
  Na  Na1       1.0  0.9748966693878174  0.7595626711845398  0.706138253211975  1.0000
  Ti  Ti1       1.0  0.8920509219169617  0.5626300573348999  0.4859552979469299  1.0000
  Ti  Ti2       1.0  0.9710475206375122  0.3832525908946991  0.7122390866279601  1.0000
  Ti  Ti3       1.0  0.27786797285079956  0.3836045563220978  0.7357207536697387  1.0000
