data_image0
_chemical_formula_structural       F4InNaTi4
_chemical_formula_sum              "F4 In1 Na1 Ti4"
_cell_length_a       5.2965099805368485
_cell_length_b       4.316893060145374
_cell_length_c       5.748293399810791
_cell_angle_alpha    56.56934722896659
_cell_angle_beta     63.773456846861606
_cell_angle_gamma    52.79408700106968

_space_group_name_H-M_alt    "P 1"
_space_group_IT_number       1

loop_
  _space_group_symop_operation_xyz
  'x, y, z'

loop_
  _atom_site_type_symbol
  _atom_site_label
  _atom_site_symmetry_multiplicity
  _atom_site_fract_x
  _atom_site_fract_y
  _atom_site_fract_z
  _atom_site_occupancy
  F   F1        1.0  0.6689251661300659  0.4381404519081116  0.41212067008018494  1.0000
  F   F2        1.0  0.18021610379219055  0.7089009881019592  0.31484636664390564  1.0000
  F   F3        1.0  0.13864874839782715  0.5113387703895569  0.012942671775817871  1.0000
  F   F4        1.0  0.48284024000167847  0.421781450510025  0.9901099801063538  1.0000
  In  In1       1.0  0.19196248054504395  0.06245292350649834  0.7544929385185242  1.0000
  Na  Na1       1.0  0.6621074080467224  0.01995052956044674  0.755149781703949  1.0000
  Ti  Ti1       1.0  0.9379259347915649  0.31455934047698975  0.3513069450855255  1.0000
  Ti  Ti2       1.0  0.43582671880722046  0.8476779460906982  0.08992090076208115  1.0000
  Ti  Ti3       1.0  0.9122187495231628  0.31422051787376404  0.9745621681213379  1.0000
  Ti  Ti4       1.0  0.43193599581718445  0.862873375415802  0.38611307740211487  1.0000
