data_image0
_chemical_formula_structural       Al2La5S
_chemical_formula_sum              "Al2 La5 S1"
_cell_length_a       5.673376984151044
_cell_length_b       6.2413069671933155
_cell_length_c       7.375006198883057
_cell_angle_alpha    114.24838691093235
_cell_angle_beta     109.27825447348317
_cell_angle_gamma    88.92903460587668

_space_group_name_H-M_alt    "P 1"
_space_group_IT_number       1

loop_
  _space_group_symop_operation_xyz
  'x, y, z'

loop_
  _atom_site_type_symbol
  _atom_site_label
  _atom_site_symmetry_multiplicity
  _atom_site_fract_x
  _atom_site_fract_y
  _atom_site_fract_z
  _atom_site_occupancy
  Al  Al1       1.0  0.08184894174337387  0.5775159001350403  0.4598774313926696  1.0000
  Al  Al2       1.0  0.35353291034698486  0.4598539769649505  0.9461484551429749  1.0000
  La  La1       1.0  0.7565497756004333  0.5936722755432129  0.4450639486312866  1.0000
  La  La2       1.0  0.2595442235469818  0.09813615679740906  0.4226943850517273  1.0000
  La  La3       1.0  0.7506741285324097  0.09890642762184143  0.1573970466852188  1.0000
  La  La4       1.0  0.7662467956542969  0.9865709543228148  0.05764501541852939  1.0000
  La  La5       1.0  0.361868292093277  0.4436643719673157  0.5112072229385375  1.0000
  S   S1        1.0  0.820723295211792  0.9811283946037291  0.6628472805023192  1.0000
