data_image0
_chemical_formula_structural       Co2GePr7Sc
_chemical_formula_sum              "Co2 Ge1 Pr7 Sc1"
_cell_length_a       4.014474583545407
_cell_length_b       7.359188483333058
_cell_length_c       8.838871955871582
_cell_angle_alpha    90.65425793140453
_cell_angle_beta     93.4207731158482
_cell_angle_gamma    88.80640282788706

_space_group_name_H-M_alt    "P 1"
_space_group_IT_number       1

loop_
  _space_group_symop_operation_xyz
  'x, y, z'

loop_
  _atom_site_type_symbol
  _atom_site_label
  _atom_site_symmetry_multiplicity
  _atom_site_fract_x
  _atom_site_fract_y
  _atom_site_fract_z
  _atom_site_occupancy
  Co  Co1       1.0  0.49265143275260925  0.7475898265838622  0.3967567980289459  1.0000
  Co  Co2       1.0  0.9913136959075928  0.731123387813568  0.30198341608047485  1.0000
  Ge  Ge1       1.0  0.0015058970311656603  0.2054312080144882  0.6332442760467529  1.0000
  Pr  Pr1       1.0  0.483718603849411  0.40061816573143  0.22298935055732727  1.0000
  Pr  Pr2       1.0  0.49263474345207214  0.9016424417495726  0.4430377781391144  1.0000
  Pr  Pr3       1.0  0.992542564868927  0.4056594371795654  0.7340397834777832  1.0000
  Pr  Pr4       1.0  0.49302488565444946  0.9192456007003783  0.9302744269371033  1.0000
  Pr  Pr5       1.0  0.48813626170158386  0.3919857740402221  0.11648274213075638  1.0000
  Pr  Pr6       1.0  0.9928995966911316  0.7065566182136535  0.5603495836257935  1.0000
  Pr  Pr7       1.0  0.9814254641532898  0.38022869825363154  0.2074349820613861  1.0000
  Sc  Sc1       1.0  0.9901265501976013  0.9823911786079406  0.9590085744857788  1.0000
