data_image0
_chemical_formula_structural       CoGe2Pr7Sc
_chemical_formula_sum              "Co1 Ge2 Pr7 Sc1"
_cell_length_a       4.145271031467865
_cell_length_b       6.79860866542419
_cell_length_c       9.123513221740723
_cell_angle_alpha    91.34617616993724
_cell_angle_beta     92.63769522746692
_cell_angle_gamma    90.16145123890425

_space_group_name_H-M_alt    "P 1"
_space_group_IT_number       1

loop_
  _space_group_symop_operation_xyz
  'x, y, z'

loop_
  _atom_site_type_symbol
  _atom_site_label
  _atom_site_symmetry_multiplicity
  _atom_site_fract_x
  _atom_site_fract_y
  _atom_site_fract_z
  _atom_site_occupancy
  Co  Co1       1.0  0.6284370422363281  0.06482657045125961  0.619543731212616  1.0000
  Ge  Ge1       1.0  0.12386852502822876  0.31418147683143616  0.359849214553833  1.0000
  Ge  Ge2       1.0  0.1296030730009079  0.4029640257358551  0.03543585166335106  1.0000
  Pr  Pr1       1.0  0.14259634912014008  0.7854014039039612  0.22204114496707916  1.0000
  Pr  Pr2       1.0  0.13006377220153809  0.4901517331600189  0.04267774149775505  1.0000
  Pr  Pr3       1.0  0.6153169870376587  0.9936860203742981  0.8652143478393555  1.0000
  Pr  Pr4       1.0  0.6286751627922058  0.3004867434501648  0.691093921661377  1.0000
  Pr  Pr5       1.0  0.6316635012626648  0.5570909976959229  0.536641001701355  1.0000
  Pr  Pr6       1.0  0.13552232086658478  0.9264105558395386  0.3742554485797882  1.0000
  Pr  Pr7       1.0  0.12134995311498642  0.4327984154224396  0.33660992980003357  1.0000
  Sc  Sc1       1.0  0.6347522735595703  0.8127960562705994  0.07087855786085129  1.0000
