data_image0
_chemical_formula_structural       Co2GdGe3Pr5
_chemical_formula_sum              "Co2 Gd1 Ge3 Pr5"
_cell_length_a       3.8613514695611744
_cell_length_b       5.711589577362684
_cell_length_c       9.656580924987793
_cell_angle_alpha    88.56860900135368
_cell_angle_beta     86.98238905594393
_cell_angle_gamma    89.13509484132173

_space_group_name_H-M_alt    "P 1"
_space_group_IT_number       1

loop_
  _space_group_symop_operation_xyz
  'x, y, z'

loop_
  _atom_site_type_symbol
  _atom_site_label
  _atom_site_symmetry_multiplicity
  _atom_site_fract_x
  _atom_site_fract_y
  _atom_site_fract_z
  _atom_site_occupancy
  Co  Co1       1.0  0.25098076462745667  0.9700343012809753  0.9707413911819458  1.0000
  Co  Co2       1.0  0.7356528639793396  0.4952540993690491  0.031154775992035866  1.0000
  Gd  Gd1       1.0  0.7524065971374512  0.4945949614048004  0.8434547185897827  1.0000
  Ge  Ge1       1.0  0.25887811183929443  0.6703885793685913  0.8631523847579956  1.0000
  Ge  Ge2       1.0  0.7590088844299316  0.9690266251564026  0.781985878944397  1.0000
  Ge  Ge3       1.0  0.7464079856872559  0.16645139455795288  0.35133248567581177  1.0000
  Pr  Pr1       1.0  0.25847262144088745  0.363996297121048  0.5862513184547424  1.0000
  Pr  Pr2       1.0  0.2572357952594757  0.5130782723426819  0.5318496227264404  1.0000
  Pr  Pr3       1.0  0.2397596836090088  0.27294379472732544  0.3482833206653595  1.0000
  Pr  Pr4       1.0  0.748995840549469  0.997926652431488  0.35753539204597473  1.0000
  Pr  Pr5       1.0  0.25661876797676086  0.1344786286354065  0.8469220995903015  1.0000
