data_image0
_chemical_formula_structural       CoGe3LuPr6
_chemical_formula_sum              "Co1 Ge3 Lu1 Pr6"
_cell_length_a       2.302209034441065
_cell_length_b       4.867999844123357
_cell_length_c       9.71681022644043
_cell_angle_alpha    89.33403013896672
_cell_angle_beta     86.40962076485668
_cell_angle_gamma    46.56728748980951

_space_group_name_H-M_alt    "P 1"
_space_group_IT_number       1

loop_
  _space_group_symop_operation_xyz
  'x, y, z'

loop_
  _atom_site_type_symbol
  _atom_site_label
  _atom_site_symmetry_multiplicity
  _atom_site_fract_x
  _atom_site_fract_y
  _atom_site_fract_z
  _atom_site_occupancy
  Co  Co1       1.0  0.1507738083600998  0.7861130833625793  0.784135401248932  1.0000
  Ge  Ge1       1.0  0.6873992085456848  0.6442810893058777  0.0695892795920372  1.0000
  Ge  Ge2       1.0  0.653348445892334  0.324691504240036  0.1772087663412094  1.0000
  Ge  Ge3       1.0  0.6952977776527405  0.7282499074935913  0.8762702345848083  1.0000
  Lu  Lu1       1.0  0.6534655094146729  0.27661916613578796  0.33317476511001587  1.0000
  Pr  Pr1       1.0  0.17766861617565155  0.0034043046180158854  0.08193960040807724  1.0000
  Pr  Pr2       1.0  0.14986631274223328  0.6465623378753662  0.5907277464866638  1.0000
  Pr  Pr3       1.0  0.6881228685379028  0.43520164489746094  0.5939809679985046  1.0000
  Pr  Pr4       1.0  0.16796758770942688  0.8089603781700134  0.09127090126276016  1.0000
  Pr  Pr5       1.0  0.646953821182251  0.4274989664554596  0.2049448937177658  1.0000
  Pr  Pr6       1.0  0.18788637220859528  0.31183600425720215  0.06494119018316269  1.0000
