data_image0
_chemical_formula_structural       Co2Ge2Pr7
_chemical_formula_sum              "Co2 Ge2 Pr7"
_cell_length_a       4.171791557042895
_cell_length_b       6.096172311632097
_cell_length_c       9.122452735900879
_cell_angle_alpha    89.3470546668497
_cell_angle_beta     90.00236221828916
_cell_angle_gamma    90.03040921821857

_space_group_name_H-M_alt    "P 1"
_space_group_IT_number       1

loop_
  _space_group_symop_operation_xyz
  'x, y, z'

loop_
  _atom_site_type_symbol
  _atom_site_label
  _atom_site_symmetry_multiplicity
  _atom_site_fract_x
  _atom_site_fract_y
  _atom_site_fract_z
  _atom_site_occupancy
  Co  Co1       1.0  0.8077265024185181  0.20531217753887177  0.7241969108581543  1.0000
  Co  Co2       1.0  0.8062139749526978  0.9967440366744995  0.4084567129611969  1.0000
  Ge  Ge1       1.0  0.2946755290031433  0.22018983960151672  0.025924047455191612  1.0000
  Ge  Ge2       1.0  0.30272844433784485  0.7181429862976074  0.7184977531433105  1.0000
  Pr  Pr1       1.0  0.7982751727104187  0.7225920557975769  0.9806964993476868  1.0000
  Pr  Pr2       1.0  0.7927625775337219  0.19003388285636902  0.9740299582481384  1.0000
  Pr  Pr3       1.0  0.2993503212928772  0.6866486668586731  0.16221585869789124  1.0000
  Pr  Pr4       1.0  0.293521523475647  0.19191895425319672  0.22645901143550873  1.0000
  Pr  Pr5       1.0  0.8007889986038208  0.5157324075698853  0.6465368270874023  1.0000
  Pr  Pr6       1.0  0.8006059527397156  0.19158050417900085  0.8804756999015808  1.0000
  Pr  Pr7       1.0  0.29322731494903564  0.8840754628181458  0.5312011241912842  1.0000
