data_image0
_chemical_formula_structural       CoGe3Pr7
_chemical_formula_sum              "Co1 Ge3 Pr7"
_cell_length_a       4.253507590523508
_cell_length_b       5.789698490158778
_cell_length_c       10.590035438537598
_cell_angle_alpha    90.62979068821744
_cell_angle_beta     90.18189318448997
_cell_angle_gamma    90.01009314643245

_space_group_name_H-M_alt    "P 1"
_space_group_IT_number       1

loop_
  _space_group_symop_operation_xyz
  'x, y, z'

loop_
  _atom_site_type_symbol
  _atom_site_label
  _atom_site_symmetry_multiplicity
  _atom_site_fract_x
  _atom_site_fract_y
  _atom_site_fract_z
  _atom_site_occupancy
  Co  Co1       1.0  0.7389792799949646  0.3254731595516205  0.9871023893356322  1.0000
  Ge  Ge1       1.0  0.4080963432788849  0.7617459893226624  0.3160094618797302  1.0000
  Ge  Ge2       1.0  0.7428255677223206  0.7623759508132935  0.48036068677902216  1.0000
  Ge  Ge3       1.0  0.04898352175951004  0.7591665983200073  0.3078838884830475  1.0000
  Pr  Pr1       1.0  0.7450026869773865  0.06366383284330368  0.0921049490571022  1.0000
  Pr  Pr2       1.0  0.24802199006080627  0.025611191987991333  0.9876189231872557  1.0000
  Pr  Pr3       1.0  0.7409574389457703  0.5358074307441711  0.48684981465339655  1.0000
  Pr  Pr4       1.0  0.23980864882469177  0.5661530494689941  0.47968491911888117  1.0000
  Pr  Pr5       1.0  0.7394490242004395  0.5668959021568298  0.9743382930755614  1.0000
  Pr  Pr6       1.0  0.24640096724033356  0.2317999303340912  0.5175960659980774  1.0000
  Pr  Pr7       1.0  0.7422161102294922  0.043376531451940536  0.2155867666006088  1.0000
