data_image0
_chemical_formula_structural       Na2NdO4Os4
_chemical_formula_sum              "Na2 Nd1 O4 Os4"
_cell_length_a       4.148166418510311
_cell_length_b       7.979119483094495
_cell_length_c       8.152334213256836
_cell_angle_alpha    120.38652836719311
_cell_angle_beta     89.90683328707227
_cell_angle_gamma    89.83773042612324

_space_group_name_H-M_alt    "P 1"
_space_group_IT_number       1

loop_
  _space_group_symop_operation_xyz
  'x, y, z'

loop_
  _atom_site_type_symbol
  _atom_site_label
  _atom_site_symmetry_multiplicity
  _atom_site_fract_x
  _atom_site_fract_y
  _atom_site_fract_z
  _atom_site_occupancy
  Na  Na1       1.0  0.17064201831817627  0.3899534344673157  0.9432797431945801  1.0000
  Na  Na2       1.0  0.6666775345802307  0.8668197989463806  0.3708156943321228  1.0000
  Nd  Nd1       1.0  0.6864218711853027  0.6637776494026184  0.5372673869132996  1.0000
  O   O1        1.0  0.6858888864517212  0.21165791153907776  0.0325080007314682  1.0000
  O   O2        1.0  0.7133015990257263  0.8814896941184998  0.6658543944358826  1.0000
  O   O3        1.0  0.18938778340816498  0.3530931770801544  0.15924265980720517  1.0000
  O   O4        1.0  0.19759070873260498  0.8315414190292358  0.5360901951789856  1.0000
  Os  Os1       1.0  0.18163134157657623  0.17128589749336243  0.5798729062080383  1.0000
  Os  Os2       1.0  0.6755402088165283  0.5065248608589172  0.7961034178733825  1.0000
  Os  Os3       1.0  0.6632714867591858  0.06748110800981522  0.5431885719299316  1.0000
  Os  Os4       1.0  0.1843501180410385  0.4282492399215698  0.8944435119628906  1.0000
