data_image0
_chemical_formula_structural       Na2O3Os6
_chemical_formula_sum              "Na2 O3 Os6"
_cell_length_a       3.841184279022527
_cell_length_b       7.585490401067407
_cell_length_c       7.905065536499023
_cell_angle_alpha    117.5543980843043
_cell_angle_beta     89.69345635326265
_cell_angle_gamma    87.99626196599449

_space_group_name_H-M_alt    "P 1"
_space_group_IT_number       1

loop_
  _space_group_symop_operation_xyz
  'x, y, z'

loop_
  _atom_site_type_symbol
  _atom_site_label
  _atom_site_symmetry_multiplicity
  _atom_site_fract_x
  _atom_site_fract_y
  _atom_site_fract_z
  _atom_site_occupancy
  Na  Na1       1.0  0.20890593528747556  0.18907767534255981  0.2474086731672287  1.0000
  Na  Na2       1.0  0.20939053595066068  0.8419163227081298  0.5541777610778809  1.0000
  O   O1        1.0  0.717471957206726  0.03969288617372513  0.9946328997612  1.0000
  O   O2        1.0  0.6946652531623839  0.870626926422119  0.37067392468452454  1.0000
  O   O3        1.0  0.2337291985750198  0.396313190460205  0.6294028162956238  1.0000
  Os  Os1       1.0  0.2195247411727905  0.8926756381988524  0.3855094611644745  1.0000
  Os  Os2       1.0  0.21383239328861234  0.11867293715476988  0.403924822807312  1.0000
  Os  Os3       1.0  0.19798968732357022  0.3443453013896942  0.7781922221183777  1.0000
  Os  Os4       1.0  0.7167890071868895  0.7080968022346497  0.08008462935686111  1.0000
  Os  Os5       1.0  0.2019078433513641  0.87549090385437  0.056157317012548384  1.0000
  Os  Os6       1.0  0.7052147984504699  0.45928561687469477  0.08470766246318814  1.0000
