data_image0
_chemical_formula_structural       NaO4Os6
_chemical_formula_sum              "Na1 O4 Os6"
_cell_length_a       2.506531077464841
_cell_length_b       7.735825415139649
_cell_length_c       8.099349975585938
_cell_angle_alpha    117.90855312994734
_cell_angle_beta     98.0320093264466
_cell_angle_gamma    71.808892493214

_space_group_name_H-M_alt    "P 1"
_space_group_IT_number       1

loop_
  _space_group_symop_operation_xyz
  'x, y, z'

loop_
  _atom_site_type_symbol
  _atom_site_label
  _atom_site_symmetry_multiplicity
  _atom_site_fract_x
  _atom_site_fract_y
  _atom_site_fract_z
  _atom_site_occupancy
  Na  Na1       1.0  0.35626015067100525  0.5668699145317078  0.8235183954238892  1.0000
  O   O1        1.0  0.8582457900047302  0.03551550954580307  0.06419099867343903  1.0000
  O   O2        1.0  0.3292074203491211  0.9601916074752808  0.8764601349830627  1.0000
  O   O3        1.0  0.3474969267845154  0.040059033781290054  0.614309549331665  1.0000
  O   O4        1.0  0.84932941198349  0.26381176710128784  0.92919921875  1.0000
  Os  Os1       1.0  0.8524560332298279  0.2374386042356491  0.6078671813011169  1.0000
  Os  Os2       1.0  0.8474143147468567  0.8973714113235474  0.6138705611228943  1.0000
  Os  Os3       1.0  0.8539655804634094  0.7662506103515625  0.5693120360374451  1.0000
  Os  Os4       1.0  0.8566218614578247  0.8860870003700256  0.34250691533088684  1.0000
  Os  Os5       1.0  0.34566655755043024  0.4810685217380524  0.35854995250701904  1.0000
  Os  Os6       1.0  0.3458091914653778  0.9366325736045837  0.9093579649925232  1.0000
