data_image0
_chemical_formula_structural       NaO3Os7
_chemical_formula_sum              "Na1 O3 Os7"
_cell_length_a       1.015073498829156
_cell_length_b       8.440443247802966
_cell_length_c       8.079174995422363
_cell_angle_alpha    127.94975761592825
_cell_angle_beta     50.95712761695062
_cell_angle_gamma    92.75015436851207

_space_group_name_H-M_alt    "P 1"
_space_group_IT_number       1

loop_
  _space_group_symop_operation_xyz
  'x, y, z'

loop_
  _atom_site_type_symbol
  _atom_site_label
  _atom_site_symmetry_multiplicity
  _atom_site_fract_x
  _atom_site_fract_y
  _atom_site_fract_z
  _atom_site_occupancy
  Na  Na1       1.0  0.6343492865562439  0.6936413645744324  0.7251866459846497  1.0000
  O   O1        1.0  0.6199695467948914  0.5492909550666809  0.02357045561075217  1.0000
  O   O2        1.0  0.9803670644760132  0.5626189112663269  0.26246261596679693  1.0000
  O   O3        1.0  0.3501657247543334  0.08122220635414125  0.8668525218963623  1.0000
  Os  Os1       1.0  0.8539049029350282  0.013427070342004278  0.28851842880249023  1.0000
  Os  Os2       1.0  0.9754741787910461  0.5005500912666321  0.3554259836673737  1.0000
  Os  Os3       1.0  0.3573402166366578  0.19372057914733884  0.5499792695045471  1.0000
  Os  Os4       1.0  0.5833522081375122  0.6254754662513733  0.906803846359253  1.0000
  Os  Os5       1.0  0.1524546891450876  0.346579134464264  0.6972451806068422  1.0000
  Os  Os6       1.0  0.01634129509329796  0.41801130771636963  0.26735603809356695  1.0000
  Os  Os7       1.0  0.3596882224082947  0.9167285561561584  0.23841769993305212  1.0000
