data_image0
_chemical_formula_structural       Na2O4Os5
_chemical_formula_sum              "Na2 O4 Os5"
_cell_length_a       3.9356973374566397
_cell_length_b       8.400577389137275
_cell_length_c       8.469181060791016
_cell_angle_alpha    119.93170637112583
_cell_angle_beta     87.79235772340877
_cell_angle_gamma    89.12760093115932

_space_group_name_H-M_alt    "P 1"
_space_group_IT_number       1

loop_
  _space_group_symop_operation_xyz
  'x, y, z'

loop_
  _atom_site_type_symbol
  _atom_site_label
  _atom_site_symmetry_multiplicity
  _atom_site_fract_x
  _atom_site_fract_y
  _atom_site_fract_z
  _atom_site_occupancy
  Na  Na1       1.0  0.5838541984558105  0.35895591974258423  0.31300950050354004  1.0000
  Na  Na2       1.0  0.0860600620508194  0.37922659516334534  0.29448989033699036  1.0000
  O   O1        1.0  0.8510282635688782  0.3079378306865692  0.1428373157978058  1.0000
  O   O2        1.0  0.3435245156288147  0.41641080379486084  0.31516557931900024  1.0000
  O   O3        1.0  0.09230652451515198  0.5819873213768005  0.16252246499061584  1.0000
  O   O4        1.0  0.3345337212085724  0.4777137041091919  0.039884325116872815  1.0000
  Os  Os1       1.0  0.09342782944440842  0.9895874857902527  0.6299413442611694  1.0000
  Os  Os2       1.0  0.5882920026779175  0.8659688830375671  0.018570253625512123  1.0000
  Os  Os3       1.0  0.5791100859642029  0.8704062104225159  0.7560452222824097  1.0000
  Os  Os4       1.0  0.8442463278770447  0.5038802623748779  0.7368324995040894  1.0000
  Os  Os5       1.0  0.08749035745859146  0.6120588779449463  0.4069701433181763  1.0000
