data_image0
_chemical_formula_structural       Na2O2Os7
_chemical_formula_sum              "Na2 O2 Os7"
_cell_length_a       2.3172534192571224
_cell_length_b       7.702350360257466
_cell_length_c       7.495996475219727
_cell_angle_alpha    131.9396241307328
_cell_angle_beta     86.91433550932565
_cell_angle_gamma    82.3093172844771

_space_group_name_H-M_alt    "P 1"
_space_group_IT_number       1

loop_
  _space_group_symop_operation_xyz
  'x, y, z'

loop_
  _atom_site_type_symbol
  _atom_site_label
  _atom_site_symmetry_multiplicity
  _atom_site_fract_x
  _atom_site_fract_y
  _atom_site_fract_z
  _atom_site_occupancy
  Na  Na1       1.0  0.29668405652046204  0.5623360276222229  0.6479000449180604  1.0000
  Na  Na2       1.0  0.2702120542526245  0.043585408478975296  0.28084984421730047  1.0000
  O   O1        1.0  0.296470046043396  0.5866308808326721  0.8935717344284059  1.0000
  O   O2        1.0  0.7901299595832825  0.36418575048446655  0.3164577186107636  1.0000
  Os  Os1       1.0  0.7889757752418518  0.5376947522163391  0.43107801675796514  1.0000
  Os  Os2       1.0  0.29326432943344116  0.29771971702575684  0.2894944548606873  1.0000
  Os  Os3       1.0  0.7966769337654114  0.9167316555976868  0.551341772079468  1.0000
  Os  Os4       1.0  0.2647360563278198  0.5522350072860718  0.4406732320785523  1.0000
  Os  Os5       1.0  0.29172179102897644  0.9383668899536133  0.9272994995117189  1.0000
  Os  Os6       1.0  0.7901237607002258  0.5705301761627197  0.29502332210540777  1.0000
  Os  Os7       1.0  0.7817283868789673  0.8602968454360962  0.3988062739372255  1.0000
