data_image0
_chemical_formula_structural       Ag2Ge3NiPSi3Y
_chemical_formula_sum              "Ag2 Ge3 Ni1 P1 Si3 Y1"
_cell_length_a       5.870004007886978
_cell_length_b       6.654848087685432
_cell_length_c       7.291965484619141
_cell_angle_alpha    116.89504698118454
_cell_angle_beta     104.50419754095252
_cell_angle_gamma    95.68572327378678

_space_group_name_H-M_alt    "P 1"
_space_group_IT_number       1

loop_
  _space_group_symop_operation_xyz
  'x, y, z'

loop_
  _atom_site_type_symbol
  _atom_site_label
  _atom_site_symmetry_multiplicity
  _atom_site_fract_x
  _atom_site_fract_y
  _atom_site_fract_z
  _atom_site_occupancy
  Ag  Ag1       1.0  0.3045314848423004  0.04972361400723457  0.4410502314567566  1.0000
  Ag  Ag2       1.0  0.9200440645217896  0.730573832988739  0.6540318727493286  1.0000
  Ge  Ge1       1.0  0.6396035552024841  0.4082879424095154  0.4273655116558075  1.0000
  Ge  Ge2       1.0  0.38109615445137024  0.7614748477935791  0.7913841605186462  1.0000
  Ge  Ge3       1.0  0.6657552719116211  0.0680469498038292  0.3211434483528137  1.0000
  Ni  Ni1       1.0  0.9028961062431335  0.06660423427820206  0.9298737049102783  1.0000
  P   P1        1.0  0.6502975821495056  0.014937622472643852  0.08931532502174377  1.0000
  Si  Si1       1.0  0.26181790232658386  0.23088136315345764  0.5811071991920471  1.0000
  Si  Si2       1.0  0.7537242770195007  0.9716536402702332  0.0809271186590196  1.0000
  Si  Si3       1.0  0.690727710723877  0.4926423132419586  0.0017635523108765483  1.0000
  Y   Y1        1.0  0.16945219039916992  0.46712595224380493  0.9889399409294128  1.0000
