data_image0
_chemical_formula_structural       Ge4NiPSi2TlY2
_chemical_formula_sum              "Ge4 Ni1 P1 Si2 Tl1 Y2"
_cell_length_a       6.697943085734461
_cell_length_b       6.904147807177616
_cell_length_c       6.803543567657471
_cell_angle_alpha    107.69065175561973
_cell_angle_beta     106.98828974229009
_cell_angle_gamma    111.06740761161176

_space_group_name_H-M_alt    "P 1"
_space_group_IT_number       1

loop_
  _space_group_symop_operation_xyz
  'x, y, z'

loop_
  _atom_site_type_symbol
  _atom_site_label
  _atom_site_symmetry_multiplicity
  _atom_site_fract_x
  _atom_site_fract_y
  _atom_site_fract_z
  _atom_site_occupancy
  Ge  Ge1       1.0  0.17868781089782715  0.6092764139175415  0.9857295155525209  1.0000
  Ge  Ge2       1.0  0.1543089896440506  0.1676623523235321  0.5899207592010498  1.0000
  Ge  Ge3       1.0  0.6307670474052429  0.5575324296951294  0.2150590568780899  1.0000
  Ge  Ge4       1.0  0.7848597168922423  0.24312904477119446  0.17532196640968317  1.0000
  Ni  Ni1       1.0  0.13202959299087524  0.12291108071804047  0.8540467023849487  1.0000
  P   P1        1.0  0.025333372876048085  0.9272028803825378  0.6795169115066528  1.0000
  Si  Si1       1.0  0.9090648293495177  0.2873621881008148  0.09381207823753357  1.0000
  Si  Si2       1.0  0.4042720198631286  0.7246735095977783  0.07474301755428314  1.0000
  Tl  Tl1       1.0  0.7960572242736815  0.6130326390266418  0.6766022443771362  1.0000
  Y   Y1        1.0  0.6269587278366089  0.11671491712331772  0.3510511517524719  1.0000
  Y   Y2        1.0  0.39610385894775385  0.9392659664154053  0.6800108551979065  1.0000
