data_image0
_chemical_formula_structural       Ag4Ge2NiPSiY2
_chemical_formula_sum              "Ag4 Ge2 Ni1 P1 Si1 Y2"
_cell_length_a       5.4350135834049365
_cell_length_b       6.409752374601223
_cell_length_c       7.341489791870117
_cell_angle_alpha    114.5749759868509
_cell_angle_beta     105.53950324231647
_cell_angle_gamma    89.3247826632765

_space_group_name_H-M_alt    "P 1"
_space_group_IT_number       1

loop_
  _space_group_symop_operation_xyz
  'x, y, z'

loop_
  _atom_site_type_symbol
  _atom_site_label
  _atom_site_symmetry_multiplicity
  _atom_site_fract_x
  _atom_site_fract_y
  _atom_site_fract_z
  _atom_site_occupancy
  Ag  Ag1       1.0  0.20611131191253662  0.8315840363502502  0.1831112951040268  1.0000
  Ag  Ag2       1.0  0.6544416546821594  0.8272688984870911  0.9065773487091064  1.0000
  Ag  Ag3       1.0  0.1459100842475891  0.3281500041484833  0.17725591361522675  1.0000
  Ag  Ag4       1.0  0.6493980884552002  0.32646864652633667  0.8797816038131714  1.0000
  Ge  Ge1       1.0  0.8535529971122742  0.1460777223110199  0.9186919331550598  1.0000
  Ge  Ge2       1.0  0.0648418515920639  0.0031850007362663746  0.7649176716804504  1.0000
  Ni  Ni1       1.0  0.8824700713157653  0.8351268172264099  0.5171034336090088  1.0000
  P   P1        1.0  0.463818073272705  0.14497242867946625  0.44690170884132385  1.0000
  Si  Si1       1.0  0.9599680304527282  0.6553216576576233  0.4190344512462616  1.0000
  Y   Y1        1.0  0.46402457356452936  0.6176764965057373  0.26306912302970886  1.0000
  Y   Y2        1.0  0.1773289442062378  0.37875106930732727  0.9611881375312805  1.0000
