data_image0
_chemical_formula_structural       Ag6Ge4Sb
_chemical_formula_sum              "Ag6 Ge4 Sb1"
_cell_length_a       5.101710773626157
_cell_length_b       6.851853037174226
_cell_length_c       6.914958953857422
_cell_angle_alpha    121.49791658007808
_cell_angle_beta     88.76609318944836
_cell_angle_gamma    87.69452399001818

_space_group_name_H-M_alt    "P 1"
_space_group_IT_number       1

loop_
  _space_group_symop_operation_xyz
  'x, y, z'

loop_
  _atom_site_type_symbol
  _atom_site_label
  _atom_site_symmetry_multiplicity
  _atom_site_fract_x
  _atom_site_fract_y
  _atom_site_fract_z
  _atom_site_occupancy
  Ag  Ag1       1.0  0.22922387719154355  0.8680961728096008  0.46645939350128174  1.0000
  Ag  Ag2       1.0  0.7305395007133484  0.35060784220695496  0.4617803990840912  1.0000
  Ag  Ag3       1.0  0.709771454334259  0.8781523108482361  0.9063431024551392  1.0000
  Ag  Ag4       1.0  0.7249515056610107  0.6960998773574829  0.07196669280529022  1.0000
  Ag  Ag5       1.0  0.7280967831611633  0.3188744783401489  0.5652990341186523  1.0000
  Ag  Ag6       1.0  0.7218342423439026  0.8893699049949646  0.9034652709960938  1.0000
  Ge  Ge1       1.0  0.2040885090827942  0.358897864818573  0.17934687435626984  1.0000
  Ge  Ge2       1.0  0.2306001931428909  0.6402950286865234  0.564589262008667  1.0000
  Ge  Ge3       1.0  0.7223653793334961  0.026283273473381996  0.1562814712524414  1.0000
  Ge  Ge4       1.0  0.23441867530345914  0.010790763422846794  0.6271562576293945  1.0000
  Sb  Sb1       1.0  0.2223781496286392  0.8590340614318848  0.05309832841157913  1.0000
