data_image0
_chemical_formula_structural       Ag5Ge3TbYb2
_chemical_formula_sum              "Ag5 Ge3 Tb1 Yb2"
_cell_length_a       5.3719927030006
_cell_length_b       7.886507972791978
_cell_length_c       7.8948516845703125
_cell_angle_alpha    120.66170313851845
_cell_angle_beta     89.48378685419063
_cell_angle_gamma    89.07124774635042

_space_group_name_H-M_alt    "P 1"
_space_group_IT_number       1

loop_
  _space_group_symop_operation_xyz
  'x, y, z'

loop_
  _atom_site_type_symbol
  _atom_site_label
  _atom_site_symmetry_multiplicity
  _atom_site_fract_x
  _atom_site_fract_y
  _atom_site_fract_z
  _atom_site_occupancy
  Ag  Ag1       1.0  0.7775663137435913  0.14220358431339264  0.3245266079902649  1.0000
  Ag  Ag2       1.0  0.7874511480331421  0.47534704208374023  0.18209926784038546  1.0000
  Ag  Ag3       1.0  0.2846812903881073  0.47919049859046936  0.7780270576477052  1.0000
  Ag  Ag4       1.0  0.27840620279312134  0.8266974091529846  0.6503945589065552  1.0000
  Ag  Ag5       1.0  0.7755312323570251  0.8880679607391357  0.32442134618759155  1.0000
  Ge  Ge1       1.0  0.2838672399520874  0.7999207973480225  0.15478184819221497  1.0000
  Ge  Ge2       1.0  0.2780905067920685  0.18162919580936432  0.28115925192832947  1.0000
  Ge  Ge3       1.0  0.779486358165741  0.14611439406871796  0.372394859790802  1.0000
  Tb  Tb1       1.0  0.03326379135251045  0.41213658452033997  0.12162345647811894  1.0000
  Yb  Yb1       1.0  0.777790904045105  0.47985559701919556  0.8626018166542054  1.0000
  Yb  Yb2       1.0  0.28457462787628174  0.6517689228057861  0.27856454253196716  1.0000
