data_image0
_chemical_formula_structural       Ag3Ge4PSiTlYb
_chemical_formula_sum              "Ag3 Ge4 P1 Si1 Tl1 Yb1"
_cell_length_a       5.019204447744208
_cell_length_b       6.534290318736951
_cell_length_c       7.457301139831543
_cell_angle_alpha    112.2390207777077
_cell_angle_beta     100.35713654841722
_cell_angle_gamma    94.64841009981342

_space_group_name_H-M_alt    "P 1"
_space_group_IT_number       1

loop_
  _space_group_symop_operation_xyz
  'x, y, z'

loop_
  _atom_site_type_symbol
  _atom_site_label
  _atom_site_symmetry_multiplicity
  _atom_site_fract_x
  _atom_site_fract_y
  _atom_site_fract_z
  _atom_site_occupancy
  Ag  Ag1       1.0  0.7366902232170105  0.8182759881019592  0.30357977747917175  1.0000
  Ag  Ag2       1.0  0.22300852835178375  0.2941887676715851  0.467989981174469  1.0000
  Ag  Ag3       1.0  0.8345368504524231  0.7701196670532227  0.43412691354751587  1.0000
  Ge  Ge1       1.0  0.7363340854644775  0.6125880479812622  0.8496448397636414  1.0000
  Ge  Ge2       1.0  0.7404575943946838  0.11145568639039993  0.5479809641838074  1.0000
  Ge  Ge3       1.0  0.2657836377620697  0.7533629536628723  0.6687727570533752  1.0000
  Ge  Ge4       1.0  0.2545923888683319  0.06089412793517113  0.5308033227920532  1.0000
  P   P1        1.0  0.969387412071228  0.7805679440498352  0.06761220097541809  1.0000
  Si  Si1       1.0  0.25739815831184387  0.3807203471660614  0.1548224687576294  1.0000
  Tl  Tl1       1.0  0.7498571276664734  0.42045149207115173  0.24428676068782806  1.0000
  Yb  Yb1       1.0  0.23685523867607117  0.09555977582931519  0.792438268661499  1.0000
