data_image0
_chemical_formula_structural       Ge3ITb3
_chemical_formula_sum              "Ge3 I1 Tb3"
_cell_length_a       4.9926573753182835
_cell_length_b       5.755596641373124
_cell_length_c       7.274913787841797
_cell_angle_alpha    89.1398096683593
_cell_angle_beta     90.49096416177345
_cell_angle_gamma    89.09704667849402

_space_group_name_H-M_alt    "P 1"
_space_group_IT_number       1

loop_
  _space_group_symop_operation_xyz
  'x, y, z'

loop_
  _atom_site_type_symbol
  _atom_site_label
  _atom_site_symmetry_multiplicity
  _atom_site_fract_x
  _atom_site_fract_y
  _atom_site_fract_z
  _atom_site_occupancy
  Ge  Ge1       1.0  0.10447421669960022  0.047601889818906784  0.9762089252471925  1.0000
  Ge  Ge2       1.0  0.5960845351219177  0.5980706810951233  0.26773595809936523  1.0000
  Ge  Ge3       1.0  0.10053548216819763  0.5807161331176758  0.6890195608139038  1.0000
  I   I1        1.0  0.1031360849738121  0.37260499596595764  0.797193467617035  1.0000
  Tb  Tb1       1.0  0.6018480062484741  0.31058934330940247  0.4390134811401368  1.0000
  Tb  Tb2       1.0  0.10148830711841583  0.18780851364135742  0.9021846055984499  1.0000
  Tb  Tb3       1.0  0.6043211817741394  0.15006010234355927  0.6467676162719727  1.0000
