data_image0
_chemical_formula_structural       Ru9U
_chemical_formula_sum              "Ru9 U1"
_cell_length_a       5.152713501950893
_cell_length_b       5.703236711793459
_cell_length_c       6.780093669891357
_cell_angle_alpha    89.87453830363127
_cell_angle_beta     90.78740625896403
_cell_angle_gamma    110.6349611699813

_space_group_name_H-M_alt    "P 1"
_space_group_IT_number       1

loop_
  _space_group_symop_operation_xyz
  'x, y, z'

loop_
  _atom_site_type_symbol
  _atom_site_label
  _atom_site_symmetry_multiplicity
  _atom_site_fract_x
  _atom_site_fract_y
  _atom_site_fract_z
  _atom_site_occupancy
  Ru  Ru1       1.0  0.693220317363739  0.9806392788887024  0.025567451491951942  1.0000
  Ru  Ru2       1.0  0.4538312256336212  0.4987228214740753  0.05284486338496208  1.0000
  Ru  Ru3       1.0  0.8966972231864929  0.517166256904602  0.4498765170574188  1.0000
  Ru  Ru4       1.0  0.6757215261459351  0.9793063402175903  0.03579653054475784  1.0000
  Ru  Ru5       1.0  0.46724459528923035  0.5107949376106262  0.9356877207756042  1.0000
  Ru  Ru6       1.0  0.683883011341095  0.3487672507762909  0.7094933390617371  1.0000
  Ru  Ru7       1.0  0.18663126230239868  0.5052511096000671  0.35945338010787964  1.0000
  Ru  Ru8       1.0  0.4223006069660187  0.4887830913066864  0.5494168996810913  1.0000
  Ru  Ru9       1.0  0.5897303819656372  0.9911566972732544  0.21003268659114838  1.0000
  U   U1        1.0  0.9694948792457581  0.9855527281761169  0.215063214302063  1.0000
