data_image0
_chemical_formula_structural       Ru8SnTl
_chemical_formula_sum              "Ru8 Sn1 Tl1"
_cell_length_a       4.231299616565388
_cell_length_b       6.33583149016101
_cell_length_c       6.286395072937012
_cell_angle_alpha    90.01067911318415
_cell_angle_beta     91.52535594444295
_cell_angle_gamma    88.95922597246401

_space_group_name_H-M_alt    "P 1"
_space_group_IT_number       1

loop_
  _space_group_symop_operation_xyz
  'x, y, z'

loop_
  _atom_site_type_symbol
  _atom_site_label
  _atom_site_symmetry_multiplicity
  _atom_site_fract_x
  _atom_site_fract_y
  _atom_site_fract_z
  _atom_site_occupancy
  Ru  Ru1       1.0  0.8611292243003845  0.3021325469017029  0.13016851246356964  1.0000
  Ru  Ru2       1.0  0.3673821985721588  0.2951357364654541  0.3502925634384155  1.0000
  Ru  Ru3       1.0  0.3580341339111328  0.5127705335617065  0.8594355583190918  1.0000
  Ru  Ru4       1.0  0.8633192181587219  0.007326103746891023  0.6363911032676697  1.0000
  Ru  Ru5       1.0  0.36085638403892517  0.31552061438560486  0.6231324076652527  1.0000
  Ru  Ru6       1.0  0.8632369637489319  0.7944244742393494  0.9697471261024475  1.0000
  Ru  Ru7       1.0  0.3582513928413391  0.8186994194984436  0.6334154009819031  1.0000
  Ru  Ru8       1.0  0.8613907694816589  0.2972339987754822  0.9629965424537659  1.0000
  Sn  Sn1       1.0  0.36329326033592224  0.7928361296653748  0.3027563691139221  1.0000
  Tl  Tl1       1.0  0.35410067439079285  0.8223444223403931  0.6210412979125977  1.0000
