data_image0
_chemical_formula_structural       Cl2Ru7Sn
_chemical_formula_sum              "Cl2 Ru7 Sn1"
_cell_length_a       5.525377486871557
_cell_length_b       6.104628880967879
_cell_length_c       6.9849958419799805
_cell_angle_alpha    88.76963303258901
_cell_angle_beta     89.46167597607045
_cell_angle_gamma    112.56386765900433

_space_group_name_H-M_alt    "P 1"
_space_group_IT_number       1

loop_
  _space_group_symop_operation_xyz
  'x, y, z'

loop_
  _atom_site_type_symbol
  _atom_site_label
  _atom_site_symmetry_multiplicity
  _atom_site_fract_x
  _atom_site_fract_y
  _atom_site_fract_z
  _atom_site_occupancy
  Cl  Cl1       1.0  0.7872949242591858  0.4180212020874023  0.9614813327789306  1.0000
  Cl  Cl2       1.0  0.9972490668296814  0.6956990957260132  0.19633348286151886  1.0000
  Ru  Ru1       1.0  0.21327206492424003  0.8569417595863341  0.6778462529182434  1.0000
  Ru  Ru2       1.0  0.5227298140525818  0.19605642557144162  0.4665665924549102  1.0000
  Ru  Ru3       1.0  0.9229114651679993  0.1946020722389221  0.16337518393993378  1.0000
  Ru  Ru4       1.0  0.6163927912712097  0.43995055556297297  0.5153358578681946  1.0000
  Ru  Ru5       1.0  0.27955195307731623  0.438875138759613  0.9627708792686461  1.0000
  Ru  Ru6       1.0  0.8089805841445923  0.93772554397583  0.2602236568927765  1.0000
  Ru  Ru7       1.0  0.5213611721992492  0.9003751277923583  0.4650293886661529  1.0000
  Sn  Sn1       1.0  0.2915013432502746  0.44334772229194636  0.9623332023620604  1.0000
