data_image0
_chemical_formula_structural       ClRu9
_chemical_formula_sum              "Cl1 Ru9"
_cell_length_a       5.336300985189848
_cell_length_b       5.234176513677911
_cell_length_c       6.856337070465088
_cell_angle_alpha    89.6239215494616
_cell_angle_beta     89.0416942153404
_cell_angle_gamma    89.5595150087435

_space_group_name_H-M_alt    "P 1"
_space_group_IT_number       1

loop_
  _space_group_symop_operation_xyz
  'x, y, z'

loop_
  _atom_site_type_symbol
  _atom_site_label
  _atom_site_symmetry_multiplicity
  _atom_site_fract_x
  _atom_site_fract_y
  _atom_site_fract_z
  _atom_site_occupancy
  Cl  Cl1       1.0  0.4156891405582428  0.25713616609573364  0.6560020446777345  1.0000
  Ru  Ru1       1.0  0.26762521266937256  0.6396684050559998  0.5146603584289551  1.0000
  Ru  Ru2       1.0  0.9330136179924011  0.13570018112659454  0.5136221051216125  1.0000
  Ru  Ru3       1.0  0.07205232977867126  0.9745469093322754  0.01621120795607567  1.0000
  Ru  Ru4       1.0  0.7709993124008179  0.6374322175979614  0.5127215385437012  1.0000
  Ru  Ru5       1.0  0.7510312795639038  0.636703372001648  0.24335920810699466  1.0000
  Ru  Ru6       1.0  0.2685898542404175  0.1362776756286621  0.009810856543481352  1.0000
  Ru  Ru7       1.0  0.2757191061973572  0.6259135603904724  0.2344549745321274  1.0000
  Ru  Ru8       1.0  0.7580891251564026  0.14386232197284698  0.010756383650004865  1.0000
  Ru  Ru9       1.0  0.2738381326198578  0.6378529071807861  0.5143395662307739  1.0000
