data_image0
_chemical_formula_structural       Cl3Ru7
_chemical_formula_sum              "Cl3 Ru7"
_cell_length_a       5.004136025088405
_cell_length_b       6.13799253028655
_cell_length_c       6.628924369812012
_cell_angle_alpha    89.56242279729028
_cell_angle_beta     90.78695760804278
_cell_angle_gamma    88.81578481421845

_space_group_name_H-M_alt    "P 1"
_space_group_IT_number       1

loop_
  _space_group_symop_operation_xyz
  'x, y, z'

loop_
  _atom_site_type_symbol
  _atom_site_label
  _atom_site_symmetry_multiplicity
  _atom_site_fract_x
  _atom_site_fract_y
  _atom_site_fract_z
  _atom_site_occupancy
  Cl  Cl1       1.0  0.7777374982833862  0.6119397282600403  0.15830892324447632  1.0000
  Cl  Cl2       1.0  0.29342079162597656  0.12161409109830855  0.951738178730011  1.0000
  Cl  Cl3       1.0  0.8179033398628235  0.9452466368675231  0.7185119986534119  1.0000
  Ru  Ru1       1.0  0.061844196170568466  0.6339444518089294  0.5222424864768982  1.0000
  Ru  Ru2       1.0  0.06458760052919388  0.13418184220790863  0.17899367213249207  1.0000
  Ru  Ru3       1.0  0.560140073299408  0.13990318775177002  0.025532061234116554  1.0000
  Ru  Ru4       1.0  0.5577021837234497  0.13709886372089386  0.521609365940094  1.0000
  Ru  Ru5       1.0  0.5562812089920044  0.6370729804039001  0.030458621680736542  1.0000
  Ru  Ru6       1.0  0.06048024445772171  0.1305323839187622  0.010599288158118725  1.0000
  Ru  Ru7       1.0  0.06126377359032631  0.6337500214576721  0.5134824514389038  1.0000
