data_image0
_chemical_formula_structural       ClRu8S
_chemical_formula_sum              "Cl1 Ru8 S1"
_cell_length_a       4.631795013689251
_cell_length_b       6.740049160649149
_cell_length_c       6.863373756408691
_cell_angle_alpha    115.74551292014087
_cell_angle_beta     91.18920019188602
_cell_angle_gamma    89.18203339451922

_space_group_name_H-M_alt    "P 1"
_space_group_IT_number       1

loop_
  _space_group_symop_operation_xyz
  'x, y, z'

loop_
  _atom_site_type_symbol
  _atom_site_label
  _atom_site_symmetry_multiplicity
  _atom_site_fract_x
  _atom_site_fract_y
  _atom_site_fract_z
  _atom_site_occupancy
  Cl  Cl1       1.0  0.9817661643028259  0.7179239988327026  0.9260729551315308  1.0000
  Ru  Ru1       1.0  0.4760487377643585  0.024524511769413948  0.40826210379600525  1.0000
  Ru  Ru2       1.0  0.47999823093414307  0.027928948402404785  0.29636698961257935  1.0000
  Ru  Ru3       1.0  0.9802781939506531  0.024891996756196022  0.6423677206039429  1.0000
  Ru  Ru4       1.0  0.9823222756385803  0.2738529443740845  0.1413625925779343  1.0000
  Ru  Ru5       1.0  0.47872644662857056  0.7121604084968567  0.11582311987876892  1.0000
  Ru  Ru6       1.0  0.9820106625556946  0.9403351545333862  0.6732774972915649  1.0000
  Ru  Ru7       1.0  0.9825728535652161  0.2335154265165329  0.4306686818599701  1.0000
  Ru  Ru8       1.0  0.4816407561302185  0.42174339294433594  0.02745991013944149  1.0000
  S   S1        1.0  0.48639222979545593  0.5050591826438904  0.5914743542671204  1.0000
