data_image0
_chemical_formula_structural       HP2Pr4Ru2S
_chemical_formula_sum              "H1 P2 Pr4 Ru2 S1"
_cell_length_a       6.045591942981412
_cell_length_b       6.83864241910175
_cell_length_c       7.803071022033691
_cell_angle_alpha    113.00070990809927
_cell_angle_beta     107.10436207229364
_cell_angle_gamma    98.52247353798788

_space_group_name_H-M_alt    "P 1"
_space_group_IT_number       1

loop_
  _space_group_symop_operation_xyz
  'x, y, z'

loop_
  _atom_site_type_symbol
  _atom_site_label
  _atom_site_symmetry_multiplicity
  _atom_site_fract_x
  _atom_site_fract_y
  _atom_site_fract_z
  _atom_site_occupancy
  H   H1        1.0  0.29136916995048523  0.9805376529693602  0.7543239593505859  1.0000
  P   P1        1.0  0.3626820743083954  0.4549694955348968  0.3672676086425781  1.0000
  P   P2        1.0  0.5647764801979065  0.4362890422344207  0.1882682591676712  1.0000
  Pr  Pr1       1.0  0.5714239478111267  0.9605289697647094  0.5674871206283569  1.0000
  Pr  Pr2       1.0  0.8812940716743469  0.6343130469322205  0.5765932202339172  1.0000
  Pr  Pr3       1.0  0.06563354283571239  0.9570260047912597  0.36421653628349304  1.0000
  Pr  Pr4       1.0  0.3625281751155853  0.45701479911804194  0.37650659680366516  1.0000
  Ru  Ru1       1.0  0.5749154686927795  0.9783022999763488  0.8986950516700745  1.0000
  Ru  Ru2       1.0  0.371746689081192  0.2462147772312164  0.09179341793060303  1.0000
  S   S1        1.0  0.9468197226524353  0.48927617073059076  0.8962000012397766  1.0000
