data_image0
_chemical_formula_structural       BHLuPPr3STi2
_chemical_formula_sum              "B1 H1 Lu1 P1 Pr3 S1 Ti2"
_cell_length_a       4.674421729700612
_cell_length_b       6.488790312217378
_cell_length_c       8.361223220825195
_cell_angle_alpha    109.69790525968548
_cell_angle_beta     100.7413043187107
_cell_angle_gamma    87.52587640065273

_space_group_name_H-M_alt    "P 1"
_space_group_IT_number       1

loop_
  _space_group_symop_operation_xyz
  'x, y, z'

loop_
  _atom_site_type_symbol
  _atom_site_label
  _atom_site_symmetry_multiplicity
  _atom_site_fract_x
  _atom_site_fract_y
  _atom_site_fract_z
  _atom_site_occupancy
  B   B1        1.0  0.41247987747192383  0.5847799181938171  0.7582441568374634  1.0000
  H   H1        1.0  0.919827401638031  0.2772809565067291  0.2879237234592438  1.0000
  Lu  Lu1       1.0  0.9248454570770264  0.5564265251159668  0.9517452120780945  1.0000
  P   P1        1.0  0.9444844126701355  0.7946904301643372  0.6581223011016846  1.0000
  Pr  Pr1       1.0  0.43986979126930237  0.7915924191474915  0.4615963101387024  1.0000
  Pr  Pr2       1.0  0.9214483499526978  0.4843907654285431  0.27376943826675415  1.0000
  Pr  Pr3       1.0  0.6233507394790649  0.06256184726953506  0.08709385246038437  1.0000
  S   S1        1.0  0.1491202861070633  0.8060969710350037  0.025942308828234673  1.0000
  Ti  Ti1       1.0  0.42569851875305176  0.7977410554885864  0.7758167386054993  1.0000
  Ti  Ti2       1.0  0.654952883720398  0.7521834373474121  0.2340051382780075  1.0000
