data_image0
_chemical_formula_structural       P2PrRu6Tl
_chemical_formula_sum              "P2 Pr1 Ru6 Tl1"
_cell_length_a       4.489676843799566
_cell_length_b       7.337379828414623
_cell_length_c       7.253391265869141
_cell_angle_alpha    121.97731142908103
_cell_angle_beta     88.99660937036292
_cell_angle_gamma    89.93059566405107

_space_group_name_H-M_alt    "P 1"
_space_group_IT_number       1

loop_
  _space_group_symop_operation_xyz
  'x, y, z'

loop_
  _atom_site_type_symbol
  _atom_site_label
  _atom_site_symmetry_multiplicity
  _atom_site_fract_x
  _atom_site_fract_y
  _atom_site_fract_z
  _atom_site_occupancy
  P   P1        1.0  0.17662687599658966  0.6415380239486694  0.19836467504501348  1.0000
  P   P2        1.0  0.6562658548355103  0.7127336263656616  0.32748484611511236  1.0000
  Pr  Pr1       1.0  0.6541734933853149  0.998001754283905  0.7142821550369263  1.0000
  Ru  Ru1       1.0  0.6465979814529419  0.56312096118927  0.3572717308998108  1.0000
  Ru  Ru2       1.0  0.14246290922164917  0.2850417196750641  0.06119221821427345  1.0000
  Ru  Ru3       1.0  0.14420582354068756  0.940132200717926  0.8422155380249023  1.0000
  Ru  Ru4       1.0  0.6501778960227966  0.14434807002544403  0.8906053900718689  1.0000
  Ru  Ru5       1.0  0.14587639272212982  0.26122042536735535  0.18273070454597473  1.0000
  Ru  Ru6       1.0  0.6506352424621582  0.2571846544742584  0.6056169271469116  1.0000
  Tl  Tl1       1.0  0.14605291187763214  0.7849541902542114  0.4456149339675904  1.0000
