data_image0
_chemical_formula_structural       PPr5Ru4
_chemical_formula_sum              "P1 Pr5 Ru4"
_cell_length_a       3.011628347143509
_cell_length_b       5.368972658001807
_cell_length_c       6.701831340789795
_cell_angle_alpha    125.3002099676214
_cell_angle_beta     93.12801402773019
_cell_angle_gamma    56.79577555814078

_space_group_name_H-M_alt    "P 1"
_space_group_IT_number       1

loop_
  _space_group_symop_operation_xyz
  'x, y, z'

loop_
  _atom_site_type_symbol
  _atom_site_label
  _atom_site_symmetry_multiplicity
  _atom_site_fract_x
  _atom_site_fract_y
  _atom_site_fract_z
  _atom_site_occupancy
  P   P1        1.0  0.2576487362384796  0.07678251713514328  0.22349506616592407  1.0000
  Pr  Pr1       1.0  0.732653021812439  0.10990134626626968  0.5558410286903381  1.0000
  Pr  Pr2       1.0  0.22554416954517365  0.21474464237689972  0.2629989683628082  1.0000
  Pr  Pr3       1.0  0.21652989089488983  0.10725586861371994  0.18769606947898865  1.0000
  Pr  Pr4       1.0  0.745837390422821  0.6851386427879333  0.48163083195686335  1.0000
  Pr  Pr5       1.0  0.7527984380722046  0.6877557039260864  0.9377420544624329  1.0000
  Ru  Ru1       1.0  0.23922351002693176  0.9414133429527283  0.13725933432579032  1.0000
  Ru  Ru2       1.0  0.7379319071769714  0.7686446905136108  0.4568190276622771  1.0000
  Ru  Ru3       1.0  0.7499876022338867  0.5981788635253906  0.5597937703132629  1.0000
  Ru  Ru4       1.0  0.7651121616363525  0.3300354778766632  0.4776890575885772  1.0000
