data_image0
_chemical_formula_structural       Pr3Ru7
_chemical_formula_sum              "Pr3 Ru7"
_cell_length_a       3.8538066759904335
_cell_length_b       7.105355052787866
_cell_length_c       7.2748332023620605
_cell_angle_alpha    121.56961584217837
_cell_angle_beta     90.95892054473323
_cell_angle_gamma    87.51668259030302

_space_group_name_H-M_alt    "P 1"
_space_group_IT_number       1

loop_
  _space_group_symop_operation_xyz
  'x, y, z'

loop_
  _atom_site_type_symbol
  _atom_site_label
  _atom_site_symmetry_multiplicity
  _atom_site_fract_x
  _atom_site_fract_y
  _atom_site_fract_z
  _atom_site_occupancy
  Pr  Pr1       1.0  0.9011346697807312  0.5552383065223694  0.2547926604747772  1.0000
  Pr  Pr2       1.0  0.40235763788223267  0.7075377702713013  0.2530412971973419  1.0000
  Pr  Pr3       1.0  0.8935221433639526  0.09387461096048355  0.048925690352916724  1.0000
  Ru  Ru1       1.0  0.885760486125946  0.8870494365692139  0.1811886131763459  1.0000
  Ru  Ru2       1.0  0.8861794471740723  0.11588213592767715  0.4808859825134278  1.0000
  Ru  Ru3       1.0  0.375922828912735  0.733398973941803  0.021334223449230198  1.0000
  Ru  Ru4       1.0  0.8957667946815491  0.13588951528072357  0.4400922060012818  1.0000
  Ru  Ru5       1.0  0.889972984790802  0.9011930227279663  0.6163802146911622  1.0000
  Ru  Ru6       1.0  0.8865973949432373  0.12189654260873795  0.5078389048576355  1.0000
  Ru  Ru7       1.0  0.3994334042072296  0.34528622031211853  0.6306801438331605  1.0000
