data_image0
_chemical_formula_structural       Pr3Ru4STl2
_chemical_formula_sum              "Pr3 Ru4 S1 Tl2"
_cell_length_a       2.915344845542429
_cell_length_b       5.3555490609215735
_cell_length_c       7.967147350311279
_cell_angle_alpha    104.53652360273249
_cell_angle_beta     92.3738590630756
_cell_angle_gamma    70.86765104422649

_space_group_name_H-M_alt    "P 1"
_space_group_IT_number       1

loop_
  _space_group_symop_operation_xyz
  'x, y, z'

loop_
  _atom_site_type_symbol
  _atom_site_label
  _atom_site_symmetry_multiplicity
  _atom_site_fract_x
  _atom_site_fract_y
  _atom_site_fract_z
  _atom_site_occupancy
  Pr  Pr1       1.0  0.8556387424468994  0.11627750098705292  0.12423431873321533  1.0000
  Pr  Pr2       1.0  0.8591311573982239  0.14118139445781708  0.4815773665904999  1.0000
  Pr  Pr3       1.0  0.35492512583732605  0.7433478832244873  0.9980247616767883  1.0000
  Ru  Ru1       1.0  0.8602627515792847  0.5009051561355591  0.9735742807388306  1.0000
  Ru  Ru2       1.0  0.34552228450775146  0.5234166383743286  0.4602850675582886  1.0000
  Ru  Ru3       1.0  0.8445297479629517  0.7044583559036255  0.5615097880363464  1.0000
  Ru  Ru4       1.0  0.8543184995651245  0.00636450806632638  0.5606273412704468  1.0000
  S   S1        1.0  0.34672409296035767  0.7157045006752014  0.4951382279396057  1.0000
  Tl  Tl1       1.0  0.3530348241329193  0.6895033121109009  0.6796565651893616  1.0000
  Tl  Tl2       1.0  0.35436156392097473  0.0220579132437706  0.7279003858566284  1.0000
