data_image0
_chemical_formula_structural       F2H5NiP5Pb
_chemical_formula_sum              "F2 H5 Ni1 P5 Pb1"
_cell_length_a       5.263098078212348
_cell_length_b       6.784194300937581
_cell_length_c       6.978552341461182
_cell_angle_alpha    100.02793532016257
_cell_angle_beta     100.41130928594856
_cell_angle_gamma    110.29232550447077

_space_group_name_H-M_alt    "P 1"
_space_group_IT_number       1

loop_
  _space_group_symop_operation_xyz
  'x, y, z'

loop_
  _atom_site_type_symbol
  _atom_site_label
  _atom_site_symmetry_multiplicity
  _atom_site_fract_x
  _atom_site_fract_y
  _atom_site_fract_z
  _atom_site_occupancy
  F   F1        1.0  0.8290590047836304  0.9497094154357911  0.43128985166549677  1.0000
  F   F2        1.0  0.36430594325065613  0.19806522130966187  0.3198850750923156  1.0000
  H   H1        1.0  0.14327599108219147  0.16665677726268768  0.6518072485923766  1.0000
  H   H2        1.0  0.2430906295776367  0.7245819568634033  0.031917903572320966  1.0000
  H   H3        1.0  0.5381913781166077  0.20392654836177826  0.33605954051017756  1.0000
  H   H4        1.0  0.14908187091350555  0.1431640386581421  0.533388614654541  1.0000
  H   H5        1.0  0.8132770657539368  0.0818408653140068  0.2124562710523605  1.0000
  Ni  Ni1       1.0  0.21372000873088837  0.6521286368370056  0.12170735001564029  1.0000
  P   P1        1.0  0.02450735867023468  0.7348418831825256  0.8269263505935668  1.0000
  P   P2        1.0  0.8180757761001587  0.03177507966756821  0.778601586818695  1.0000
  P   P3        1.0  0.24716617166996  0.17248126864433289  0.9725890159606932  1.0000
  P   P4        1.0  0.8753734827041626  0.5501281023025513  0.32867768406867975  1.0000
  P   P5        1.0  0.538683295249939  0.7382928729057312  0.004498019348830016  1.0000
  Pb  Pb1       1.0  0.7443708777427673  0.7060978412628174  0.7160302996635436  1.0000
