data_image0
_chemical_formula_structural       AsF2H5HoLaOP3
_chemical_formula_sum              "As1 F2 H5 Ho1 La1 O1 P3"
_cell_length_a       5.599993182128483
_cell_length_b       6.220467522263945
_cell_length_c       7.053277492523193
_cell_angle_alpha    103.50855581307115
_cell_angle_beta     100.32099394912287
_cell_angle_gamma    110.29882931181412

_space_group_name_H-M_alt    "P 1"
_space_group_IT_number       1

loop_
  _space_group_symop_operation_xyz
  'x, y, z'

loop_
  _atom_site_type_symbol
  _atom_site_label
  _atom_site_symmetry_multiplicity
  _atom_site_fract_x
  _atom_site_fract_y
  _atom_site_fract_z
  _atom_site_occupancy
  As  As1       1.0  0.9252959489822388  0.15681859850883484  0.38694968819618225  1.0000
  F   F1        1.0  0.5551279187202454  0.5402887463569641  0.926567792892456  1.0000
  F   F2        1.0  0.5232211947441101  0.5011686682701111  0.11976199597120285  1.0000
  H   H1        1.0  0.24294835329055786  0.23211838304996488  0.3563401401042938  1.0000
  H   H2        1.0  0.2534175217151641  0.8517477512359618  0.4165459871292114  1.0000
  H   H3        1.0  0.23286350071430206  0.1627083122730255  0.6994735598564148  1.0000
  H   H4        1.0  0.8589841723442078  0.23361010849475858  0.6491930484771729  1.0000
  H   H5        1.0  0.5008912682533264  0.3671087920665741  0.33952730894088745  1.0000
  Ho  Ho1       1.0  0.8893035650253296  0.19832323491573334  0.025372616946697235  1.0000
  La  La1       1.0  0.9079801440238953  0.7718245983123779  0.3011980652809143  1.0000
  O   O1        1.0  0.1519684344530105  0.4984284043312072  0.64357590675354  1.0000
  P   P1        1.0  0.8624983429908752  0.717914342880249  0.2774599492549896  1.0000
  P   P2        1.0  0.8159080743789673  0.7593638300895691  0.5935984253883362  1.0000
  P   P3        1.0  0.5523582100868225  0.06272836774587631  0.6286132335662842  1.0000
