data_image0
_chemical_formula_structural       F3H6NP2SV
_chemical_formula_sum              "F3 H6 N1 P2 S1 V1"
_cell_length_a       5.042366348986629
_cell_length_b       6.618939574870365
_cell_length_c       7.303321838378906
_cell_angle_alpha    103.44218661648533
_cell_angle_beta     95.95357695242775
_cell_angle_gamma    107.30050030363869

_space_group_name_H-M_alt    "P 1"
_space_group_IT_number       1

loop_
  _space_group_symop_operation_xyz
  'x, y, z'

loop_
  _atom_site_type_symbol
  _atom_site_label
  _atom_site_symmetry_multiplicity
  _atom_site_fract_x
  _atom_site_fract_y
  _atom_site_fract_z
  _atom_site_occupancy
  F   F1        1.0  0.3067649006843567  0.3332468569278717  0.23248521983623507  1.0000
  F   F2        1.0  0.044061116874218036  0.899750590324402  0.6368588209152222  1.0000
  F   F3        1.0  0.5551994442939758  0.5947369337081909  0.06959070265293126  1.0000
  H   H1        1.0  0.5436407327651978  0.06864629685878754  0.6121856570243835  1.0000
  H   H2        1.0  0.9121438264846802  0.6608332395553589  0.4125023484230042  1.0000
  H   H3        1.0  0.7767682075500488  0.20134888589382174  0.9187960624694825  1.0000
  H   H4        1.0  0.8457725644111633  0.8249700069427491  0.005849278066307307  1.0000
  H   H5        1.0  0.8732375502586365  0.23183809220790866  0.49956917762756353  1.0000
  H   H6        1.0  0.2660872638225556  0.8540381193161012  0.627489447593689  1.0000
  N   N1        1.0  0.8302350044250488  0.27489787340164185  0.0989620164036751  1.0000
  P   P1        1.0  0.2959507405757904  0.5957831740379333  0.8148967623710633  1.0000
  P   P2        1.0  0.3470893502235413  0.9186571836471559  0.15725481510162354  1.0000
  S   S1        1.0  0.2566007673740387  0.3569345474243164  0.19263568520545962  1.0000
  V   V1        1.0  0.2911664545536041  0.04436073824763298  0.9721233844757081  1.0000
