data_image0
_chemical_formula_structural       F3H6Ho4P
_chemical_formula_sum              "F3 H6 Ho4 P1"
_cell_length_a       4.690138248690197
_cell_length_b       6.18285807180821
_cell_length_c       7.257390022277832
_cell_angle_alpha    100.40974251977357
_cell_angle_beta     88.95695236632467
_cell_angle_gamma    109.02480701028661

_space_group_name_H-M_alt    "P 1"
_space_group_IT_number       1

loop_
  _space_group_symop_operation_xyz
  'x, y, z'

loop_
  _atom_site_type_symbol
  _atom_site_label
  _atom_site_symmetry_multiplicity
  _atom_site_fract_x
  _atom_site_fract_y
  _atom_site_fract_z
  _atom_site_occupancy
  F   F1        1.0  0.19660155475139618  0.8266285061836243  0.8060530424118042  1.0000
  F   F2        1.0  0.9519211649894714  0.44848033785820013  0.5514211654663086  1.0000
  F   F3        1.0  0.6627132296562195  0.7131844162940979  0.40093255043029785  1.0000
  H   H1        1.0  0.3144266903400421  0.15988260507583618  0.15643207728862762  1.0000
  H   H2        1.0  0.9571534395217896  0.9806261658668519  0.8677769303321838  1.0000
  H   H3        1.0  0.3972223699092865  0.0004900771309621632  0.49402132630348206  1.0000
  H   H4        1.0  0.64937824010849  0.06504697352647781  0.8105754256248475  1.0000
  H   H5        1.0  0.6390292048454285  0.4040663242340088  0.4977251887321472  1.0000
  H   H6        1.0  0.4042852818965912  0.7380409240722656  0.8635708689689636  1.0000
  Ho  Ho1       1.0  0.9678595066070557  0.44895356893539434  0.5447927713394165  1.0000
  Ho  Ho2       1.0  0.6358400583267212  0.9325606226921083  0.5543045997619629  1.0000
  Ho  Ho3       1.0  0.13777977228164673  0.43514636158943176  0.5137414336204529  1.0000
  Ho  Ho4       1.0  0.36950400471687317  0.3700917065143585  0.753135085105896  1.0000
  P   P1        1.0  0.44216474890708923  0.4136841595172882  0.9955341815948486  1.0000
