data_image0
_chemical_formula_structural       F4H5LaNP2V
_chemical_formula_sum              "F4 H5 La1 N1 P2 V1"
_cell_length_a       5.351992490158803
_cell_length_b       6.338314981276641
_cell_length_c       6.677987575531006
_cell_angle_alpha    108.41952135274182
_cell_angle_beta     104.80809929041176
_cell_angle_gamma    105.33137004142216

_space_group_name_H-M_alt    "P 1"
_space_group_IT_number       1

loop_
  _space_group_symop_operation_xyz
  'x, y, z'

loop_
  _atom_site_type_symbol
  _atom_site_label
  _atom_site_symmetry_multiplicity
  _atom_site_fract_x
  _atom_site_fract_y
  _atom_site_fract_z
  _atom_site_occupancy
  F   F1        1.0  0.3292089104652405  0.3289984166622162  0.9315816164016724  1.0000
  F   F2        1.0  0.6030129194259642  0.9500061869621276  0.3021336495876312  1.0000
  F   F3        1.0  0.8384819626808167  0.33021244406700134  0.652945339679718  1.0000
  F   F4        1.0  0.6515623331069946  0.7449907660484314  0.24233777821063995  1.0000
  H   H1        1.0  0.11433769017457962  0.7049218416213989  0.2695590853691101  1.0000
  H   H2        1.0  0.11099714040756223  0.238854706287384  0.32759225368499756  1.0000
  H   H3        1.0  0.6225646734237671  0.303277850151062  0.23636886477470398  1.0000
  H   H4        1.0  0.11804478615522383  0.05935027450323104  0.7713499069213867  1.0000
  H   H5        1.0  0.514555037021637  0.28235742449760437  0.319642573595047  1.0000
  La  La1       1.0  0.5813186764717102  0.5791641473770142  0.11719892919063564  1.0000
  N   N1        1.0  0.26017099618911743  0.8121200203895569  0.9149640202522278  1.0000
  P   P1        1.0  0.10423643887042999  0.7881696224212646  0.5954312682151793  1.0000
  P   P2        1.0  0.984530210494995  0.5767691731452942  0.20415985584259033  1.0000
  V   V1        1.0  0.9508700966835021  0.1161408945918083  0.7159214615821838  1.0000
