data_image0
_chemical_formula_structural       F2H4Ho5NP2
_chemical_formula_sum              "F2 H4 Ho5 N1 P2"
_cell_length_a       4.715060933375184
_cell_length_b       6.839154800807843
_cell_length_c       8.147679328918457
_cell_angle_alpha    110.20492379061834
_cell_angle_beta     88.59107844861707
_cell_angle_gamma    99.15040548377858

_space_group_name_H-M_alt    "P 1"
_space_group_IT_number       1

loop_
  _space_group_symop_operation_xyz
  'x, y, z'

loop_
  _atom_site_type_symbol
  _atom_site_label
  _atom_site_symmetry_multiplicity
  _atom_site_fract_x
  _atom_site_fract_y
  _atom_site_fract_z
  _atom_site_occupancy
  F   F1        1.0  0.5820280909538269  0.2088841199874878  0.9730142951011658  1.0000
  F   F2        1.0  0.1600118726491928  0.25495830178260803  0.42017218470573425  1.0000
  H   H1        1.0  0.7800633907318115  0.24886755645275116  0.8019288182258606  1.0000
  H   H2        1.0  0.936061441898346  0.38201525807380676  0.41424116492271423  1.0000
  H   H3        1.0  0.3669767677783966  0.6996760964393616  0.46957314014434814  1.0000
  H   H4        1.0  0.40656203031539917  0.04509948566555977  0.9114027619361877  1.0000
  Ho  Ho1       1.0  0.190369114279747  0.08288893848657608  0.6704180240631104  1.0000
  Ho  Ho2       1.0  0.0726267397403717  0.3710911273956299  0.1171097606420517  1.0000
  Ho  Ho3       1.0  0.530123233795166  0.9480632543563843  0.24791796505451202  1.0000
  Ho  Ho4       1.0  0.0679844319820404  0.9637101888656616  0.8862769603729248  1.0000
  Ho  Ho5       1.0  0.6898690462112427  0.5047377347946167  0.7477900385856628  1.0000
  N   N1        1.0  0.10198286175727844  0.7166996598243713  0.7976527214050293  1.0000
  P   P1        1.0  0.7030473947525024  0.5565553903579712  0.4246574938297272  1.0000
  P   P2        1.0  0.6374946236610413  0.5877386331558228  0.32058730721473694  1.0000
