data_image0
_chemical_formula_structural       Co2LaMnSb7
_chemical_formula_sum              "Co2 La1 Mn1 Sb7"
_cell_length_a       6.064499146793181
_cell_length_b       7.143630589119883
_cell_length_c       7.966089248657227
_cell_angle_alpha    107.98732584040792
_cell_angle_beta     104.61905826225453
_cell_angle_gamma    101.87549693464041

_space_group_name_H-M_alt    "P 1"
_space_group_IT_number       1

loop_
  _space_group_symop_operation_xyz
  'x, y, z'

loop_
  _atom_site_type_symbol
  _atom_site_label
  _atom_site_symmetry_multiplicity
  _atom_site_fract_x
  _atom_site_fract_y
  _atom_site_fract_z
  _atom_site_occupancy
  Co  Co1       1.0  0.8567204475402832  0.4644549489021301  0.5895458459854126  1.0000
  Co  Co2       1.0  0.11480773240327835  0.8853135108947754  0.9086387753486633  1.0000
  La  La1       1.0  0.3749600052833557  0.5162153244018555  0.6884851455688477  1.0000
  Mn  Mn1       1.0  0.6234725117683411  0.9011231064796448  0.5848897099494934  1.0000
  Sb  Sb1       1.0  0.3671300709247589  0.2598281502723694  0.8697853088378906  1.0000
  Sb  Sb2       1.0  0.1254231035709381  0.7573433518409729  0.3564735949039459  1.0000
  Sb  Sb3       1.0  0.13149327039718628  0.009483451955020428  0.08793323487043381  1.0000
  Sb  Sb4       1.0  0.12315463274717331  0.7472547292709351  0.5604115128517151  1.0000
  Sb  Sb5       1.0  0.6331803202629089  0.8057489395141602  0.07964066416025162  1.0000
  Sb  Sb6       1.0  0.13158060610294342  0.3896676301956177  0.07984440773725507  1.0000
  Sb  Sb7       1.0  0.6212024688720703  0.10830507427453995  0.33044958114624023  1.0000
