data_image0
_chemical_formula_structural       CoLaSb8Sc
_chemical_formula_sum              "Co1 La1 Sb8 Sc1"
_cell_length_a       6.056937097853156
_cell_length_b       6.739986854849163
_cell_length_c       7.957998275756836
_cell_angle_alpha    105.39129907370152
_cell_angle_beta     104.03773677062782
_cell_angle_gamma    98.93284231527954

_space_group_name_H-M_alt    "P 1"
_space_group_IT_number       1

loop_
  _space_group_symop_operation_xyz
  'x, y, z'

loop_
  _atom_site_type_symbol
  _atom_site_label
  _atom_site_symmetry_multiplicity
  _atom_site_fract_x
  _atom_site_fract_y
  _atom_site_fract_z
  _atom_site_occupancy
  Co  Co1       1.0  0.3029458224773407  0.7675297856330872  0.6909162402153015  1.0000
  La  La1       1.0  0.32406434416770935  0.29541656374931335  0.17735189199447632  1.0000
  Sb  Sb1       1.0  0.8155022263526917  0.0601198822259903  0.8026557564735413  1.0000
  Sb  Sb2       1.0  0.3186023533344269  0.2748209238052368  0.9197803735733032  1.0000
  Sb  Sb3       1.0  0.32647669315338135  0.05974642932415009  0.39885443449020386  1.0000
  Sb  Sb4       1.0  0.8288081288337708  0.5639957189559937  0.8897980451583862  1.0000
  Sb  Sb5       1.0  0.8164986371994019  0.28860312700271606  0.18305115401744843  1.0000
  Sb  Sb6       1.0  0.5536192059516907  0.7588034272193909  0.1658657044172287  1.0000
  Sb  Sb7       1.0  0.8276153802871704  0.26248130202293396  0.9032740592956543  1.0000
  Sb  Sb8       1.0  0.3225565254688263  0.2606292963027954  0.6621400713920593  1.0000
  Sc  Sc1       1.0  0.8223161697387695  0.7391142845153809  0.3345067501068115  1.0000
