data_image0
_chemical_formula_structural       Ce4CrFe3SbScTb
_chemical_formula_sum              "Ce4 Cr1 Fe3 Sb1 Sc1 Tb1"
_cell_length_a       5.002771423108389
_cell_length_b       7.963210690169599
_cell_length_c       8.040214538574219
_cell_angle_alpha    122.887093972685
_cell_angle_beta     90.30443095426634
_cell_angle_gamma    89.56781636242918

_space_group_name_H-M_alt    "P 1"
_space_group_IT_number       1

loop_
  _space_group_symop_operation_xyz
  'x, y, z'

loop_
  _atom_site_type_symbol
  _atom_site_label
  _atom_site_symmetry_multiplicity
  _atom_site_fract_x
  _atom_site_fract_y
  _atom_site_fract_z
  _atom_site_occupancy
  Ce  Ce1       1.0  0.2313028872013092  0.9420630931854248  0.2308223545551299  1.0000
  Ce  Ce2       1.0  0.23524872958660126  0.9172681570053101  0.43393775820732117  1.0000
  Ce  Ce3       1.0  0.7416394352912903  0.6561159491539001  0.66823410987854  1.0000
  Ce  Ce4       1.0  0.21920299530029297  0.560786783695221  0.8780972957611084  1.0000
  Cr  Cr1       1.0  0.7279317378997803  0.9221119284629822  0.4207248091697693  1.0000
  Fe  Fe1       1.0  0.7281347513198853  0.15576070547103882  0.8952163457870483  1.0000
  Fe  Fe2       1.0  0.24033278226852417  0.5633697509765625  0.5652590394020081  1.0000
  Fe  Fe3       1.0  0.7237929105758667  0.6215854287147522  0.7426673769950867  1.0000
  Sb  Sb1       1.0  0.2321096658706665  0.20497505366802216  0.8826501965522766  1.0000
  Sc  Sc1       1.0  0.22119536995887756  0.1492210477590561  0.01670343615114689  1.0000
  Tb  Tb1       1.0  0.7266274690628052  0.3838080167770386  0.657981812953949  1.0000
