data_image0
_chemical_formula_structural       Ce4CoFe2Sb2ScTe
_chemical_formula_sum              "Ce4 Co1 Fe2 Sb2 Sc1 Te1"
_cell_length_a       5.6446204804861955
_cell_length_b       7.118175589597501
_cell_length_c       7.136999130249023
_cell_angle_alpha    114.12178534579172
_cell_angle_beta     110.0941485900277
_cell_angle_gamma    91.3697649198182

_space_group_name_H-M_alt    "P 1"
_space_group_IT_number       1

loop_
  _space_group_symop_operation_xyz
  'x, y, z'

loop_
  _atom_site_type_symbol
  _atom_site_label
  _atom_site_symmetry_multiplicity
  _atom_site_fract_x
  _atom_site_fract_y
  _atom_site_fract_z
  _atom_site_occupancy
  Ce  Ce1       1.0  0.9542751312255859  0.6332479119300842  0.17950791120529166  1.0000
  Ce  Ce2       1.0  0.7612482905387878  0.27703857421875  0.2835937738418579  1.0000
  Ce  Ce3       1.0  0.8747873306274414  0.005948298145085572  0.03370474651455876  1.0000
  Ce  Ce4       1.0  0.22243572771549225  0.38717380166053766  0.6348302960395813  1.0000
  Co  Co1       1.0  0.7435431480407715  0.10664889961481093  0.549782395362854  1.0000
  Fe  Fe1       1.0  0.07705700397491455  0.6378464102745056  0.710985541343689  1.0000
  Fe  Fe2       1.0  0.5604974627494812  0.6140651702880859  0.5043368935585022  1.0000
  Sb  Sb1       1.0  0.5595164895057678  0.11804382503032683  0.33999234437942505  1.0000
  Sb  Sb2       1.0  0.871986985206604  0.6995690464973449  0.022084124386310577  1.0000
  Sc  Sc1       1.0  0.28327643871307373  0.05020442605018615  0.7846184968948364  1.0000
  Te  Te1       1.0  0.44581708312034607  0.6189008951187134  0.31511878967285156  1.0000
