data_image0
_chemical_formula_structural       CoLa2Sb7Sc
_chemical_formula_sum              "Co1 La2 Sb7 Sc1"
_cell_length_a       6.755116728842896
_cell_length_b       7.7249757065797375
_cell_length_c       7.795213222503662
_cell_angle_alpha    114.36276061217566
_cell_angle_beta     105.79338142023704
_cell_angle_gamma    97.850694396098

_space_group_name_H-M_alt    "P 1"
_space_group_IT_number       1

loop_
  _space_group_symop_operation_xyz
  'x, y, z'

loop_
  _atom_site_type_symbol
  _atom_site_label
  _atom_site_symmetry_multiplicity
  _atom_site_fract_x
  _atom_site_fract_y
  _atom_site_fract_z
  _atom_site_occupancy
  Co  Co1       1.0  0.1593555212020874  0.44292351603507996  0.9763540625572206  1.0000
  La  La1       1.0  0.4652216732501984  0.9152601361274719  0.02118489891290665  1.0000
  La  La2       1.0  0.6845800280570984  0.4211994409561157  0.3756531178951264  1.0000
  Sb  Sb1       1.0  0.16601867973804474  0.11975944042205812  0.3717701733112336  1.0000
  Sb  Sb2       1.0  0.9408506751060487  0.7562747597694397  0.693000614643097  1.0000
  Sb  Sb3       1.0  0.44448789954185486  0.7473066449165344  0.11767347902059562  1.0000
  Sb  Sb4       1.0  0.6705691814422607  0.5869078636169434  0.8466196656227113  1.0000
  Sb  Sb5       1.0  0.167367622256279  0.05861184000968934  0.5329210162162781  1.0000
  Sb  Sb6       1.0  0.6770111918449402  0.07023443281650543  0.633802354335785  1.0000
  Sb  Sb7       1.0  0.9520888924598695  0.7662911415100098  0.5504165887832642  1.0000
  Sc  Sc1       1.0  0.44495081901550293  0.7660268545150757  0.5485528707504272  1.0000
