data_image0
_chemical_formula_structural       CeLaSb8Sc
_chemical_formula_sum              "Ce1 La1 Sb8 Sc1"
_cell_length_a       7.7594652343079655
_cell_length_b       8.406073563817422
_cell_length_c       8.078009605407715
_cell_angle_alpha    110.40865266242281
_cell_angle_beta     105.18951124058273
_cell_angle_gamma    106.64754278501421

_space_group_name_H-M_alt    "P 1"
_space_group_IT_number       1

loop_
  _space_group_symop_operation_xyz
  'x, y, z'

loop_
  _atom_site_type_symbol
  _atom_site_label
  _atom_site_symmetry_multiplicity
  _atom_site_fract_x
  _atom_site_fract_y
  _atom_site_fract_z
  _atom_site_occupancy
  Ce  Ce1       1.0  0.09730822592973709  0.5820149183273315  0.9372881650924683  1.0000
  La  La1       1.0  0.11053800582885748  0.8862676024436952  0.5552753210067749  1.0000
  Sb  Sb1       1.0  0.6104055643081665  0.2594015300273895  0.04626287892460823  1.0000
  Sb  Sb2       1.0  0.6102188229560852  0.8696024417877198  0.21724404394626617  1.0000
  Sb  Sb3       1.0  0.10002244263887405  0.5449805855751038  0.22652374207973483  1.0000
  Sb  Sb4       1.0  0.8435505032539368  0.20039679110050201  0.17192177474498743  1.0000
  Sb  Sb5       1.0  0.8385953903198242  0.5362863540649414  0.6933798789978027  1.0000
  Sb  Sb6       1.0  0.3419586420059204  0.6966662406921387  0.16715630888938904  1.0000
  Sb  Sb7       1.0  0.3396982550621033  0.8936684727668763  0.15555796027183533  1.0000
  Sb  Sb8       1.0  0.6034383773803711  0.19307687878608704  0.8959198594093323  1.0000
  Sc  Sc1       1.0  0.09896133095026016  0.2831460237503052  0.4574447274208069  1.0000
