data_image0
_chemical_formula_structural       BLaPPd2SiTiTl2
_chemical_formula_sum              "B1 La1 P1 Pd2 Si1 Ti1 Tl2"
_cell_length_a       4.7437880307163915
_cell_length_b       4.843718880316145
_cell_length_c       7.486112594604492
_cell_angle_alpha    103.6227854834969
_cell_angle_beta     101.73009027318633
_cell_angle_gamma    88.65210657368061

_space_group_name_H-M_alt    "P 1"
_space_group_IT_number       1

loop_
  _space_group_symop_operation_xyz
  'x, y, z'

loop_
  _atom_site_type_symbol
  _atom_site_label
  _atom_site_symmetry_multiplicity
  _atom_site_fract_x
  _atom_site_fract_y
  _atom_site_fract_z
  _atom_site_occupancy
  B   B1        1.0  0.12873190641403198  0.6520429849624634  0.31460997462272644  1.0000
  La  La1       1.0  0.652454137802124  0.1438145637512207  0.6565870046615601  1.0000
  P   P1        1.0  0.13581110537052155  0.24959693849086761  0.3351344168186188  1.0000
  Pd  Pd1       1.0  0.13996733725070953  0.4858059585094452  0.6665889024734497  1.0000
  Pd  Pd2       1.0  0.13032768666744232  0.6624250411987305  0.035890556871891036  1.0000
  Si  Si1       1.0  0.04184363782405853  0.9601051807403564  0.18613028526306155  1.0000
  Ti  Ti1       1.0  0.564520537853241  0.9953371286392212  0.05104168504476551  1.0000
  Tl  Tl1       1.0  0.6176987886428833  0.49495387077331543  0.9675371646881104  1.0000
  Tl  Tl2       1.0  0.6039894223213196  0.9910072088241577  0.35840079188346863  1.0000
