data_image0
_chemical_formula_structural       La5PdTl3
_chemical_formula_sum              "La5 Pd1 Tl3"
_cell_length_a       5.943499918046287
_cell_length_b       6.929375284376872
_cell_length_c       7.28206205368042
_cell_angle_alpha    117.91294890379629
_cell_angle_beta     110.34021619535761
_cell_angle_gamma    88.91224566605283

_space_group_name_H-M_alt    "P 1"
_space_group_IT_number       1

loop_
  _space_group_symop_operation_xyz
  'x, y, z'

loop_
  _atom_site_type_symbol
  _atom_site_label
  _atom_site_symmetry_multiplicity
  _atom_site_fract_x
  _atom_site_fract_y
  _atom_site_fract_z
  _atom_site_occupancy
  La  La1       1.0  0.9547183513641356  0.40607574582099915  0.7085466980934144  1.0000
  La  La2       1.0  0.47462368011474604  0.7820215821266174  0.6860578656196595  1.0000
  La  La3       1.0  0.4680820703506469  0.8818772435188293  0.6070243120193481  1.0000
  La  La4       1.0  0.477302998304367  0.6088074445724487  0.6848084330558778  1.0000
  La  La5       1.0  0.549075722694397  0.8914352059364319  0.13009169697761536  1.0000
  Pd  Pd1       1.0  0.20109507441520688  0.26478442549705505  0.3737677931785584  1.0000
  Tl  Tl1       1.0  0.45162594318389887  0.9222766160964966  0.02599430084228516  1.0000
  Tl  Tl2       1.0  0.9667249917984008  0.4784002900123596  0.623233437538147  1.0000
  Tl  Tl3       1.0  0.9629873037338256  0.39864835143089294  0.6181737184524536  1.0000
