data_image0
_chemical_formula_structural       La5PdSSiTl
_chemical_formula_sum              "La5 Pd1 S1 Si1 Tl1"
_cell_length_a       5.126933056574957
_cell_length_b       6.680868460652294
_cell_length_c       6.828492164611816
_cell_angle_alpha    118.63358158528301
_cell_angle_beta     100.33340104919344
_cell_angle_gamma    88.27126650236757

_space_group_name_H-M_alt    "P 1"
_space_group_IT_number       1

loop_
  _space_group_symop_operation_xyz
  'x, y, z'

loop_
  _atom_site_type_symbol
  _atom_site_label
  _atom_site_symmetry_multiplicity
  _atom_site_fract_x
  _atom_site_fract_y
  _atom_site_fract_z
  _atom_site_occupancy
  La  La1       1.0  0.8556068539619446  0.3150107264518738  0.6635870337486267  1.0000
  La  La2       1.0  0.6100417971611023  0.8225002884864808  0.0027000904083252604  1.0000
  La  La3       1.0  0.8704887628555298  0.7330323457717897  0.5110409259796143  1.0000
  La  La4       1.0  0.339272141456604  0.5068660974502563  0.02159310877323154  1.0000
  La  La5       1.0  0.8542699217796326  0.5639214515686035  0.012468375265598297  1.0000
  Pd  Pd1       1.0  0.3700864911079407  0.09738099575042726  0.5300253629684448  1.0000
  S   S1        1.0  0.8584402799606323  0.12375885248184205  0.7463669180870056  1.0000
  Si  Si1       1.0  0.8595298528671265  0.1146976724267006  0.7828110456466675  1.0000
  Tl  Tl1       1.0  0.362247496843338  0.12841829657554626  0.2751008868217468  1.0000
