data_image0
_chemical_formula_structural       GeLaPSSi2Ti2Tl
_chemical_formula_sum              "Ge1 La1 P1 S1 Si2 Ti2 Tl1"
_cell_length_a       4.875587125470412
_cell_length_b       5.028107421338955
_cell_length_c       6.6863603591918945
_cell_angle_alpha    112.02309910214002
_cell_angle_beta     112.38902774299915
_cell_angle_gamma    88.85371323079073

_space_group_name_H-M_alt    "P 1"
_space_group_IT_number       1

loop_
  _space_group_symop_operation_xyz
  'x, y, z'

loop_
  _atom_site_type_symbol
  _atom_site_label
  _atom_site_symmetry_multiplicity
  _atom_site_fract_x
  _atom_site_fract_y
  _atom_site_fract_z
  _atom_site_occupancy
  Ge  Ge1       1.0  0.02711135894060135  0.34624671936035156  0.5893008708953857  1.0000
  La  La1       1.0  0.36255377531051636  0.7060887217521667  0.2455863207578659  1.0000
  P   P1        1.0  0.5398688912391663  0.022642821073532104  0.6114264726638794  1.0000
  S   S1        1.0  0.8682850003242493  0.7384756207466125  0.2410009354352951  1.0000
  Si  Si1       1.0  0.5601825714111328  0.5935272574424744  0.6063829064369202  1.0000
  Si  Si2       1.0  0.24274124205112457  0.45965662598609924  0.025410780683159828  1.0000
  Ti  Ti1       1.0  0.6110525727272034  0.46045926213264465  0.9510401487350464  1.0000
  Ti  Ti2       1.0  0.08099975436925888  0.45636776089668274  0.7117352485656738  1.0000
  Tl  Tl1       1.0  0.19423428177833557  0.6793188452720642  0.8597559928894043  1.0000
