data_image0
_chemical_formula_structural       BBaLaPdS2SiTiTl
_chemical_formula_sum              "B1 Ba1 La1 Pd1 S2 Si1 Ti1 Tl1"
_cell_length_a       4.843227465278859
_cell_length_b       5.576868695672514
_cell_length_c       6.994454383850098
_cell_angle_alpha    109.33788320578768
_cell_angle_beta     107.74787302384141
_cell_angle_gamma    88.41282854620727

_space_group_name_H-M_alt    "P 1"
_space_group_IT_number       1

loop_
  _space_group_symop_operation_xyz
  'x, y, z'

loop_
  _atom_site_type_symbol
  _atom_site_label
  _atom_site_symmetry_multiplicity
  _atom_site_fract_x
  _atom_site_fract_y
  _atom_site_fract_z
  _atom_site_occupancy
  B   B1        1.0  0.36942264437675476  0.9915828108787537  0.7287381887435914  1.0000
  Ba  Ba1       1.0  0.48776113986968994  0.3277508318424225  0.7516841888427735  1.0000
  La  La1       1.0  0.479532390832901  0.8382161855697632  0.5057960152626038  1.0000
  Pd  Pd1       1.0  0.2797802686691284  0.056120555847883224  0.23821145296096805  1.0000
  S   S1        1.0  0.6465303301811218  0.9678611159324646  0.27431273460388184  1.0000
  S   S2        1.0  0.9757378697395325  0.8635318875312805  0.5460159778594971  1.0000
  Si  Si1       1.0  0.47119107842445374  0.3627876043319702  0.9909588098526002  1.0000
  Ti  Ti1       1.0  0.9701411128044128  0.12343372404575348  0.48162502050399786  1.0000
  Tl  Tl1       1.0  0.9808739423751831  0.46397653222084045  0.00455218693241477  1.0000
