data_image0
_chemical_formula_structural       Bi2I2LiPPt
_chemical_formula_sum              "Bi2 I2 Li1 P1 Pt1"
_cell_length_a       3.685099227769715
_cell_length_b       3.0867973364592833
_cell_length_c       9.736394882202148
_cell_angle_alpha    95.6455608607217
_cell_angle_beta     97.34204929345906
_cell_angle_gamma    163.76009924107973

_space_group_name_H-M_alt    "P 1"
_space_group_IT_number       1

loop_
  _space_group_symop_operation_xyz
  'x, y, z'

loop_
  _atom_site_type_symbol
  _atom_site_label
  _atom_site_symmetry_multiplicity
  _atom_site_fract_x
  _atom_site_fract_y
  _atom_site_fract_z
  _atom_site_occupancy
  Bi  Bi1       1.0  0.5886057019233712  0.21263238787651162  0.4952027797698975  1.0000
  Bi  Bi2       1.0  0.5897554755210873  0.5607673525810237  0.8343694806098938  1.0000
  I   I1        1.0  0.06289045512676313  0.12494449317455379  0.7272956967353822  1.0000
  I   I2        1.0  0.07653293013572711  0.6590216159820559  0.18862390518188477  1.0000
  Li  Li1       1.0  0.0886796787381174  0.3994405567646029  0.09192078560590745  1.0000
  P   P1        1.0  0.10463717579841626  0.8589425086975099  0.08103592693805695  1.0000
  Pt  Pt1       1.0  0.573297023773194  0.3474772572517402  0.6601954698562623  1.0000
