data_image0
_chemical_formula_structural       GaHWZr7
_chemical_formula_sum              "Ga1 H1 W1 Zr7"
_cell_length_a       3.9090539214815028
_cell_length_b       4.739952768899518
_cell_length_c       5.567458629608154
_cell_angle_alpha    131.58907060266588
_cell_angle_beta     96.48684193925992
_cell_angle_gamma    90.92717168419539

_space_group_name_H-M_alt    "P 1"
_space_group_IT_number       1

loop_
  _space_group_symop_operation_xyz
  'x, y, z'

loop_
  _atom_site_type_symbol
  _atom_site_label
  _atom_site_symmetry_multiplicity
  _atom_site_fract_x
  _atom_site_fract_y
  _atom_site_fract_z
  _atom_site_occupancy
  Ga  Ga1       1.0  0.8399774432182313  0.6812951564788818  0.9806011319160461  1.0000
  H   H1        1.0  0.3582591116428376  0.9463424682617189  0.7095124125480653  1.0000
  W   W1        1.0  0.35119313001632696  0.5892181992530823  0.31408458948135376  1.0000
  Zr  Zr1       1.0  0.4673489332199097  0.4651105105876923  0.8878709673881531  1.0000
  Zr  Zr2       1.0  0.8411671519279481  0.37437090277671814  0.5049609541893005  1.0000
  Zr  Zr3       1.0  0.3491401076316834  0.0181136392056942  0.8076972961425781  1.0000
  Zr  Zr4       1.0  0.8241278529167176  0.5416412353515625  0.9459408521652222  1.0000
  Zr  Zr5       1.0  0.8463841676712037  0.2621156871318817  0.6471337676048279  1.0000
  Zr  Zr6       1.0  0.9178428649902345  0.8379875421524048  0.13486497104167947  1.0000
  Zr  Zr7       1.0  0.8488428592681886  0.588709831237793  0.0787716582417489  1.0000
