data_image0
_chemical_formula_structural       HZnZr8
_chemical_formula_sum              "H1 Zn1 Zr8"
_cell_length_a       5.026547002269016
_cell_length_b       4.8413887273598
_cell_length_c       5.87587308883667
_cell_angle_alpha    94.47621875255734
_cell_angle_beta     89.95606690833418
_cell_angle_gamma    89.77056010231233

_space_group_name_H-M_alt    "P 1"
_space_group_IT_number       1

loop_
  _space_group_symop_operation_xyz
  'x, y, z'

loop_
  _atom_site_type_symbol
  _atom_site_label
  _atom_site_symmetry_multiplicity
  _atom_site_fract_x
  _atom_site_fract_y
  _atom_site_fract_z
  _atom_site_occupancy
  H   H1        1.0  0.41828808188438416  0.5178817510604858  0.8367582559585571  1.0000
  Zn  Zn1       1.0  0.39908042550086975  0.9622445702552795  0.3509652614593506  1.0000
  Zr  Zr1       1.0  0.411098837852478  0.3946988880634308  0.7201873660087585  1.0000
  Zr  Zr2       1.0  0.9038723111152649  0.018772214651107788  0.8088578581809998  1.0000
  Zr  Zr3       1.0  0.9152304530143738  0.5947678089141846  0.8300729990005493  1.0000
  Zr  Zr4       1.0  0.3902703821659088  0.16574734449386597  0.1802000254392624  1.0000
  Zr  Zr5       1.0  0.38335758447647095  0.07691293209791183  0.6163693070411682  1.0000
  Zr  Zr6       1.0  0.9091049432754517  0.348164439201355  0.3463746905326843  1.0000
  Zr  Zr7       1.0  0.40602177381515503  0.03778943419456482  0.464768648147583  1.0000
  Zr  Zr8       1.0  0.9131598472595215  0.5083059072494507  0.6101663112640381  1.0000
