data_image0
_chemical_formula_structural       HNi3Zr6
_chemical_formula_sum              "H1 Ni3 Zr6"
_cell_length_a       5.078839423545999
_cell_length_b       3.4958546948475617
_cell_length_c       4.897275924682617
_cell_angle_alpha    158.92477690202162
_cell_angle_beta     88.93578011538997
_cell_angle_gamma    79.823080664344

_space_group_name_H-M_alt    "P 1"
_space_group_IT_number       1

loop_
  _space_group_symop_operation_xyz
  'x, y, z'

loop_
  _atom_site_type_symbol
  _atom_site_label
  _atom_site_symmetry_multiplicity
  _atom_site_fract_x
  _atom_site_fract_y
  _atom_site_fract_z
  _atom_site_occupancy
  H   H1        1.0  0.7295695543289185  0.29871049523353554  0.9238078594207763  1.0000
  Ni  Ni1       1.0  0.7131648063659668  0.06184521690011022  0.6681774258613586  1.0000
  Ni  Ni2       1.0  0.2297656089067459  0.83687824010849  0.6066689491271973  1.0000
  Ni  Ni3       1.0  0.2384418547153473  0.7937198281288147  0.17694388329982758  1.0000
  Zr  Zr1       1.0  0.7535489201545715  0.13066108524799347  0.06744349002838135  1.0000
  Zr  Zr2       1.0  0.22205699980258947  0.5970975160598752  0.9677439928054808  1.0000
  Zr  Zr3       1.0  0.7957774996757507  0.9995794296264646  0.8574196100234984  1.0000
  Zr  Zr4       1.0  0.2891767323017121  0.28973925113677956  0.7966124415397643  1.0000
  Zr  Zr5       1.0  0.5185396075248718  0.7361699938774108  0.061915002763271366  1.0000
  Zr  Zr6       1.0  0.7295916676521301  0.6837002635002136  0.9455950260162354  1.0000
