data_image0
_chemical_formula_structural       HNiZr8
_chemical_formula_sum              "H1 Ni1 Zr8"
_cell_length_a       4.756129346293827
_cell_length_b       5.117230524079491
_cell_length_c       5.9176836013793945
_cell_angle_alpha    116.33107774026402
_cell_angle_beta     93.16906593521429
_cell_angle_gamma    82.83819725010571

_space_group_name_H-M_alt    "P 1"
_space_group_IT_number       1

loop_
  _space_group_symop_operation_xyz
  'x, y, z'

loop_
  _atom_site_type_symbol
  _atom_site_label
  _atom_site_symmetry_multiplicity
  _atom_site_fract_x
  _atom_site_fract_y
  _atom_site_fract_z
  _atom_site_occupancy
  H   H1        1.0  0.4575745165348053  0.2523232400417328  0.96554833650589  1.0000
  Ni  Ni1       1.0  0.9588884711265564  0.8547129034996033  0.8431417346000672  1.0000
  Zr  Zr1       1.0  0.9590975642204285  0.9464268088340759  0.2271954119205475  1.0000
  Zr  Zr2       1.0  0.4588885009288788  0.24047015607357025  0.8166420459747316  1.0000
  Zr  Zr3       1.0  0.9576727747917175  0.3859821856021881  0.3076919913291931  1.0000
  Zr  Zr4       1.0  0.9499703049659729  0.6385084986686707  0.6653804183006287  1.0000
  Zr  Zr5       1.0  0.46024271845817566  0.9414007067680359  0.27126550674438477  1.0000
  Zr  Zr6       1.0  0.9577621817588806  0.7088338136672974  0.27807953953742987  1.0000
  Zr  Zr7       1.0  0.4579678177833557  0.7496764659881592  0.9728723168373109  1.0000
  Zr  Zr8       1.0  0.4517754316329956  0.08834897726774216  0.47445991635322576  1.0000
