data_image0
_chemical_formula_structural       HNi2PZr6
_chemical_formula_sum              "H1 Ni2 P1 Zr6"
_cell_length_a       4.96724757755197
_cell_length_b       6.5057840306272405
_cell_length_c       6.857985973358154
_cell_angle_alpha    124.81870753210967
_cell_angle_beta     90.2763768970951
_cell_angle_gamma    90.4628590909019

_space_group_name_H-M_alt    "P 1"
_space_group_IT_number       1

loop_
  _space_group_symop_operation_xyz
  'x, y, z'

loop_
  _atom_site_type_symbol
  _atom_site_label
  _atom_site_symmetry_multiplicity
  _atom_site_fract_x
  _atom_site_fract_y
  _atom_site_fract_z
  _atom_site_occupancy
  H   H1        1.0  0.6306637525558472  0.7639557123184204  0.33342200517654424  1.0000
  Ni  Ni1       1.0  0.12630686163902283  0.4775491654872895  0.785794734954834  1.0000
  Ni  Ni2       1.0  0.08420329540967941  0.3645118176937103  0.1755231469869614  1.0000
  P   P1        1.0  0.11986692249774933  0.026004625484347343  0.10631760954856873  1.0000
  Zr  Zr1       1.0  0.1263979971408844  0.0821133404970169  0.729755163192749  1.0000
  Zr  Zr2       1.0  0.12876775860786438  0.14268529415130615  0.37566128373146057  1.0000
  Zr  Zr3       1.0  0.6094093322753906  0.3562965393066406  0.4441523849964142  1.0000
  Zr  Zr4       1.0  0.11991189420223236  0.1555798500776291  0.7464048266410828  1.0000
  Zr  Zr5       1.0  0.6195042729377747  0.2566274404525757  0.5374967455863954  1.0000
  Zr  Zr6       1.0  0.6250030398368835  0.9174973368644715  0.7396227717399597  1.0000
