data_image0
_chemical_formula_structural       HNi2Zr7
_chemical_formula_sum              "H1 Ni2 Zr7"
_cell_length_a       4.839569929794239
_cell_length_b       6.703860809509349
_cell_length_c       6.9947028160095215
_cell_angle_alpha    125.40406358242429
_cell_angle_beta     89.31385610505954
_cell_angle_gamma    88.62771382157693

_space_group_name_H-M_alt    "P 1"
_space_group_IT_number       1

loop_
  _space_group_symop_operation_xyz
  'x, y, z'

loop_
  _atom_site_type_symbol
  _atom_site_label
  _atom_site_symmetry_multiplicity
  _atom_site_fract_x
  _atom_site_fract_y
  _atom_site_fract_z
  _atom_site_occupancy
  H   H1        1.0  0.9461128115653992  0.5979835987091064  0.8379403948783873  1.0000
  Ni  Ni1       1.0  0.9428805708885193  0.24545708298683167  0.3763663172721862  1.0000
  Ni  Ni2       1.0  0.9437205195426941  0.8492951393127441  0.5613450407981873  1.0000
  Zr  Zr1       1.0  0.44544297456741333  0.2198805958032608  0.11803612858057021  1.0000
  Zr  Zr2       1.0  0.4451926052570343  0.6618015170097351  0.11950749903917311  1.0000
  Zr  Zr3       1.0  0.4442896246910095  0.671149730682373  0.3560440838336944  1.0000
  Zr  Zr4       1.0  0.44631797075271606  0.023760084062814713  0.385899931192398  1.0000
  Zr  Zr5       1.0  0.9463134407997131  0.6425633430480957  0.8765939474105834  1.0000
  Zr  Zr6       1.0  0.44774237275123596  0.857336699962616  0.519921064376831  1.0000
  Zr  Zr7       1.0  0.944978654384613  0.3937875032424927  0.856351613998413  1.0000
