data_image0
_chemical_formula_structural       Bi5ClZn
_chemical_formula_sum              "Bi5 Cl1 Zn1"
_cell_length_a       6.1387612820002895
_cell_length_b       6.518035322060217
_cell_length_c       6.417799472808838
_cell_angle_alpha    61.916851851355716
_cell_angle_beta     60.14665100277399
_cell_angle_gamma    61.06096444720356

_space_group_name_H-M_alt    "P 1"
_space_group_IT_number       1

loop_
  _space_group_symop_operation_xyz
  'x, y, z'

loop_
  _atom_site_type_symbol
  _atom_site_label
  _atom_site_symmetry_multiplicity
  _atom_site_fract_x
  _atom_site_fract_y
  _atom_site_fract_z
  _atom_site_occupancy
  Bi  Bi1       1.0  0.8273096084594727  0.6444580554962158  0.5493703484535217  1.0000
  Bi  Bi2       1.0  0.8657679557800293  0.37464046478271484  0.2625143229961396  1.0000
  Bi  Bi3       1.0  0.4598333537578583  0.024409407749772072  0.5510954260826111  1.0000
  Bi  Bi4       1.0  0.05006183311343193  0.979839563369751  0.6454553604125977  1.0000
  Bi  Bi5       1.0  0.6250201463699341  0.6758971214294434  0.8834432363510132  1.0000
  Cl  Cl1       1.0  0.20367293059825897  0.3914470374584198  0.13117632269859314  1.0000
  Zn  Zn1       1.0  0.17306378483772278  0.7185112833976746  0.12082353234291077  1.0000
