data_image0
_chemical_formula_structural       Bi4FPt2
_chemical_formula_sum              "Bi4 F1 Pt2"
_cell_length_a       5.073244094990286
_cell_length_b       6.148389754798281
_cell_length_c       6.58085823059082
_cell_angle_alpha    119.62553171530111
_cell_angle_beta     87.75419633918442
_cell_angle_gamma    88.37927311200832

_space_group_name_H-M_alt    "P 1"
_space_group_IT_number       1

loop_
  _space_group_symop_operation_xyz
  'x, y, z'

loop_
  _atom_site_type_symbol
  _atom_site_label
  _atom_site_symmetry_multiplicity
  _atom_site_fract_x
  _atom_site_fract_y
  _atom_site_fract_z
  _atom_site_occupancy
  Bi  Bi1       1.0  0.9805265069007874  0.4605361521244049  0.7445212006568909  1.0000
  Bi  Bi2       1.0  0.4813530445098877  0.9373189806938171  0.9949136972427368  1.0000
  Bi  Bi3       1.0  0.9777785539627075  0.5586584210395813  0.7627385258674622  1.0000
  Bi  Bi4       1.0  0.4863128960132599  0.9300358295440674  0.6460431814193726  1.0000
  F   F1        1.0  0.47537270188331604  0.5118939280509949  0.4618159234523773  1.0000
  Pt  Pt1       1.0  0.4777727723121643  0.28997278213500977  0.7079979181289673  1.0000
  Pt  Pt2       1.0  0.9814903736114502  0.2822996973991394  0.3157333433628082  1.0000
