data_image0
_chemical_formula_structural       Bi3OPt3
_chemical_formula_sum              "Bi3 O1 Pt3"
_cell_length_a       4.961590929763969
_cell_length_b       4.894852787436744
_cell_length_c       7.930785655975342
_cell_angle_alpha    91.22749426325905
_cell_angle_beta     90.11329327852879
_cell_angle_gamma    107.73668376760288

_space_group_name_H-M_alt    "P 1"
_space_group_IT_number       1

loop_
  _space_group_symop_operation_xyz
  'x, y, z'

loop_
  _atom_site_type_symbol
  _atom_site_label
  _atom_site_symmetry_multiplicity
  _atom_site_fract_x
  _atom_site_fract_y
  _atom_site_fract_z
  _atom_site_occupancy
  Bi  Bi1       1.0  0.12772119045257568  0.5362765192985535  0.4834160804748535  1.0000
  Bi  Bi2       1.0  0.7834362387657166  0.6260498762130737  0.18939247727394104  1.0000
  Bi  Bi3       1.0  0.4642615914344788  0.15984399616718292  0.9003956317901611  1.0000
  O   O1        1.0  0.772964358329773  0.623298168182373  0.6623664498329163  1.0000
  Pt  Pt1       1.0  0.13900527358055115  0.12758179008960724  0.48296990990638733  1.0000
  Pt  Pt2       1.0  0.4689278900623322  0.9884719848632812  0.40149998664855957  1.0000
  Pt  Pt3       1.0  0.42128390073776245  0.625758945941925  0.7478877902030945  1.0000
