data_image0
_chemical_formula_structural       Co3O3
_chemical_formula_sum              "Co3 O3"
_cell_length_a       3.040560308341383
_cell_length_b       3.021104934072687
_cell_length_c       7.283210754394531
_cell_angle_alpha    89.02239520722866
_cell_angle_beta     89.24736857815515
_cell_angle_gamma    87.53202472463958

_space_group_name_H-M_alt    "P 1"
_space_group_IT_number       1

loop_
  _space_group_symop_operation_xyz
  'x, y, z'

loop_
  _atom_site_type_symbol
  _atom_site_label
  _atom_site_symmetry_multiplicity
  _atom_site_fract_x
  _atom_site_fract_y
  _atom_site_fract_z
  _atom_site_occupancy
  Co  Co1       1.0  0.8209511041641235  0.5276432037353516  0.7829819321632385  1.0000
  Co  Co2       1.0  0.32287341356277466  0.027295541018247604  0.05205731466412544  1.0000
  Co  Co3       1.0  0.3206062316894531  0.025878656655550003  0.516711950302124  1.0000
  O   O1        1.0  0.820796549320221  0.5275507569313049  0.04503093659877777  1.0000
  O   O2        1.0  0.3201638460159302  0.011659860610961914  0.7891687750816345  1.0000
  O   O3        1.0  0.8252694010734558  0.5271300077438354  0.5056649446487427  1.0000
