data_image0
_chemical_formula_structural       Co2LuY4
_chemical_formula_sum              "Co2 Lu1 Y4"
_cell_length_a       4.080910590433095
_cell_length_b       4.821990622482516
_cell_length_c       7.144951343536377
_cell_angle_alpha    87.7377915967463
_cell_angle_beta     92.79881893435311
_cell_angle_gamma    110.70968608827398

_space_group_name_H-M_alt    "P 1"
_space_group_IT_number       1

loop_
  _space_group_symop_operation_xyz
  'x, y, z'

loop_
  _atom_site_type_symbol
  _atom_site_label
  _atom_site_symmetry_multiplicity
  _atom_site_fract_x
  _atom_site_fract_y
  _atom_site_fract_z
  _atom_site_occupancy
  Co  Co1       1.0  0.4828842282295227  0.352836936712265  0.6325804591178894  1.0000
  Co  Co2       1.0  0.9933965802192688  0.3553612232208252  0.6325914859771729  1.0000
  Lu  Lu1       1.0  0.6996152400970459  0.721555769443512  0.8624857664108276  1.0000
  Y   Y1        1.0  0.6690170764923096  0.18708954751491547  0.13780565559864044  1.0000
  Y   Y2        1.0  0.3144863247871399  0.7349702715873718  0.4810310900211334  1.0000
  Y   Y3        1.0  0.6982476115226746  0.08567221462726593  0.47013840079307556  1.0000
  Y   Y4        1.0  0.14655648171901703  0.9493178725242615  0.4045352339744568  1.0000
