data_image0
_chemical_formula_structural       Co3CsY3
_chemical_formula_sum              "Co3 Cs1 Y3"
_cell_length_a       4.140977973192513
_cell_length_b       5.845190027599531
_cell_length_c       7.128589630126953
_cell_angle_alpha    111.63678268002039
_cell_angle_beta     88.79101201964717
_cell_angle_gamma    88.0606755521696

_space_group_name_H-M_alt    "P 1"
_space_group_IT_number       1

loop_
  _space_group_symop_operation_xyz
  'x, y, z'

loop_
  _atom_site_type_symbol
  _atom_site_label
  _atom_site_symmetry_multiplicity
  _atom_site_fract_x
  _atom_site_fract_y
  _atom_site_fract_z
  _atom_site_occupancy
  Co  Co1       1.0  0.6959548592567444  0.6339811086654663  0.501742959022522  1.0000
  Co  Co2       1.0  0.20687992870807648  0.42886495590209966  0.7102247476577759  1.0000
  Co  Co3       1.0  0.6918272972106934  0.8961116075515748  0.09249813109636307  1.0000
  Cs  Cs1       1.0  0.2009163796901703  0.4551567435264588  0.21749231219291687  1.0000
  Y   Y1        1.0  0.6916677355766296  0.9273465275764466  0.5054176449775696  1.0000
  Y   Y2        1.0  0.6903062462806702  0.936626434326172  0.5381931066513062  1.0000
  Y   Y3        1.0  0.21558798849582672  0.9572428464889527  0.01290174014866352  1.0000
