data_image0
_chemical_formula_structural       Co3Y4
_chemical_formula_sum              "Co3 Y4"
_cell_length_a       4.311129100835162
_cell_length_b       4.740188796639467
_cell_length_c       8.482996940612793
_cell_angle_alpha    88.83957754625442
_cell_angle_beta     89.69748937022621
_cell_angle_gamma    112.45679882740764

_space_group_name_H-M_alt    "P 1"
_space_group_IT_number       1

loop_
  _space_group_symop_operation_xyz
  'x, y, z'

loop_
  _atom_site_type_symbol
  _atom_site_label
  _atom_site_symmetry_multiplicity
  _atom_site_fract_x
  _atom_site_fract_y
  _atom_site_fract_z
  _atom_site_occupancy
  Co  Co1       1.0  0.29406869411468506  0.3107357323169708  0.7876402139663696  1.0000
  Co  Co2       1.0  0.5711528658866882  0.1213022843003273  0.473082959651947  1.0000
  Co  Co3       1.0  0.2843586206436157  0.8191961050033569  0.5463281869888306  1.0000
  Y   Y1        1.0  0.9009556770324707  0.6073641777038574  0.8098735809326172  1.0000
  Y   Y2        1.0  0.8114009499549866  0.42400291562080383  0.2930962145328522  1.0000
  Y   Y3        1.0  0.15709954500198364  0.09873342514038086  0.0613701231777668  1.0000
  Y   Y4        1.0  0.8262941837310791  0.688208818435669  0.2959805130958557  1.0000
