data_image0
_chemical_formula_structural       Co2Y5
_chemical_formula_sum              "Co2 Y5"
_cell_length_a       4.272088915819538
_cell_length_b       4.734576635503778
_cell_length_c       6.774046897888184
_cell_angle_alpha    108.16986903200727
_cell_angle_beta     109.53011988208372
_cell_angle_gamma    89.88393713117213

_space_group_name_H-M_alt    "P 1"
_space_group_IT_number       1

loop_
  _space_group_symop_operation_xyz
  'x, y, z'

loop_
  _atom_site_type_symbol
  _atom_site_label
  _atom_site_symmetry_multiplicity
  _atom_site_fract_x
  _atom_site_fract_y
  _atom_site_fract_z
  _atom_site_occupancy
  Co  Co1       1.0  0.4916423261165619  0.5307798385620117  0.21562564373016357  1.0000
  Co  Co2       1.0  0.0731799453496933  0.022511987015604973  0.4838878810405731  1.0000
  Y   Y1        1.0  0.8952937126159668  0.5114579796791077  0.36425891518592834  1.0000
  Y   Y2        1.0  0.2579081356525421  0.6775522828102112  0.7650359272956848  1.0000
  Y   Y3        1.0  0.8397907614707947  0.5058131217956543  0.2525469958782196  1.0000
  Y   Y4        1.0  0.7341568470001221  0.8357625603675842  0.5559350252151489  1.0000
  Y   Y5        1.0  0.37207120656967163  0.03972085565328598  0.1642918586730957  1.0000
