data_image0
_chemical_formula_structural       Co2GeIPPtZr
_chemical_formula_sum              "Co2 Ge1 I1 P1 Pt1 Zr1"
_cell_length_a       5.1047535176251175
_cell_length_b       5.3163134102137635
_cell_length_c       6.373208045959473
_cell_angle_alpha    90.18576132853937
_cell_angle_beta     89.01185908080838
_cell_angle_gamma    102.04373593734657

_space_group_name_H-M_alt    "P 1"
_space_group_IT_number       1

loop_
  _space_group_symop_operation_xyz
  'x, y, z'

loop_
  _atom_site_type_symbol
  _atom_site_label
  _atom_site_symmetry_multiplicity
  _atom_site_fract_x
  _atom_site_fract_y
  _atom_site_fract_z
  _atom_site_occupancy
  Co  Co1       1.0  0.7952011823654175  0.380068302154541  0.8984801769256592  1.0000
  Co  Co2       1.0  0.2645742893218994  0.37688544392585754  0.4662875235080719  1.0000
  Ge  Ge1       1.0  0.45627990365028376  0.5587615966796875  0.630571186542511  1.0000
  I   I1        1.0  0.986062467098236  0.4695338010787964  0.31528076529502874  1.0000
  P   P1        1.0  0.7157007455825806  0.8447839021682739  0.4108087122440338  1.0000
  Pt  Pt1       1.0  0.4796778261661529  0.17155741155147552  0.6510276198387146  1.0000
  Zr  Zr1       1.0  0.46303468942642206  0.3656122088432312  0.5841673612594604  1.0000
