data_image0
_chemical_formula_structural       AsCo3GeIO3V
_chemical_formula_sum              "As1 Co3 Ge1 I1 O3 V1"
_cell_length_a       4.882625264838628
_cell_length_b       5.471421095040003
_cell_length_c       8.764745712280273
_cell_angle_alpha    90.441671057347
_cell_angle_beta     90.58424118496585
_cell_angle_gamma    89.52085200005602

_space_group_name_H-M_alt    "P 1"
_space_group_IT_number       1

loop_
  _space_group_symop_operation_xyz
  'x, y, z'

loop_
  _atom_site_type_symbol
  _atom_site_label
  _atom_site_symmetry_multiplicity
  _atom_site_fract_x
  _atom_site_fract_y
  _atom_site_fract_z
  _atom_site_occupancy
  As  As1       1.0  0.8290916681289673  0.40768980979919434  0.6789829730987549  1.0000
  Co  Co1       1.0  0.31180301308631897  0.23752012848854065  0.7403324842453003  1.0000
  Co  Co2       1.0  0.8196199536323547  0.9565199613571167  0.3803389072418213  1.0000
  Co  Co3       1.0  0.8206652402877808  0.5235503315925598  0.8056830763816833  1.0000
  Ge  Ge1       1.0  0.33199071884155273  0.09047547727823257  0.5722435712814331  1.0000
  I   I1        1.0  0.32080078125  0.47260183095932007  0.4765930473804474  1.0000
  O   O1        1.0  0.8192551732063293  0.8103967308998108  0.8942888379096985  1.0000
  O   O2        1.0  0.8281076550483704  0.23532649874687195  0.8388247489929199  1.0000
  O   O3        1.0  0.3289901316165924  0.4105975329875946  0.04864365607500076  1.0000
  V   V1        1.0  0.8271396160125732  0.1519264131784439  0.6043708324432373  1.0000
