data_image0
_chemical_formula_structural       AsBCo3FO4
_chemical_formula_sum              "As1 B1 Co3 F1 O4"
_cell_length_a       4.36405446051853
_cell_length_b       3.9019862380573263
_cell_length_c       3.793196201324463
_cell_angle_alpha    43.26557703497124
_cell_angle_beta     14.525032986370725
_cell_angle_gamma    56.88495325124107

_space_group_name_H-M_alt    "P 1"
_space_group_IT_number       1

loop_
  _space_group_symop_operation_xyz
  'x, y, z'

loop_
  _atom_site_type_symbol
  _atom_site_label
  _atom_site_symmetry_multiplicity
  _atom_site_fract_x
  _atom_site_fract_y
  _atom_site_fract_z
  _atom_site_occupancy
  As  As1       1.0  0.8208448886871338  0.5985732078552246  0.5183549523353576  1.0000
  B   B1        1.0  0.5423521995544434  0.8988763093948364  0.3442800343036652  1.0000
  Co  Co1       1.0  0.4581592381000521  0.7089857459068298  0.38747474551200844  1.0000
  Co  Co2       1.0  0.9777212738990784  0.3981417119503021  0.43719848990440363  1.0000
  Co  Co3       1.0  0.5211106538772583  0.8291447162628174  0.9282983541488649  1.0000
  F   F1        1.0  0.04355371743440659  0.6850887537002563  0.8205407857894894  1.0000
  O   O1        1.0  0.03830043599009514  0.13921555876731873  0.27032896876335144  1.0000
  O   O2        1.0  0.5198466777801511  0.2626508474349975  0.697674870491028  1.0000
  O   O3        1.0  0.017895394936203957  0.7530995607376099  0.18677714467048642  1.0000
  O   O4        1.0  0.5466916561126711  0.6217682957649231  0.42483523488044717  1.0000
