data_image0
_chemical_formula_structural       As2CaCoGaO2PbVZn
_chemical_formula_sum              "As2 Ca1 Co1 Ga1 O2 Pb1 V1 Zn1"
_cell_length_a       5.275530489636042
_cell_length_b       5.780207421239216
_cell_length_c       7.862400054931641
_cell_angle_alpha    74.03585210476858
_cell_angle_beta     68.02727271658772
_cell_angle_gamma    62.7205781224332

_space_group_name_H-M_alt    "P 1"
_space_group_IT_number       1

loop_
  _space_group_symop_operation_xyz
  'x, y, z'

loop_
  _atom_site_type_symbol
  _atom_site_label
  _atom_site_symmetry_multiplicity
  _atom_site_fract_x
  _atom_site_fract_y
  _atom_site_fract_z
  _atom_site_occupancy
  As  As1       1.0  0.024391699582338333  0.18779036402702332  0.050540491938590996  1.0000
  As  As2       1.0  0.006565212272107601  0.7639201879501343  0.572361648082733  1.0000
  Ca  Ca1       1.0  0.5020481944084167  0.05438879877328873  0.390943557024002  1.0000
  Co  Co1       1.0  0.9740386605262756  0.3353562355041504  0.4409321248531341  1.0000
  Ga  Ga1       1.0  0.9550520777702332  0.8024688363075256  0.9127036929130553  1.0000
  O   O1        1.0  0.5038178563117981  0.6099526286125183  0.41338357329368586  1.0000
  O   O2        1.0  0.23511207103729248  0.15946780145168304  0.8451079726219176  1.0000
  Pb  Pb1       1.0  0.035361211746931076  0.05045304074883461  0.5315859317779541  1.0000
  V   V1        1.0  0.4550236165523529  0.3176799416542053  0.07369658350944518  1.0000
  Zn  Zn1       1.0  0.5262559652328491  0.014070640318095684  0.7456532716751098  1.0000
