data_image0
_chemical_formula_structural       AsCo2O7
_chemical_formula_sum              "As1 Co2 O7"
_cell_length_a       4.867766850198508
_cell_length_b       4.954112783169886
_cell_length_c       5.632989883422852
_cell_angle_alpha    90.19191091462892
_cell_angle_beta     90.68096311862521
_cell_angle_gamma    88.99499165879449

_space_group_name_H-M_alt    "P 1"
_space_group_IT_number       1

loop_
  _space_group_symop_operation_xyz
  'x, y, z'

loop_
  _atom_site_type_symbol
  _atom_site_label
  _atom_site_symmetry_multiplicity
  _atom_site_fract_x
  _atom_site_fract_y
  _atom_site_fract_z
  _atom_site_occupancy
  As  As1       1.0  0.2371310442686081  0.5453657507896423  0.11924664676189424  1.0000
  Co  Co1       1.0  0.8018791079521179  0.9788960814476013  0.13806761801242828  1.0000
  Co  Co2       1.0  0.577392041683197  0.558383047580719  0.5683936476707458  1.0000
  O   O1        1.0  0.08435526490211487  0.040838032960891724  0.9112497568130494  1.0000
  O   O2        1.0  0.07271746546030045  0.9048972725868225  0.8049910664558412  1.0000
  O   O3        1.0  0.7314772009849548  0.11609342694282532  0.8612645864486695  1.0000
  O   O4        1.0  0.5902712345123291  0.137837216258049  0.16624629497528076  1.0000
  O   O5        1.0  0.07582025229930878  0.4175538122653961  0.9334759712219239  1.0000
  O   O6        1.0  0.06293322145938873  0.17413446307182312  0.30158865451812744  1.0000
  O   O7        1.0  0.2346041351556778  0.21653254330158234  0.5896952152252197  1.0000
