data_image0
_chemical_formula_structural       Cs6GeILuSe3VZn
_chemical_formula_sum              "Cs6 Ge1 I1 Lu1 Se3 V1 Zn1"
_cell_length_a       6.59543530728804
_cell_length_b       7.052315047364862
_cell_length_c       9.94504451751709
_cell_angle_alpha    95.76136437349851
_cell_angle_beta     95.38179388638407
_cell_angle_gamma    90.16758867429138

_space_group_name_H-M_alt    "P 1"
_space_group_IT_number       1

loop_
  _space_group_symop_operation_xyz
  'x, y, z'

loop_
  _atom_site_type_symbol
  _atom_site_label
  _atom_site_symmetry_multiplicity
  _atom_site_fract_x
  _atom_site_fract_y
  _atom_site_fract_z
  _atom_site_occupancy
  Cs  Cs1       1.0  0.9561299681663515  0.4322353303432465  0.141270324587822  1.0000
  Cs  Cs2       1.0  0.7050031423568726  0.8229574561119081  0.6190330386161804  1.0000
  Cs  Cs3       1.0  0.4387184083461762  0.9893620014190675  0.14555905759334567  1.0000
  Cs  Cs4       1.0  0.6909033060073853  0.022158645093441013  0.2899080812931061  1.0000
  Cs  Cs5       1.0  0.4382250010967255  0.23406511545181277  0.22754982113838196  1.0000
  Cs  Cs6       1.0  0.43973574042320257  0.4928507208824158  0.08986876904964448  1.0000
  Ge  Ge1       1.0  0.9380319118499757  0.08474224805831909  0.5162011981010437  1.0000
  I   I1        1.0  0.9004675149917605  0.4286243617534638  0.8101884722709656  1.0000
  Lu  Lu1       1.0  0.7023065090179443  0.3418923616409302  0.8573449850082397  1.0000
  Se  Se1       1.0  0.9200260639190675  0.8627026677131654  0.24151870608329773  1.0000
  Se  Se2       1.0  0.8910104036331178  0.7151750326156617  0.37594467401504517  1.0000
  Se  Se3       1.0  0.170686274766922  0.11073262989521028  0.01000247895717621  1.0000
  V   V1        1.0  0.9556187987327577  0.6087571978569031  0.09069459885358812  1.0000
  Zn  Zn1       1.0  0.43928897380828863  0.4671138525009156  0.12401864677667618  1.0000
