data_image0
_chemical_formula_structural       Cs4GeI3NaSe2V2Zn
_chemical_formula_sum              "Cs4 Ge1 I3 Na1 Se2 V2 Zn1"
_cell_length_a       7.196002967928083
_cell_length_b       7.544557772339634
_cell_length_c       9.732385635375977
_cell_angle_alpha    94.5978877981724
_cell_angle_beta     91.1828885701828
_cell_angle_gamma    88.96599313643816

_space_group_name_H-M_alt    "P 1"
_space_group_IT_number       1

loop_
  _space_group_symop_operation_xyz
  'x, y, z'

loop_
  _atom_site_type_symbol
  _atom_site_label
  _atom_site_symmetry_multiplicity
  _atom_site_fract_x
  _atom_site_fract_y
  _atom_site_fract_z
  _atom_site_occupancy
  Cs  Cs1       1.0  0.7722716927528381  0.06703867763280869  0.09448586404323578  1.0000
  Cs  Cs2       1.0  0.5233442783355713  0.8429280519485474  0.03817102313041687  1.0000
  Cs  Cs3       1.0  0.504117488861084  0.048698607832193375  0.8939997553825378  1.0000
  Cs  Cs4       1.0  0.26493656635284424  0.010967572219669819  0.2134176790714264  1.0000
  Ge  Ge1       1.0  0.2741447687149048  0.9116348624229431  0.2559140920639038  1.0000
  I   I1        1.0  0.4839094877243042  0.5735476016998291  0.4873271882534027  1.0000
  I   I2        1.0  0.9939269423484802  0.9187577962875366  0.9049126505851746  1.0000
  I   I3        1.0  0.015140913426876068  0.25273066759109497  0.7597346901893616  1.0000
  Na  Na1       1.0  0.7758517861366272  0.08263301849365234  0.6649977564811707  1.0000
  Se  Se1       1.0  0.01216178946197033  0.2161794751882553  0.9099555611610413  1.0000
  Se  Se2       1.0  0.9969799518585205  0.29326412081718445  0.5344818234443665  1.0000
  V   V1        1.0  0.5067533850669861  0.8592343926429749  0.8554394245147705  1.0000
  V   V2        1.0  0.8171437978744507  0.724837601184845  0.17253032326698303  1.0000
  Zn  Zn1       1.0  0.5190006494522095  0.41211220622062683  0.27107474207878113  1.0000
