data_image0
_chemical_formula_structural       As2Cs3I2OSe3TiVZn
_chemical_formula_sum              "As2 Cs3 I2 O1 Se3 Ti1 V1 Zn1"
_cell_length_a       6.6515410126817915
_cell_length_b       7.203625855587535
_cell_length_c       9.225273132324219
_cell_angle_alpha    90.30914779093094
_cell_angle_beta     90.17156673915419
_cell_angle_gamma    90.0431216189494

_space_group_name_H-M_alt    "P 1"
_space_group_IT_number       1

loop_
  _space_group_symop_operation_xyz
  'x, y, z'

loop_
  _atom_site_type_symbol
  _atom_site_label
  _atom_site_symmetry_multiplicity
  _atom_site_fract_x
  _atom_site_fract_y
  _atom_site_fract_z
  _atom_site_occupancy
  As  As1       1.0  0.8886444568634033  0.15215592086315155  0.4260648190975189  1.0000
  As  As2       1.0  0.9170337319374084  0.036462727934122086  0.6146812438964844  1.0000
  Cs  Cs1       1.0  0.9149708151817322  0.8029724955558777  0.22636273503303528  1.0000
  Cs  Cs2       1.0  0.909146249294281  0.6145836710929871  0.2372669279575348  1.0000
  Cs  Cs3       1.0  0.42170003056526184  0.8914377093315125  0.5926337242126465  1.0000
  I   I1        1.0  0.3916768431663513  0.33734506368637085  0.6544086933135986  1.0000
  I   I2        1.0  0.9116445183753967  0.5041675567626953  0.481530100107193  1.0000
  O   O1        1.0  0.4072803258895874  0.8330303430557251  0.489083468914032  1.0000
  Se  Se1       1.0  0.9123819470405579  0.7195594906806946  0.7833012342453003  1.0000
  Se  Se2       1.0  0.3876928687095642  0.13936586678028107  0.40557190775871277  1.0000
  Se  Se3       1.0  0.4057774543762207  0.9479581713676453  0.3179543912410736  1.0000
  Ti  Ti1       1.0  0.4174593389034271  0.5623592734336853  0.5859622359275818  1.0000
  V   V1        1.0  0.6856489181518555  0.5805156826972961  0.5658037066459656  1.0000
  Zn  Zn1       1.0  0.40461042523384094  0.04536931589245796  0.10716819018125534  1.0000
