data_image0
_chemical_formula_structural       AsCs10OSe2
_chemical_formula_sum              "As1 Cs10 O1 Se2"
_cell_length_a       7.260375505173008
_cell_length_b       7.663767135176009
_cell_length_c       9.748350143432617
_cell_angle_alpha    111.9337934488495
_cell_angle_beta     114.30873555840365
_cell_angle_gamma    99.62260361973073

_space_group_name_H-M_alt    "P 1"
_space_group_IT_number       1

loop_
  _space_group_symop_operation_xyz
  'x, y, z'

loop_
  _atom_site_type_symbol
  _atom_site_label
  _atom_site_symmetry_multiplicity
  _atom_site_fract_x
  _atom_site_fract_y
  _atom_site_fract_z
  _atom_site_occupancy
  As  As1       1.0  0.5177528858184814  0.6872622966766357  0.5212652087211609  1.0000
  Cs  Cs1       1.0  0.7980303764343261  0.39759841561317444  0.37125068902969355  1.0000
  Cs  Cs2       1.0  0.2833496630191803  0.14096276462078094  0.14762058854103086  1.0000
  Cs  Cs3       1.0  0.903616428375244  0.8839189410209656  0.2837684154510497  1.0000
  Cs  Cs4       1.0  0.4484348893165588  0.36509203910827637  0.4021908342838287  1.0000
  Cs  Cs5       1.0  0.16209132969379422  0.989520788192749  0.2841583788394927  1.0000
  Cs  Cs6       1.0  0.11474564671516417  0.11889888346195221  0.651728630065918  1.0000
  Cs  Cs7       1.0  0.011265455745160578  0.8897310495376587  0.48283275961875916  1.0000
  Cs  Cs8       1.0  0.5022056102752686  0.6286254525184631  0.8004253506660461  1.0000
  Cs  Cs9       1.0  0.5984623432159424  0.7817932367324829  0.6260662674903869  1.0000
  Cs  Cs10      1.0  0.2544516324996948  0.9124988317489624  0.15721246600151056  1.0000
  O   O1        1.0  0.49649602174758906  0.6234874129295349  0.5224924087524414  1.0000
  Se  Se1       1.0  0.3494583368301391  0.4888591468334198  0.7565783262252808  1.0000
  Se  Se2       1.0  0.5326504111289978  0.41963329911231995  0.5117549896240234  1.0000
