data_image0
_chemical_formula_structural       Cs3Ge2I5Se4
_chemical_formula_sum              "Cs3 Ge2 I5 Se4"
_cell_length_a       6.2033095066221735
_cell_length_b       8.858832008178023
_cell_length_c       11.520776748657227
_cell_angle_alpha    95.96108009105694
_cell_angle_beta     90.9248954214648
_cell_angle_gamma    90.85724896069273

_space_group_name_H-M_alt    "P 1"
_space_group_IT_number       1

loop_
  _space_group_symop_operation_xyz
  'x, y, z'

loop_
  _atom_site_type_symbol
  _atom_site_label
  _atom_site_symmetry_multiplicity
  _atom_site_fract_x
  _atom_site_fract_y
  _atom_site_fract_z
  _atom_site_occupancy
  Cs  Cs1       1.0  0.655248761177063  0.9384859204292297  0.46234461665153503  1.0000
  Cs  Cs2       1.0  0.6544631123542786  0.8310381174087524  0.4724777936935425  1.0000
  Cs  Cs3       1.0  0.15363359451293945  0.9574161767959595  0.7719160318374634  1.0000
  Ge  Ge1       1.0  0.6519935131072998  0.9684284329414368  0.9802641272544861  1.0000
  Ge  Ge2       1.0  0.1482822597026825  0.7437350749969482  0.07333158701658249  1.0000
  I   I1        1.0  0.6507711410522461  0.37518057227134705  0.7715965509414673  1.0000
  I   I2        1.0  0.653052568435669  0.2765136659145355  0.8656287789344788  1.0000
  I   I3        1.0  0.64189213514328  0.49416106939315796  0.30694955587387085  1.0000
  I   I4        1.0  0.6505857110023499  0.18926313519477844  0.36397746205329895  1.0000
  I   I5        1.0  0.14067019522190094  0.7553915977478027  0.5596315860748291  1.0000
  Se  Se1       1.0  0.6395087838172913  0.9586660265922546  0.2724667191505432  1.0000
  Se  Se2       1.0  0.141330748796463  0.5962978601455688  0.48493829369544983  1.0000
  Se  Se3       1.0  0.14713828265666962  0.9922530651092529  0.660972535610199  1.0000
  Se  Se4       1.0  0.13885609805583954  0.9004804491996765  0.5237711668014526  1.0000
