data_image0
_chemical_formula_structural       As2Cs10Se2
_chemical_formula_sum              "As2 Cs10 Se2"
_cell_length_a       7.056649672523208
_cell_length_b       7.9627171717790945
_cell_length_c       10.168867111206055
_cell_angle_alpha    109.08051031150211
_cell_angle_beta     94.05422922121265
_cell_angle_gamma    108.92101592482337

_space_group_name_H-M_alt    "P 1"
_space_group_IT_number       1

loop_
  _space_group_symop_operation_xyz
  'x, y, z'

loop_
  _atom_site_type_symbol
  _atom_site_label
  _atom_site_symmetry_multiplicity
  _atom_site_fract_x
  _atom_site_fract_y
  _atom_site_fract_z
  _atom_site_occupancy
  As  As1       1.0  0.7425486445426941  0.8319840431213378  0.5811654329299927  1.0000
  As  As2       1.0  0.07477014511823649  0.8193445205688475  0.25813016295433044  1.0000
  Cs  Cs1       1.0  0.7174487709999084  0.513827919960022  0.7597094178199768  1.0000
  Cs  Cs2       1.0  0.7336064577102661  0.5067776441574097  0.634092390537262  1.0000
  Cs  Cs3       1.0  0.21284236013889313  0.5616645812988281  0.7525973320007324  1.0000
  Cs  Cs4       1.0  0.15226784348487854  0.692084789276123  0.33581748604774475  1.0000
  Cs  Cs5       1.0  0.1556495130062103  0.445105105638504  0.020054124295711517  1.0000
  Cs  Cs6       1.0  0.42104002833366394  0.208214595913887  0.6521579027175903  1.0000
  Cs  Cs7       1.0  0.7622900009155273  0.5730825662612915  0.41299760341644287  1.0000
  Cs  Cs8       1.0  0.15684755146503446  0.46511626243591303  0.8588504195213318  1.0000
  Cs  Cs9       1.0  0.6742801666259766  0.07784969359636307  0.34068456292152405  1.0000
  Cs  Cs10      1.0  0.6963534951210022  0.4975603520870208  0.034307945519685745  1.0000
  Se  Se1       1.0  0.7321928143501282  0.2230071425437927  0.4225625693798065  1.0000
  Se  Se2       1.0  0.4290114641189575  0.3712886869907379  0.10004255175590515  1.0000
