data_image0
_chemical_formula_structural       BiCsFHHfLaPScTe
_chemical_formula_sum              "Bi1 Cs1 F1 H1 Hf1 La1 P1 Sc1 Te1"
_cell_length_a       6.296447860920009
_cell_length_b       6.280277364752516
_cell_length_c       6.302117347717285
_cell_angle_alpha    105.99056721567388
_cell_angle_beta     105.87703727050419
_cell_angle_gamma    106.6563184894631

_space_group_name_H-M_alt    "P 1"
_space_group_IT_number       1

loop_
  _space_group_symop_operation_xyz
  'x, y, z'

loop_
  _atom_site_type_symbol
  _atom_site_label
  _atom_site_symmetry_multiplicity
  _atom_site_fract_x
  _atom_site_fract_y
  _atom_site_fract_z
  _atom_site_occupancy
  Bi  Bi1       1.0  0.42912259697914124  0.5727935433387756  0.940034031867981  1.0000
  Cs  Cs1       1.0  0.4678371846675873  0.04507957026362419  0.8502985239028931  1.0000
  F   F1        1.0  0.5041047930717468  0.10664885491132736  0.40102842450141907  1.0000
  H   H1        1.0  0.8557149171829224  0.48622769117355347  0.7679328322410583  1.0000
  Hf  Hf1       1.0  0.9279888868331909  0.22837130725383759  0.6257699728012085  1.0000
  La  La1       1.0  0.05525380000472069  0.7732838988304138  0.15840412676334378  1.0000
  P   P1        1.0  0.9194155335426331  0.8460918068885803  0.5694280862808226  1.0000
  Sc  Sc1       1.0  0.5637124180793762  0.4864063262939453  0.49279025197029114  1.0000
  Te  Te1       1.0  0.03849809616804123  0.2828168272972107  0.21824224293231964  1.0000
