data_image0
_chemical_formula_structural       AlIr2Mn3Pt3
_chemical_formula_sum              "Al1 Ir2 Mn3 Pt3"
_cell_length_a       5.8523632685188645
_cell_length_b       5.861447700005359
_cell_length_c       5.811833381652832
_cell_angle_alpha    107.95981151775945
_cell_angle_beta     109.70951245756198
_cell_angle_gamma    110.44923121096906

_space_group_name_H-M_alt    "P 1"
_space_group_IT_number       1

loop_
  _space_group_symop_operation_xyz
  'x, y, z'

loop_
  _atom_site_type_symbol
  _atom_site_label
  _atom_site_symmetry_multiplicity
  _atom_site_fract_x
  _atom_site_fract_y
  _atom_site_fract_z
  _atom_site_occupancy
  Al  Al1       1.0  0.7399999499320984  0.35477498173713684  0.7607671618461609  1.0000
  Ir  Ir1       1.0  0.73520427942276  0.3556397259235382  0.26090332865715027  1.0000
  Ir  Ir2       1.0  0.05773906782269478  0.14287108182907104  0.5778512954711914  1.0000
  Mn  Mn1       1.0  0.7370076775550842  0.8581967949867249  0.24234838783740997  1.0000
  Mn  Mn2       1.0  0.236690953373909  0.3580377399921417  0.25983330607414246  1.0000
  Mn  Mn3       1.0  0.23940196633338928  0.8553281426429749  0.7628931999206543  1.0000
  Pt  Pt1       1.0  0.24438051879405975  0.8562684655189514  0.26080492138862604  1.0000
  Pt  Pt2       1.0  0.38907596468925476  0.49379271268844604  0.9073829054832458  1.0000
  Pt  Pt3       1.0  0.7361384034156799  0.8554158806800842  0.7595416307449341  1.0000
