data_image0
_chemical_formula_structural       GdHg2IrPPtTaTe2
_chemical_formula_sum              "Gd1 Hg2 Ir1 P1 Pt1 Ta1 Te2"
_cell_length_a       6.020708775253535
_cell_length_b       5.997445939119862
_cell_length_c       5.988144874572754
_cell_angle_alpha    98.07891807533775
_cell_angle_beta     97.91713939747794
_cell_angle_gamma    97.10467985745943

_space_group_name_H-M_alt    "P 1"
_space_group_IT_number       1

loop_
  _space_group_symop_operation_xyz
  'x, y, z'

loop_
  _atom_site_type_symbol
  _atom_site_label
  _atom_site_symmetry_multiplicity
  _atom_site_fract_x
  _atom_site_fract_y
  _atom_site_fract_z
  _atom_site_occupancy
  Gd  Gd1       1.0  0.11850419640541077  0.8318989276885986  0.27858254313468933  1.0000
  Hg  Hg1       1.0  0.282722532749176  0.1049419417977333  0.803924024105072  1.0000
  Hg  Hg2       1.0  0.49803194403648376  0.6102866530418396  0.9621149301528931  1.0000
  Ir  Ir1       1.0  0.6366569399833679  0.8705002665519714  0.6466380953788757  1.0000
  P   P1        1.0  0.7039032578468323  0.014622407034039497  0.07784937322139739  1.0000
  Pt  Pt1       1.0  0.9213429093360901  0.32093364000320435  0.04181312024593353  1.0000
  Ta  Ta1       1.0  0.8159759044647217  0.21416547894477844  0.4779069125652313  1.0000
  Te  Te1       1.0  0.9397498965263367  0.6178022623062134  0.7215996980667114  1.0000
  Te  Te2       1.0  0.31981074810028076  0.3551337420940399  0.3400140106678009  1.0000
