data_image0
_chemical_formula_structural       Dy3GaLaPtZn
_chemical_formula_sum              "Dy3 Ga1 La1 Pt1 Zn1"
_cell_length_a       4.477166851667321
_cell_length_b       3.473319133351534
_cell_length_c       5.542391300201416
_cell_angle_alpha    151.32504268191133
_cell_angle_beta     103.3583588725477
_cell_angle_gamma    95.87937536119836

_space_group_name_H-M_alt    "P 1"
_space_group_IT_number       1

loop_
  _space_group_symop_operation_xyz
  'x, y, z'

loop_
  _atom_site_type_symbol
  _atom_site_label
  _atom_site_symmetry_multiplicity
  _atom_site_fract_x
  _atom_site_fract_y
  _atom_site_fract_z
  _atom_site_occupancy
  Dy  Dy1       1.0  0.845443069934845  0.05504887923598298  0.6855381131172181  1.0000
  Dy  Dy2       1.0  0.3211738169193268  0.06621136516332626  0.34183815121650696  1.0000
  Dy  Dy3       1.0  0.10741539299488068  0.7172316908836365  0.9212986826896667  1.0000
  Ga  Ga1       1.0  0.34014996886253357  0.5190249681472778  0.561606228351593  1.0000
  La  La1       1.0  0.8165421485900879  0.43427982926368713  0.12931427359580994  1.0000
  Pt  Pt1       1.0  0.32926976680755615  0.44241210818290705  0.04783593863248822  1.0000
  Zn  Zn1       1.0  0.8400461077690125  0.37783783674240107  0.7493391036987305  1.0000
