data_image0
_chemical_formula_structural       Dy5HZn
_chemical_formula_sum              "Dy5 H1 Zn1"
_cell_length_a       4.712502856094143
_cell_length_b       4.034484716646378
_cell_length_c       6.034487724304199
_cell_angle_alpha    151.84823387706612
_cell_angle_beta     113.06761568620624
_cell_angle_gamma    93.46529643439523

_space_group_name_H-M_alt    "P 1"
_space_group_IT_number       1

loop_
  _space_group_symop_operation_xyz
  'x, y, z'

loop_
  _atom_site_type_symbol
  _atom_site_label
  _atom_site_symmetry_multiplicity
  _atom_site_fract_x
  _atom_site_fract_y
  _atom_site_fract_z
  _atom_site_occupancy
  Dy  Dy1       1.0  0.585028886795044  0.8798326253890991  0.6834394335746765  1.0000
  Dy  Dy2       1.0  0.9238166213035583  0.5021213293075563  0.35234317183494573  1.0000
  Dy  Dy3       1.0  0.48549073934555054  0.28526160120964045  0.40791699290275574  1.0000
  Dy  Dy4       1.0  0.6898844242095947  0.9807154536247252  0.47379633784294123  1.0000
  Dy  Dy5       1.0  0.41543614864349365  0.22007802128791804  0.5190658569335938  1.0000
  H   H1        1.0  0.7412621974945068  0.4300064742565155  0.35211896896362305  1.0000
  Zn  Zn1       1.0  0.09818365424871445  0.33603808283805847  0.779412031173706  1.0000
