data_image0
_chemical_formula_structural       Dy5Ga2
_chemical_formula_sum              "Dy5 Ga2"
_cell_length_a       4.552305005148562
_cell_length_b       5.053050164090623
_cell_length_c       5.689002990722656
_cell_angle_alpha    126.40731623895904
_cell_angle_beta     108.97870033160247
_cell_angle_gamma    99.8911257976035

_space_group_name_H-M_alt    "P 1"
_space_group_IT_number       1

loop_
  _space_group_symop_operation_xyz
  'x, y, z'

loop_
  _atom_site_type_symbol
  _atom_site_label
  _atom_site_symmetry_multiplicity
  _atom_site_fract_x
  _atom_site_fract_y
  _atom_site_fract_z
  _atom_site_occupancy
  Dy  Dy1       1.0  0.18723109364509577  0.7291335463523864  0.4534926414489746  1.0000
  Dy  Dy2       1.0  0.19205357134342194  0.06257722526788713  0.09136690199375154  1.0000
  Dy  Dy3       1.0  0.6669177412986756  0.5620553493499758  0.9740520119667054  1.0000
  Dy  Dy4       1.0  0.7195085883140564  0.6652208566665649  0.33520853519439703  1.0000
  Dy  Dy5       1.0  0.718356192111969  0.8318105340003968  0.08017046749591841  1.0000
  Ga  Ga1       1.0  0.16812002658843989  0.6126707792282103  0.5954546928405762  1.0000
  Ga  Ga2       1.0  0.7087948322296143  0.7106071710586548  0.5588711500167848  1.0000
