data_image0
_chemical_formula_structural       PRh2Y3
_chemical_formula_sum              "P1 Rh2 Y3"
_cell_length_a       4.055753192364061
_cell_length_b       4.542131292969391
_cell_length_c       6.987751007080078
_cell_angle_alpha    94.07686473794668
_cell_angle_beta     88.10249793504194
_cell_angle_gamma    113.69407885716612

_space_group_name_H-M_alt    "P 1"
_space_group_IT_number       1

loop_
  _space_group_symop_operation_xyz
  'x, y, z'

loop_
  _atom_site_type_symbol
  _atom_site_label
  _atom_site_symmetry_multiplicity
  _atom_site_fract_x
  _atom_site_fract_y
  _atom_site_fract_z
  _atom_site_occupancy
  P   P1        1.0  0.9275195002555847  0.9238390922546387  0.19840797781944278  1.0000
  Rh  Rh1       1.0  0.9714083671569824  0.4744851887226105  0.8044549226760865  1.0000
  Rh  Rh2       1.0  0.5236307978630066  0.25683411955833435  0.8845351338386537  1.0000
  Y   Y1        1.0  0.46235883235931396  0.9526647329330444  0.21626551449298861  1.0000
  Y   Y2        1.0  0.4999086856842041  0.5162546634674072  0.04783742874860764  1.0000
  Y   Y3        1.0  0.8982420563697815  0.13157618045806885  0.5565336346626282  1.0000
