data_image0
_chemical_formula_structural       Rh2Y4
_chemical_formula_sum              "Rh2 Y4"
_cell_length_a       4.413442565231015
_cell_length_b       4.986442642912573
_cell_length_c       6.0762529373168945
_cell_angle_alpha    114.94965290053958
_cell_angle_beta     108.250575647348
_cell_angle_gamma    90.2851372227792

_space_group_name_H-M_alt    "P 1"
_space_group_IT_number       1

loop_
  _space_group_symop_operation_xyz
  'x, y, z'

loop_
  _atom_site_type_symbol
  _atom_site_label
  _atom_site_symmetry_multiplicity
  _atom_site_fract_x
  _atom_site_fract_y
  _atom_site_fract_z
  _atom_site_occupancy
  Rh  Rh1       1.0  0.7257426381111145  0.1730290949344635  0.960285484790802  1.0000
  Rh  Rh2       1.0  0.8748664259910583  0.37504568696022034  0.5760823488235474  1.0000
  Y   Y1        1.0  0.23350930213928223  0.8424130082130432  0.17853328585624695  1.0000
  Y   Y2        1.0  0.9798415899276733  0.7761693596839905  0.8361221551895142  1.0000
  Y   Y3        1.0  0.6151904463768005  0.678085207939148  0.990309476852417  1.0000
  Y   Y4        1.0  0.2563377320766449  0.44612348079681396  0.9739789962768555  1.0000
