data_image0
_chemical_formula_structural       CoRhY4
_chemical_formula_sum              "Co1 Rh1 Y4"
_cell_length_a       4.321638612354979
_cell_length_b       4.735887269275624
_cell_length_c       7.9648003578186035
_cell_angle_alpha    104.82626937605156
_cell_angle_beta     104.08868451794736
_cell_angle_gamma    89.10406962333532

_space_group_name_H-M_alt    "P 1"
_space_group_IT_number       1

loop_
  _space_group_symop_operation_xyz
  'x, y, z'

loop_
  _atom_site_type_symbol
  _atom_site_label
  _atom_site_symmetry_multiplicity
  _atom_site_fract_x
  _atom_site_fract_y
  _atom_site_fract_z
  _atom_site_occupancy
  Co  Co1       1.0  0.7114620208740234  0.8732982873916626  0.6532272696495056  1.0000
  Rh  Rh1       1.0  0.15567989647388458  0.3244306147098541  0.14414097368717194  1.0000
  Y   Y1        1.0  0.6699071526527405  0.35541728138923645  0.14970241487026215  1.0000
  Y   Y2        1.0  0.14686454832553864  0.9128080606460571  0.6231563687324524  1.0000
  Y   Y3        1.0  0.5888127088546753  0.6920425891876221  0.3067127466201782  1.0000
  Y   Y4        1.0  0.5960330367088318  0.7838835716247559  0.8090821504592896  1.0000
