data_image0
_chemical_formula_structural       CoDy3O2PTa3
_chemical_formula_sum              "Co1 Dy3 O2 P1 Ta3"
_cell_length_a       4.378431708262432
_cell_length_b       6.690434010133522
_cell_length_c       7.13203763961792
_cell_angle_alpha    120.40423075559514
_cell_angle_beta     88.37476768825722
_cell_angle_gamma    89.95180900426944

_space_group_name_H-M_alt    "P 1"
_space_group_IT_number       1

loop_
  _space_group_symop_operation_xyz
  'x, y, z'

loop_
  _atom_site_type_symbol
  _atom_site_label
  _atom_site_symmetry_multiplicity
  _atom_site_fract_x
  _atom_site_fract_y
  _atom_site_fract_z
  _atom_site_occupancy
  Co  Co1       1.0  0.07653256505727768  0.3967016041278839  0.2633560597896576  1.0000
  Dy  Dy1       1.0  0.06247370690107346  0.6182779669761658  0.8693702220916748  1.0000
  Dy  Dy2       1.0  0.5574010014533997  0.2595420181751251  0.042950600385665894  1.0000
  Dy  Dy3       1.0  0.570523202419281  0.8524755835533142  0.2891782522201538  1.0000
  O   O1        1.0  0.07777129858732224  0.009914727881550789  0.014264748431742191  1.0000
  O   O2        1.0  0.5443261861801147  0.5219432711601257  0.6934221982955933  1.0000
  P   P1        1.0  0.5607874989509583  0.02651926875114441  0.7353204488754272  1.0000
  Ta  Ta1       1.0  0.05638724938035011  0.6364177465438843  0.327449768781662  1.0000
  Ta  Ta2       1.0  0.07581592351198196  0.5339797735214233  0.1994125843048096  1.0000
  Ta  Ta3       1.0  0.07222028076648712  0.015300371684134007  0.5228450894355774  1.0000
