data_image0
_chemical_formula_structural       CoDy4O3Ta2
_chemical_formula_sum              "Co1 Dy4 O3 Ta2"
_cell_length_a       3.990035539424957
_cell_length_b       4.65481236040315
_cell_length_c       8.344977378845215
_cell_angle_alpha    107.34190200031085
_cell_angle_beta     92.0060980126372
_cell_angle_gamma    88.81894411351352

_space_group_name_H-M_alt    "P 1"
_space_group_IT_number       1

loop_
  _space_group_symop_operation_xyz
  'x, y, z'

loop_
  _atom_site_type_symbol
  _atom_site_label
  _atom_site_symmetry_multiplicity
  _atom_site_fract_x
  _atom_site_fract_y
  _atom_site_fract_z
  _atom_site_occupancy
  Co  Co1       1.0  0.9668267369270326  0.8848550915718079  0.8745079636573792  1.0000
  Dy  Dy1       1.0  0.38934424519538885  0.4169647991657257  0.7675465941429138  1.0000
  Dy  Dy2       1.0  0.4931273460388184  0.8364988565444946  0.6136261820793152  1.0000
  Dy  Dy3       1.0  0.8742971420288087  0.3748134970664978  0.29930245876312256  1.0000
  Dy  Dy4       1.0  0.38435149192810064  0.9138704538345337  0.2818208634853363  1.0000
  O   O1        1.0  0.21005195379257205  0.2635287642478943  0.31190112233161926  1.0000
  O   O2        1.0  0.5599026679992676  0.7482577562332153  0.7865261435508728  1.0000
  O   O3        1.0  0.8298110961914064  0.46079951524734497  0.08308450877666473  1.0000
  Ta  Ta1       1.0  0.6425653696060182  0.6351032853126526  0.27541980147361755  1.0000
  Ta  Ta2       1.0  0.10437602549791337  0.5465630888938904  0.5687029957771301  1.0000
