data_image0
_chemical_formula_structural       Dy3O7
_chemical_formula_sum              "Dy3 O7"
_cell_length_a       4.105254228533903
_cell_length_b       4.452162798190261
_cell_length_c       7.032858848571777
_cell_angle_alpha    84.4859050372168
_cell_angle_beta     87.09361099157474
_cell_angle_gamma    92.67771740601964

_space_group_name_H-M_alt    "P 1"
_space_group_IT_number       1

loop_
  _space_group_symop_operation_xyz
  'x, y, z'

loop_
  _atom_site_type_symbol
  _atom_site_label
  _atom_site_symmetry_multiplicity
  _atom_site_fract_x
  _atom_site_fract_y
  _atom_site_fract_z
  _atom_site_occupancy
  Dy  Dy1       1.0  0.26626157760620117  0.4109649360179901  0.5877261757850647  1.0000
  Dy  Dy2       1.0  0.9051005840301514  0.11077304184436798  0.605112373828888  1.0000
  Dy  Dy3       1.0  0.6319676637649536  0.2130468636751175  0.07994481176137926  1.0000
  O   O1        1.0  0.9932768940925598  0.5893704295158386  0.049350731074810035  1.0000
  O   O2        1.0  0.34207677841186523  0.7840266227722168  0.5281840562820435  1.0000
  O   O3        1.0  0.3498353064060211  0.2009412944316864  0.6606637239456178  1.0000
  O   O4        1.0  0.8579044938087463  0.8086831569671631  0.9403419494628907  1.0000
  O   O5        1.0  0.3358609676361084  0.2951065003871918  0.27541276812553406  1.0000
  O   O6        1.0  0.35954412817955017  0.2833148241043091  0.8713571429252626  1.0000
  O   O7        1.0  0.8416581153869629  0.3160848617553711  0.5969491004943848  1.0000
