data_image0
_chemical_formula_structural       Dy4O3Ta3
_chemical_formula_sum              "Dy4 O3 Ta3"
_cell_length_a       4.301869067238693
_cell_length_b       6.611097231638293
_cell_length_c       6.811989784240723
_cell_angle_alpha    119.41598335167139
_cell_angle_beta     86.83645485985471
_cell_angle_gamma    89.66879535288888

_space_group_name_H-M_alt    "P 1"
_space_group_IT_number       1

loop_
  _space_group_symop_operation_xyz
  'x, y, z'

loop_
  _atom_site_type_symbol
  _atom_site_label
  _atom_site_symmetry_multiplicity
  _atom_site_fract_x
  _atom_site_fract_y
  _atom_site_fract_z
  _atom_site_occupancy
  Dy  Dy1       1.0  0.8638352155685425  0.45183923840522766  0.883745312690735  1.0000
  Dy  Dy2       1.0  0.3717367649078369  0.2869940996170044  0.7854583859443666  1.0000
  Dy  Dy3       1.0  0.8557697534561157  0.81024169921875  0.9847452044487001  1.0000
  Dy  Dy4       1.0  0.8741901516914368  0.9736692309379578  0.8028593659400941  1.0000
  O   O1        1.0  0.3682017922401428  0.9447280168533325  0.9706841111183168  1.0000
  O   O2        1.0  0.3881494104862213  0.22630339860916138  0.29254013299942017  1.0000
  O   O3        1.0  0.37918969988822937  0.06778271496295929  0.9593154788017274  1.0000
  Ta  Ta1       1.0  0.3642289936542511  0.6284826397895813  0.4410219788551331  1.0000
  Ta  Ta2       1.0  0.8905973434448242  0.9757949709892273  0.32598057389259333  1.0000
  Ta  Ta3       1.0  0.8659180402755737  0.6252711415290833  0.48169338703155523  1.0000
