data_image0
_chemical_formula_structural       Dy2O7Ta
_chemical_formula_sum              "Dy2 O7 Ta1"
_cell_length_a       4.034113780292087
_cell_length_b       4.089233902279513
_cell_length_c       5.868626594543457
_cell_angle_alpha    108.12781332763855
_cell_angle_beta     117.86131897597376
_cell_angle_gamma    85.39583792180107

_space_group_name_H-M_alt    "P 1"
_space_group_IT_number       1

loop_
  _space_group_symop_operation_xyz
  'x, y, z'

loop_
  _atom_site_type_symbol
  _atom_site_label
  _atom_site_symmetry_multiplicity
  _atom_site_fract_x
  _atom_site_fract_y
  _atom_site_fract_z
  _atom_site_occupancy
  Dy  Dy1       1.0  0.8817826509475708  0.03633539751172066  0.6265448927879333  1.0000
  Dy  Dy2       1.0  0.6560547351837158  0.1993112862110138  0.6571248769760132  1.0000
  O   O1        1.0  0.649695098400116  0.5840141773223877  0.16697590053081512  1.0000
  O   O2        1.0  0.30603501200675964  0.4270517826080322  0.4279681444168091  1.0000
  O   O3        1.0  0.6167370080947876  0.475083589553833  0.6546863913536072  1.0000
  O   O4        1.0  0.101292185485363  0.10694067180156708  0.06600354611873627  1.0000
  O   O5        1.0  0.0727800503373146  0.17439888417720795  0.09407135099172592  1.0000
  O   O6        1.0  0.6326355338096619  0.9336967468261719  0.07819635421037674  1.0000
  O   O7        1.0  0.10001827776432037  0.12296658754348755  0.1434616893529892  1.0000
  Ta  Ta1       1.0  0.33016833662986755  0.6030550003051758  0.305147260427475  1.0000
