data_image0
_chemical_formula_structural       Dy5O4Ta
_chemical_formula_sum              "Dy5 O4 Ta1"
_cell_length_a       4.381492438141158
_cell_length_b       5.0794749109514
_cell_length_c       8.919559478759766
_cell_angle_alpha    104.15785303795208
_cell_angle_beta     89.9050036211407
_cell_angle_gamma    88.81885831588492

_space_group_name_H-M_alt    "P 1"
_space_group_IT_number       1

loop_
  _space_group_symop_operation_xyz
  'x, y, z'

loop_
  _atom_site_type_symbol
  _atom_site_label
  _atom_site_symmetry_multiplicity
  _atom_site_fract_x
  _atom_site_fract_y
  _atom_site_fract_z
  _atom_site_occupancy
  Dy  Dy1       1.0  0.49742013216018677  0.9290221333503723  0.12719425559043882  1.0000
  Dy  Dy2       1.0  0.4936758577823639  0.20003503561019897  0.3921777307987213  1.0000
  Dy  Dy3       1.0  0.7850913405418396  0.05929262191057205  0.11660316586494446  1.0000
  Dy  Dy4       1.0  0.46421703696250916  0.13465169072151184  0.22888430953025818  1.0000
  Dy  Dy5       1.0  0.277462363243103  0.7847535610198975  0.8755325078964233  1.0000
  O   O1        1.0  0.0913073867559433  0.3432920277118683  0.5208765864372253  1.0000
  O   O2        1.0  0.7735328674316406  0.5835656523704529  0.7805076241493225  1.0000
  O   O3        1.0  0.7608280181884766  0.5752014517784119  0.7535359859466553  1.0000
  O   O4        1.0  0.24629102647304535  0.49270227551460266  0.8033086657524109  1.0000
  Ta  Ta1       1.0  0.19365696609020233  0.08189479261636734  0.5279049873352051  1.0000
