data_image0
_chemical_formula_structural       Fe2Si5
_chemical_formula_sum              "Fe2 Si5"
_cell_length_a       4.363553164805523
_cell_length_b       4.906922739386652
_cell_length_c       4.944246768951416
_cell_angle_alpha    70.89329369669213
_cell_angle_beta     63.18232932614049
_cell_angle_gamma    65.77719659608833

_space_group_name_H-M_alt    "P 1"
_space_group_IT_number       1

loop_
  _space_group_symop_operation_xyz
  'x, y, z'

loop_
  _atom_site_type_symbol
  _atom_site_label
  _atom_site_symmetry_multiplicity
  _atom_site_fract_x
  _atom_site_fract_y
  _atom_site_fract_z
  _atom_site_occupancy
  Fe  Fe1       1.0  0.2035519778728485  0.17285025119781494  0.8625407814979553  1.0000
  Fe  Fe2       1.0  0.758104145526886  0.8157626986503601  0.8767990469932556  1.0000
  Si  Si1       1.0  0.9497513771057129  0.8102491497993469  0.1728045642375946  1.0000
  Si  Si2       1.0  0.5238751769065857  0.28379443287849426  0.3812483847141266  1.0000
  Si  Si3       1.0  0.5135382413864136  0.6172709465026855  0.09126029163599014  1.0000
  Si  Si4       1.0  0.2868229150772095  0.6203241348266602  0.4994901418685913  1.0000
  Si  Si5       1.0  0.9177113771438599  0.1827412247657776  0.5569359064102173  1.0000
