data_image0
_chemical_formula_structural       Fe2Si5
_chemical_formula_sum              "Fe2 Si5"
_cell_length_a       4.76366683602693
_cell_length_b       5.247501453980766
_cell_length_c       5.520541667938232
_cell_angle_alpha    122.46330084967754
_cell_angle_beta     89.36608874415505
_cell_angle_gamma    91.92034278585942

_space_group_name_H-M_alt    "P 1"
_space_group_IT_number       1

loop_
  _space_group_symop_operation_xyz
  'x, y, z'

loop_
  _atom_site_type_symbol
  _atom_site_label
  _atom_site_symmetry_multiplicity
  _atom_site_fract_x
  _atom_site_fract_y
  _atom_site_fract_z
  _atom_site_occupancy
  Fe  Fe1       1.0  0.8800179362297058  0.8425061702728271  0.5972776412963867  1.0000
  Fe  Fe2       1.0  0.38125649094581604  0.3940053880214691  0.843481183052063  1.0000
  Si  Si1       1.0  0.17946447432041168  0.018138080835342407  0.24702918529510498  1.0000
  Si  Si2       1.0  0.5684837698936462  0.6377773880958557  0.5146063566207886  1.0000
  Si  Si3       1.0  0.2683265209197998  0.9719050526618958  0.25069332122802734  1.0000
  Si  Si4       1.0  0.7557299733161926  0.9936025738716125  0.13269783556461334  1.0000
  Si  Si5       1.0  0.8774170875549316  0.3533053696155548  0.5382998585700989  1.0000
