data_image0
_chemical_formula_structural       Er2PPbPd2RuSbTb2Yb
_chemical_formula_sum              "Er2 P1 Pb1 Pd2 Ru1 Sb1 Tb2 Yb1"
_cell_length_a       4.865525868271975
_cell_length_b       7.020643394274587
_cell_length_c       9.155448913574219
_cell_angle_alpha    113.24940933119574
_cell_angle_beta     90.35990388201839
_cell_angle_gamma    87.87558239228342

_space_group_name_H-M_alt    "P 1"
_space_group_IT_number       1

loop_
  _space_group_symop_operation_xyz
  'x, y, z'

loop_
  _atom_site_type_symbol
  _atom_site_label
  _atom_site_symmetry_multiplicity
  _atom_site_fract_x
  _atom_site_fract_y
  _atom_site_fract_z
  _atom_site_occupancy
  Er  Er1       1.0  0.49486163258552546  0.9652541279792786  0.11912692338228226  1.0000
  Er  Er2       1.0  0.7855092287063599  0.5851132869720459  0.7765068411827087  1.0000
  P   P1        1.0  0.28106752038002014  0.11564576625823975  0.06391769647598267  1.0000
  Pb  Pb1       1.0  0.7802775502204895  0.6857202053070068  0.538891077041626  1.0000
  Pd  Pd1       1.0  0.7786509394645691  0.0865638256072998  0.24482829868793488  1.0000
  Pd  Pd2       1.0  0.7769348621368408  0.9547216296195984  0.03126249834895139  1.0000
  Ru  Ru1       1.0  0.24791012704372403  0.7425522208213806  0.9776230454444885  1.0000
  Sb  Sb1       1.0  0.28757691383361816  0.8270925879478455  0.26549595594406133  1.0000
  Tb  Tb1       1.0  0.28345978260040283  0.014532629400491714  0.3634592592716217  1.0000
  Tb  Tb2       1.0  0.9937776327133178  0.19816644489765167  0.13456332683563232  1.0000
  Yb  Yb1       1.0  0.280076265335083  0.7488757371902466  0.8344395160675049  1.0000
