data_image0
_chemical_formula_structural       P2Pd3SbTb2VYb2
_chemical_formula_sum              "P2 Pd3 Sb1 Tb2 V1 Yb2"
_cell_length_a       4.745578557325446
_cell_length_b       6.083224157188021
_cell_length_c       9.323780059814453
_cell_angle_alpha    88.93434101545968
_cell_angle_beta     88.01773756490401
_cell_angle_gamma    90.36687964591249

_space_group_name_H-M_alt    "P 1"
_space_group_IT_number       1

loop_
  _space_group_symop_operation_xyz
  'x, y, z'

loop_
  _atom_site_type_symbol
  _atom_site_label
  _atom_site_symmetry_multiplicity
  _atom_site_fract_x
  _atom_site_fract_y
  _atom_site_fract_z
  _atom_site_occupancy
  P   P1        1.0  0.7740221619606018  0.3861396312713623  0.1330791711807251  1.0000
  P   P2        1.0  0.017046712338924408  0.4477919936180114  0.09288808703422546  1.0000
  Pd  Pd1       1.0  0.2729068100452423  0.932369828224182  0.9297925233840942  1.0000
  Pd  Pd2       1.0  0.7707352042198181  0.6274096965789795  0.2000463902950287  1.0000
  Pd  Pd3       1.0  0.27087804675102234  0.15203164517879486  0.09637483954429626  1.0000
  Sb  Sb1       1.0  0.7750619649887085  0.5287616848945618  0.9266712665557864  1.0000
  Tb  Tb1       1.0  0.2669060528278351  0.09028517454862595  0.6965831518173218  1.0000
  Tb  Tb2       1.0  0.2640242278575897  0.8979615569114684  0.008649162016808987  1.0000
  V   V1        1.0  0.7678324580192566  0.5490837693214417  0.4476286470890045  1.0000
  Yb  Yb1       1.0  0.7520264983177185  0.598380982875824  0.3235712945461273  1.0000
  Yb  Yb2       1.0  0.7321785092353821  0.5589037537574768  0.38876527547836304  1.0000
