data_image0
_chemical_formula_structural       Pd3Sb7Tb
_chemical_formula_sum              "Pd3 Sb7 Tb1"
_cell_length_a       5.416362879766572
_cell_length_b       6.872965687194551
_cell_length_c       7.242855548858643
_cell_angle_alpha    89.7030370929113
_cell_angle_beta     89.8493855014496
_cell_angle_gamma    91.80928010815659

_space_group_name_H-M_alt    "P 1"
_space_group_IT_number       1

loop_
  _space_group_symop_operation_xyz
  'x, y, z'

loop_
  _atom_site_type_symbol
  _atom_site_label
  _atom_site_symmetry_multiplicity
  _atom_site_fract_x
  _atom_site_fract_y
  _atom_site_fract_z
  _atom_site_occupancy
  Pd  Pd1       1.0  0.40109625458717346  0.6882425546646118  0.5045449137687683  1.0000
  Pd  Pd2       1.0  0.9009931683540344  0.4521653950214386  0.3440578281879425  1.0000
  Pd  Pd3       1.0  0.39412355422973633  0.31863299012184143  0.20079031586647034  1.0000
  Sb  Sb1       1.0  0.39604490995407104  0.8565885424613953  0.9999392628669739  1.0000
  Sb  Sb2       1.0  0.8977743983268738  0.21409790217876434  0.3725323975086212  1.0000
  Sb  Sb3       1.0  0.38944387435913086  0.4166589081287384  0.26827672123908997  1.0000
  Sb  Sb4       1.0  0.8960046768188477  0.6271464824676514  0.45364832878112793  1.0000
  Sb  Sb5       1.0  0.9056870341300964  0.4608383774757385  0.5504278540611268  1.0000
  Sb  Sb6       1.0  0.3990709185600281  0.2813454866409302  0.21744434535503387  1.0000
  Sb  Sb7       1.0  0.9015375375747681  0.14894025027751923  0.4209766089916229  1.0000
  Tb  Tb1       1.0  0.8873419761657715  0.8909789323806763  0.7498617172241211  1.0000
