data_image0
_chemical_formula_structural       PPd4Sb3TiVYb
_chemical_formula_sum              "P1 Pd4 Sb3 Ti1 V1 Yb1"
_cell_length_a       6.719091823767145
_cell_length_b       7.25950785504132
_cell_length_c       7.488656520843506
_cell_angle_alpha    66.89433151126084
_cell_angle_beta     67.95585706513198
_cell_angle_gamma    66.00797332593851

_space_group_name_H-M_alt    "P 1"
_space_group_IT_number       1

loop_
  _space_group_symop_operation_xyz
  'x, y, z'

loop_
  _atom_site_type_symbol
  _atom_site_label
  _atom_site_symmetry_multiplicity
  _atom_site_fract_x
  _atom_site_fract_y
  _atom_site_fract_z
  _atom_site_occupancy
  P   P1        1.0  0.7016542553901673  0.8144953846931458  0.1326935887336731  1.0000
  Pd  Pd1       1.0  0.10203266888856889  0.6056739687919617  0.9623986482620239  1.0000
  Pd  Pd2       1.0  0.6110381484031677  0.9149368405342102  0.5550901293754578  1.0000
  Pd  Pd3       1.0  0.6332211494445801  0.7964953184127808  0.8600839376449585  1.0000
  Pd  Pd4       1.0  0.6355208158493042  0.3527478873729706  0.04919522628188128  1.0000
  Sb  Sb1       1.0  0.12896163761615753  0.7389768362045288  0.21711602807044983  1.0000
  Sb  Sb2       1.0  0.3370527923107147  0.27807310223579407  0.352344810962677  1.0000
  Sb  Sb3       1.0  0.13240979611873627  0.8744651079177856  0.4297885298728943  1.0000
  Ti  Ti1       1.0  0.686858057975769  0.596051037311554  0.47994655370712275  1.0000
  V   V1        1.0  0.6294135451316833  0.5477119088172913  0.46026384830474854  1.0000
  Yb  Yb1       1.0  0.11398521065711976  0.026771817356348038  0.5847784280776978  1.0000
