data_image0
_chemical_formula_structural       Pd4Sb7
_chemical_formula_sum              "Pd4 Sb7"
_cell_length_a       5.504644204189078
_cell_length_b       6.623619304499433
_cell_length_c       7.076125621795654
_cell_angle_alpha    104.41615029584952
_cell_angle_beta     83.38868270464391
_cell_angle_gamma    87.32888943921293

_space_group_name_H-M_alt    "P 1"
_space_group_IT_number       1

loop_
  _space_group_symop_operation_xyz
  'x, y, z'

loop_
  _atom_site_type_symbol
  _atom_site_label
  _atom_site_symmetry_multiplicity
  _atom_site_fract_x
  _atom_site_fract_y
  _atom_site_fract_z
  _atom_site_occupancy
  Pd  Pd1       1.0  0.011636676266789436  0.0010642812121659517  0.49804204702377325  1.0000
  Pd  Pd2       1.0  0.010575583204627027  0.9605547189712526  0.13016578555107122  1.0000
  Pd  Pd3       1.0  0.011652356013655663  0.0010866730008274317  0.6746750473976135  1.0000
  Pd  Pd4       1.0  0.5130584239959717  0.1618083268404007  0.4963903725147248  1.0000
  Sb  Sb1       1.0  0.5116062164306641  0.3439062833786011  0.8681827187538148  1.0000
  Sb  Sb2       1.0  0.5116601586341858  0.34205636382102966  0.4938924908638001  1.0000
  Sb  Sb3       1.0  0.011830265633761878  0.3924673199653626  0.858960509300232  1.0000
  Sb  Sb4       1.0  0.010707765817642202  0.9326900243759156  0.16597439348697662  1.0000
  Sb  Sb5       1.0  0.010811273008584976  0.6312826871871948  0.4484109580516816  1.0000
  Sb  Sb6       1.0  0.5126322507858276  0.10783747583627702  0.9118953347206117  1.0000
  Sb  Sb7       1.0  0.5109040141105652  0.43858146667480474  0.07688798010349274  1.0000
