data_image0
_chemical_formula_structural       ErLuP2PbPd3Sb3
_chemical_formula_sum              "Er1 Lu1 P2 Pb1 Pd3 Sb3"
_cell_length_a       6.02446631874489
_cell_length_b       7.201639606596605
_cell_length_c       7.5411696434021
_cell_angle_alpha    73.32685252524544
_cell_angle_beta     69.44613362309885
_cell_angle_gamma    71.63124949485128

_space_group_name_H-M_alt    "P 1"
_space_group_IT_number       1

loop_
  _space_group_symop_operation_xyz
  'x, y, z'

loop_
  _atom_site_type_symbol
  _atom_site_label
  _atom_site_symmetry_multiplicity
  _atom_site_fract_x
  _atom_site_fract_y
  _atom_site_fract_z
  _atom_site_occupancy
  Er  Er1       1.0  0.06109118089079857  0.7785499691963196  0.0398414172232151  1.0000
  Lu  Lu1       1.0  0.023980092257261276  0.31887203454971313  0.8571041226387024  1.0000
  P   P1        1.0  0.5298927426338196  0.7404919862747192  0.6919998526573181  1.0000
  P   P2        1.0  0.8371454477310181  0.6841952800750732  0.5118087530136108  1.0000
  Pb  Pb1       1.0  0.5145655870437622  0.3324678838253021  0.5874748229980469  1.0000
  Pd  Pd1       1.0  0.9870598912239075  0.7727931141853333  0.22343802452087402  1.0000
  Pd  Pd2       1.0  0.967620849609375  0.24054351449012756  0.7026417255401611  1.0000
  Pd  Pd3       1.0  0.9789138436317444  0.9112834930419922  0.19367747008800507  1.0000
  Sb  Sb1       1.0  0.05061597749590874  0.744329571723938  0.8403913974761963  1.0000
  Sb  Sb2       1.0  0.5002689361572266  0.736690104007721  0.814703643321991  1.0000
  Sb  Sb3       1.0  0.5684167146682739  0.9688353538513184  0.4257279336452484  1.0000
