data_image0
_chemical_formula_structural       IO4P5PbZr2
_chemical_formula_sum              "I1 O4 P5 Pb1 Zr2"
_cell_length_a       6.135607746314805
_cell_length_b       6.5442635940936755
_cell_length_c       6.996761322021484
_cell_angle_alpha    73.0774305344279
_cell_angle_beta     65.2358843258146
_cell_angle_gamma    64.03334630782315

_space_group_name_H-M_alt    "P 1"
_space_group_IT_number       1

loop_
  _space_group_symop_operation_xyz
  'x, y, z'

loop_
  _atom_site_type_symbol
  _atom_site_label
  _atom_site_symmetry_multiplicity
  _atom_site_fract_x
  _atom_site_fract_y
  _atom_site_fract_z
  _atom_site_occupancy
  I   I1        1.0  0.15322741866111755  0.6474329829216003  0.370437890291214  1.0000
  O   O1        1.0  0.18172940611839294  0.054138645529747  0.7915414571762085  1.0000
  O   O2        1.0  0.7584503889083862  0.3624480366706848  0.035509951412677765  1.0000
  O   O3        1.0  0.9621947407722472  0.4085800945758819  0.4085560739040375  1.0000
  O   O4        1.0  0.31618738174438477  0.2683606743812561  0.8309122920036316  1.0000
  P   P1        1.0  0.021065043285489162  0.9663898348808287  0.4369860291481018  1.0000
  P   P2        1.0  0.11267078667879103  0.32397377490997314  0.7066997289657593  1.0000
  P   P3        1.0  0.6707512140274048  0.5589852929115295  0.9046288132667542  1.0000
  P   P4        1.0  0.6835131645202637  0.5611300468444824  0.8943872451782227  1.0000
  P   P5        1.0  0.6848459243774414  0.61353600025177  0.26951363682746887  1.0000
  Pb  Pb1       1.0  0.07399661093950272  0.35166463255882263  0.8549546003341675  1.0000
  Zr  Zr1       1.0  0.15489427745342257  0.8656651973724364  0.5215404629707336  1.0000
  Zr  Zr2       1.0  0.6577048301696777  0.8335209488868712  0.13820047676563263  1.0000
