data_image0
_chemical_formula_structural       CO5P4Zr3
_chemical_formula_sum              "C1 O5 P4 Zr3"
_cell_length_a       5.93187402148616
_cell_length_b       5.971015762847274
_cell_length_c       8.864563941955566
_cell_angle_alpha    76.98257197536516
_cell_angle_beta     66.25948489903588
_cell_angle_gamma    63.476113745372935

_space_group_name_H-M_alt    "P 1"
_space_group_IT_number       1

loop_
  _space_group_symop_operation_xyz
  'x, y, z'

loop_
  _atom_site_type_symbol
  _atom_site_label
  _atom_site_symmetry_multiplicity
  _atom_site_fract_x
  _atom_site_fract_y
  _atom_site_fract_z
  _atom_site_occupancy
  C   C1        1.0  0.7023733258247375  0.11774835735559464  0.0211366303265095  1.0000
  O   O1        1.0  0.9896671175956726  0.9031509160995483  0.2726397216320038  1.0000
  O   O2        1.0  0.23758120834827423  0.2208193838596344  0.7058431506156921  1.0000
  O   O3        1.0  0.5896126627922058  0.1948227882385254  0.22887706756591797  1.0000
  O   O4        1.0  0.7176920175552368  0.040326811373233795  0.7225415706634521  1.0000
  O   O5        1.0  0.24191910028457642  0.7281757593154907  0.7700151205062866  1.0000
  P   P1        1.0  0.0007604208076372946  0.70610511302948  0.7032521367073059  1.0000
  P   P2        1.0  0.6789390444755554  0.6688941717147827  0.49942049384117126  1.0000
  P   P3        1.0  0.51264888048172  0.19794125854969025  0.3537769913673401  1.0000
  P   P4        1.0  0.20588865876197815  0.7252103686332703  0.003886553691700126  1.0000
  Zr  Zr1       1.0  0.5372196435928345  0.29576390981674194  0.8057049512863159  1.0000
  Zr  Zr2       1.0  0.18238909542560577  0.009865636937320232  0.9066241979598999  1.0000
  Zr  Zr3       1.0  0.584598183631897  0.07802426069974899  0.9485000371932983  1.0000
