data_image0
_chemical_formula_structural       OP4Ti2Zr6
_chemical_formula_sum              "O1 P4 Ti2 Zr6"
_cell_length_a       4.792543353681177
_cell_length_b       6.631610648806991
_cell_length_c       9.35474681854248
_cell_angle_alpha    93.19320923297681
_cell_angle_beta     90.6286026034088
_cell_angle_gamma    90.52750296914115

_space_group_name_H-M_alt    "P 1"
_space_group_IT_number       1

loop_
  _space_group_symop_operation_xyz
  'x, y, z'

loop_
  _atom_site_type_symbol
  _atom_site_label
  _atom_site_symmetry_multiplicity
  _atom_site_fract_x
  _atom_site_fract_y
  _atom_site_fract_z
  _atom_site_occupancy
  O   O1        1.0  0.19700942933559418  0.2717984616756439  0.8828651905059814  1.0000
  P   P1        1.0  0.24776352941989896  0.3714599609375  0.005568171851336956  1.0000
  P   P2        1.0  0.7252416014671326  0.4199018180370331  0.7608708739280701  1.0000
  P   P3        1.0  0.7288466691970825  0.5083072185516357  0.6932312250137329  1.0000
  P   P4        1.0  0.7110984325408936  0.11321903020143509  0.6184943318367004  1.0000
  Ti  Ti1       1.0  0.22410514950752258  0.5508771538734436  0.818240225315094  1.0000
  Ti  Ti2       1.0  0.7659913301467896  0.5443179607391357  0.09498163312673569  1.0000
  Zr  Zr1       1.0  0.7286842465400696  0.009679185226559639  0.6042812466621399  1.0000
  Zr  Zr2       1.0  0.7118645310401917  0.20071394741535187  0.995533585548401  1.0000
  Zr  Zr3       1.0  0.7200954556465149  0.5329492092132568  0.0018237377516925335  1.0000
  Zr  Zr4       1.0  0.21107417345046997  0.7121513485908508  0.03443717956542969  1.0000
  Zr  Zr5       1.0  0.7373058795928955  0.872008740901947  0.3755158483982086  1.0000
  Zr  Zr6       1.0  0.22806750237941742  0.6511805653572083  0.1690056174993515  1.0000
