data_image0
_chemical_formula_structural       O3Sr2Zr8
_chemical_formula_sum              "O3 Sr2 Zr8"
_cell_length_a       6.239148587092651
_cell_length_b       6.450169303531665
_cell_length_c       6.810428142547607
_cell_angle_alpha    120.34219508632381
_cell_angle_beta     118.50473834634239
_cell_angle_gamma    87.7701687095922

_space_group_name_H-M_alt    "P 1"
_space_group_IT_number       1

loop_
  _space_group_symop_operation_xyz
  'x, y, z'

loop_
  _atom_site_type_symbol
  _atom_site_label
  _atom_site_symmetry_multiplicity
  _atom_site_fract_x
  _atom_site_fract_y
  _atom_site_fract_z
  _atom_site_occupancy
  O   O1        1.0  0.7030998468399048  0.5056324005126953  0.9741359949111938  1.0000
  O   O2        1.0  0.6633831858634949  0.6274101734161377  0.5923572182655334  1.0000
  O   O3        1.0  0.674589216709137  0.9585551023483276  0.3336262106895447  1.0000
  Sr  Sr1       1.0  0.9913330674171448  0.7894361615180969  0.36974871158599854  1.0000
  Sr  Sr2       1.0  0.6852304339408875  0.15380999445915222  0.27402397990226746  1.0000
  Zr  Zr1       1.0  0.2210448682308197  0.9064343571662903  0.1525649726390838  1.0000
  Zr  Zr2       1.0  0.20353184640407562  0.24140672385692596  0.9120866656303406  1.0000
  Zr  Zr3       1.0  0.21874910593032837  0.37881752848625183  0.09685076028108597  1.0000
  Zr  Zr4       1.0  0.6988062262535095  0.23231911659240723  0.039772093296050956  1.0000
  Zr  Zr5       1.0  0.19622096419334412  0.716421902179718  0.9100028276443481  1.0000
  Zr  Zr6       1.0  0.1854923814535141  0.9738959074020386  0.9205356240272522  1.0000
  Zr  Zr7       1.0  0.9389927983283997  0.7684105038642883  0.2794989347457886  1.0000
  Zr  Zr8       1.0  0.6777081489562988  0.277691513299942  0.8509101271629333  1.0000
