data_image0
_chemical_formula_structural       O2P6TiZr4
_chemical_formula_sum              "O2 P6 Ti1 Zr4"
_cell_length_a       6.256164694805586
_cell_length_b       6.712474652282984
_cell_length_c       7.872109413146973
_cell_angle_alpha    73.18456337817148
_cell_angle_beta     70.51148564501833
_cell_angle_gamma    65.14014578899634

_space_group_name_H-M_alt    "P 1"
_space_group_IT_number       1

loop_
  _space_group_symop_operation_xyz
  'x, y, z'

loop_
  _atom_site_type_symbol
  _atom_site_label
  _atom_site_symmetry_multiplicity
  _atom_site_fract_x
  _atom_site_fract_y
  _atom_site_fract_z
  _atom_site_occupancy
  O   O1        1.0  0.4954804182052612  0.5527651906013489  0.64974045753479  1.0000
  O   O2        1.0  0.724395453929901  0.08491528034210205  0.268161803483963  1.0000
  P   P1        1.0  0.3931568264961242  0.5562806129455566  0.01178248692303896  1.0000
  P   P2        1.0  0.9628022909164428  0.19727402925491333  0.4987645745277405  1.0000
  P   P3        1.0  0.20122720301151273  0.0823025330901146  0.46164485812187195  1.0000
  P   P4        1.0  0.8786394596099852  0.8776057362556458  0.32272249460220337  1.0000
  P   P5        1.0  0.7137581706047057  0.2590365409851074  0.7211880087852478  1.0000
  P   P6        1.0  0.19660477340221402  0.9919159412384033  0.1370338499546051  1.0000
  Ti  Ti1       1.0  0.2552253007888794  0.824948787689209  0.8422314524650574  1.0000
  Zr  Zr1       1.0  0.421661227941513  0.5654526352882385  0.6591246128082275  1.0000
  Zr  Zr2       1.0  0.023861680179834362  0.811076283454895  0.5606809258460999  1.0000
  Zr  Zr3       1.0  0.2696762681007385  0.9104788303375244  0.8557521104812622  1.0000
  Zr  Zr4       1.0  0.7538141012191771  0.7498742938041687  0.030342236161231995  1.0000
