data_image0
_chemical_formula_structural       O2PZr10
_chemical_formula_sum              "O2 P1 Zr10"
_cell_length_a       6.215293035284372
_cell_length_b       6.343352518099384
_cell_length_c       7.447112560272217
_cell_angle_alpha    120.12453859827947
_cell_angle_beta     118.00768298608052
_cell_angle_gamma    87.63439833893567

_space_group_name_H-M_alt    "P 1"
_space_group_IT_number       1

loop_
  _space_group_symop_operation_xyz
  'x, y, z'

loop_
  _atom_site_type_symbol
  _atom_site_label
  _atom_site_symmetry_multiplicity
  _atom_site_fract_x
  _atom_site_fract_y
  _atom_site_fract_z
  _atom_site_occupancy
  O   O1        1.0  0.9527769088745117  0.18612298369407654  0.9997069239616395  1.0000
  O   O2        1.0  0.9426994919776917  0.1707085371017456  0.2666420638561248  1.0000
  P   P1        1.0  0.15588779747486115  0.3227207362651825  0.36497649550437933  1.0000
  Zr  Zr1       1.0  0.4232155978679657  0.715032160282135  0.6674377918243409  1.0000
  Zr  Zr2       1.0  0.4408634901046753  0.7784876823425293  0.4706502556800843  1.0000
  Zr  Zr3       1.0  0.9261556267738342  0.5818678736686707  0.07796769589185716  1.0000
  Zr  Zr4       1.0  0.4249538481235504  0.7739698886871338  0.7167222499847413  1.0000
  Zr  Zr5       1.0  0.9258974194526672  0.2952432632446289  0.7218694090843202  1.0000
  Zr  Zr6       1.0  0.9246823787689209  0.5986431241035461  0.13944356143474582  1.0000
  Zr  Zr7       1.0  0.44230929017066956  0.2016441971063614  0.57421213388443  1.0000
  Zr  Zr8       1.0  0.9346967339515686  0.465681105852127  0.8469070196151735  1.0000
  Zr  Zr9       1.0  0.9343196749687195  0.9644016623497008  0.17822557687759402  1.0000
  Zr  Zr10      1.0  0.4295649528503418  0.9261156916618346  0.14588809013366702  1.0000
