data_image0
_chemical_formula_structural       Ge2PSi3VZr3
_chemical_formula_sum              "Ge2 P1 Si3 V1 Zr3"
_cell_length_a       4.596310509054508
_cell_length_b       5.978331955981914
_cell_length_c       7.569337368011475
_cell_angle_alpha    121.64892228088624
_cell_angle_beta     91.02678131568129
_cell_angle_gamma    88.10843931769469

_space_group_name_H-M_alt    "P 1"
_space_group_IT_number       1

loop_
  _space_group_symop_operation_xyz
  'x, y, z'

loop_
  _atom_site_type_symbol
  _atom_site_label
  _atom_site_symmetry_multiplicity
  _atom_site_fract_x
  _atom_site_fract_y
  _atom_site_fract_z
  _atom_site_occupancy
  Ge  Ge1       1.0  0.5982000231742859  0.5549272894859314  0.06453070044517517  1.0000
  Ge  Ge2       1.0  0.6247200965881348  0.2307078242301941  0.1311650276184082  1.0000
  P   P1        1.0  0.6734020113945007  0.7348757386207581  0.02791956253349781  1.0000
  Si  Si1       1.0  0.6720718741416931  0.9382224082946777  0.5110095739364624  1.0000
  Si  Si2       1.0  0.17190520465373993  0.3076608180999756  0.04852174222469331  1.0000
  Si  Si3       1.0  0.10556253790855408  0.07057870179414749  0.5623800158500671  1.0000
  V   V1        1.0  0.1730661243200302  0.12632913887500763  0.637226939201355  1.0000
  Zr  Zr1       1.0  0.15441347658634186  0.35386401414871216  0.8743651509284973  1.0000
  Zr  Zr2       1.0  0.6742103695869446  0.72901451587677  0.42762795090675354  1.0000
  Zr  Zr3       1.0  0.1750260591506958  0.08184796571731567  0.13797958195209503  1.0000
