data_image0
_chemical_formula_structural       CaGeHILaOSi3V
_chemical_formula_sum              "Ca1 Ge1 H1 I1 La1 O1 Si3 V1"
_cell_length_a       6.157237647047366
_cell_length_b       6.1828194343644105
_cell_length_c       6.449672698974609
_cell_angle_alpha    61.469421575233966
_cell_angle_beta     63.40372085162516
_cell_angle_gamma    61.361919835945294

_space_group_name_H-M_alt    "P 1"
_space_group_IT_number       1

loop_
  _space_group_symop_operation_xyz
  'x, y, z'

loop_
  _atom_site_type_symbol
  _atom_site_label
  _atom_site_symmetry_multiplicity
  _atom_site_fract_x
  _atom_site_fract_y
  _atom_site_fract_z
  _atom_site_occupancy
  Ca  Ca1       1.0  0.66144198179245  0.6111172437667847  0.8543954491615295  1.0000
  Ge  Ge1       1.0  0.6672630906105042  0.0712166428565979  0.0238422695547343  1.0000
  H   H1        1.0  0.07621622830629346  0.4397518336772919  0.5252296924591064  1.0000
  I   I1        1.0  0.5874313116073608  0.774993360042572  0.4245344400405884  1.0000
  La  La1       1.0  0.677280843257904  0.4502111673355103  0.7758917212486267  1.0000
  O   O1        1.0  0.2493412345647812  0.12053734064102174  0.5175855755805969  1.0000
  Si  Si1       1.0  0.1933775395154953  0.601875901222229  0.8242994546890259  1.0000
  Si  Si2       1.0  0.6407843828201294  0.21030190587043765  0.5590072870254517  1.0000
  Si  Si3       1.0  0.682485044002533  0.08893102407455444  0.226959377527237  1.0000
  V   V1        1.0  0.6797645092010498  0.44357103109359747  0.5378243923187256  1.0000
