data_image0
_chemical_formula_structural       Ag4O4Si2
_chemical_formula_sum              "Ag4 O4 Si2"
_cell_length_a       5.938092173664224
_cell_length_b       5.992559971707301
_cell_length_c       6.6009321212768555
_cell_angle_alpha    72.44827144783733
_cell_angle_beta     78.27244650513882
_cell_angle_gamma    80.10274168075134

_space_group_name_H-M_alt    "P 1"
_space_group_IT_number       1

loop_
  _space_group_symop_operation_xyz
  'x, y, z'

loop_
  _atom_site_type_symbol
  _atom_site_label
  _atom_site_symmetry_multiplicity
  _atom_site_fract_x
  _atom_site_fract_y
  _atom_site_fract_z
  _atom_site_occupancy
  Ag  Ag1       1.0  0.5588472485542297  0.9952909946441649  0.6967533826828003  1.0000
  Ag  Ag2       1.0  0.5676062107086182  0.4595716595649719  0.21626673638820645  1.0000
  Ag  Ag3       1.0  0.8056288361549377  0.5598734021186829  0.5686366558074951  1.0000
  Ag  Ag4       1.0  0.08120359480381012  0.5058270692825317  0.23199608922004697  1.0000
  O   O1        1.0  0.04984266310930252  0.7533051371574402  0.44793146848678583  1.0000
  O   O2        1.0  0.7570013999938965  0.16592636704444885  0.12252631038427356  1.0000
  O   O3        1.0  0.051465969532728195  0.11771638691425322  0.8782790899276732  1.0000
  O   O4        1.0  0.03726485371589662  0.9781755208969115  0.15639004111289978  1.0000
  Si  Si1       1.0  0.902065634727478  0.803909182548523  0.7247469425201416  1.0000
  Si  Si2       1.0  0.07562649250030518  0.4805134534835815  0.6447082757949829  1.0000
