data_image0
_chemical_formula_structural       Ag5O3Si2
_chemical_formula_sum              "Ag5 O3 Si2"
_cell_length_a       5.311296468358751
_cell_length_b       5.861002195767327
_cell_length_c       4.995926856994629
_cell_angle_alpha    88.77218916415903
_cell_angle_beta     73.02629872273081
_cell_angle_gamma    74.45050044652506

_space_group_name_H-M_alt    "P 1"
_space_group_IT_number       1

loop_
  _space_group_symop_operation_xyz
  'x, y, z'

loop_
  _atom_site_type_symbol
  _atom_site_label
  _atom_site_symmetry_multiplicity
  _atom_site_fract_x
  _atom_site_fract_y
  _atom_site_fract_z
  _atom_site_occupancy
  Ag  Ag1       1.0  0.8887746930122375  0.051767509430646896  0.1718781292438507  1.0000
  Ag  Ag2       1.0  0.8851566314697266  0.8809150457382202  0.3688283860683441  1.0000
  Ag  Ag3       1.0  0.8791127800941467  0.23540014028549194  0.023303197696805  1.0000
  Ag  Ag4       1.0  0.39059439301490784  0.8604007959365845  0.9883289337158203  1.0000
  Ag  Ag5       1.0  0.38563603162765503  0.20028895139694214  0.34069186449050903  1.0000
  O   O1        1.0  0.867887020111084  0.46163567900657654  0.7968959808349608  1.0000
  O   O2        1.0  0.22448833286762238  0.6228764653205872  0.2208961695432663  1.0000
  O   O3        1.0  0.7569934725761414  0.8701096177101135  0.4208005964756012  1.0000
  Si  Si1       1.0  0.3275375962257385  0.48561564087867737  0.3136511743068695  1.0000
  Si  Si2       1.0  0.3925587236881256  0.7141609787940979  0.7279099822044373  1.0000
