data_image0
_chemical_formula_structural       LaO2Si4Zr3
_chemical_formula_sum              "La1 O2 Si4 Zr3"
_cell_length_a       5.972348356422643
_cell_length_b       6.204270457770959
_cell_length_c       10.050899505615234
_cell_angle_alpha    90.3359961309277
_cell_angle_beta     89.64879386510074
_cell_angle_gamma    89.13599900814638

_space_group_name_H-M_alt    "P 1"
_space_group_IT_number       1

loop_
  _space_group_symop_operation_xyz
  'x, y, z'

loop_
  _atom_site_type_symbol
  _atom_site_label
  _atom_site_symmetry_multiplicity
  _atom_site_fract_x
  _atom_site_fract_y
  _atom_site_fract_z
  _atom_site_occupancy
  La  La1       1.0  0.575453519821167  0.20214173197746277  0.19382470846176147  1.0000
  O   O1        1.0  0.05610048398375511  0.24183067679405212  0.026715865358710296  1.0000
  O   O2        1.0  0.20514963567256927  0.8616008758544922  0.5910718441009521  1.0000
  Si  Si1       1.0  0.07732472568750381  0.8535200953483582  0.3606110215187073  1.0000
  Si  Si2       1.0  0.08104784041643143  0.9116150140762329  0.050295304507017136  1.0000
  Si  Si3       1.0  0.08720120787620544  0.016666606068611145  0.05295891314744949  1.0000
  Si  Si4       1.0  0.5665867924690247  0.29119208455085754  0.9651995301246643  1.0000
  Zr  Zr1       1.0  0.5793400406837463  0.7646481990814209  0.9150332808494568  1.0000
  Zr  Zr2       1.0  0.5772727131843567  0.020354701206088066  0.4132385849952698  1.0000
  Zr  Zr3       1.0  0.6672921180725098  0.3326830565929413  0.2370035201311112  1.0000
