data_image0
_chemical_formula_structural       BrO2PbSi4Zr2
_chemical_formula_sum              "Br1 O2 Pb1 Si4 Zr2"
_cell_length_a       5.340224554697765
_cell_length_b       5.9089151994113145
_cell_length_c       6.720282554626465
_cell_angle_alpha    119.01262169463699
_cell_angle_beta     88.88867441280627
_cell_angle_gamma    94.97329900145806

_space_group_name_H-M_alt    "P 1"
_space_group_IT_number       1

loop_
  _space_group_symop_operation_xyz
  'x, y, z'

loop_
  _atom_site_type_symbol
  _atom_site_label
  _atom_site_symmetry_multiplicity
  _atom_site_fract_x
  _atom_site_fract_y
  _atom_site_fract_z
  _atom_site_occupancy
  Br  Br1       1.0  0.5740570425987244  0.31077536940574646  0.3381727635860443  1.0000
  O   O1        1.0  0.48398038744926447  0.6089996695518494  0.601394772529602  1.0000
  O   O2        1.0  0.9946659803390502  0.5953605771064758  0.059023868292570114  1.0000
  Pb  Pb1       1.0  0.5870954990386963  0.1296679973602295  0.21010944247245789  1.0000
  Si  Si1       1.0  0.5766034126281738  0.9238578677177429  0.07959342747926712  1.0000
  Si  Si2       1.0  0.574306070804596  0.3570564389228821  0.4590004086494446  1.0000
  Si  Si3       1.0  0.06993412226438522  0.8353997468948364  0.8564040660858154  1.0000
  Si  Si4       1.0  0.0745600238442421  0.8331193327903748  0.7095232605934143  1.0000
  Zr  Zr1       1.0  0.07601843774318695  0.18865379691123962  0.5000718235969543  1.0000
  Zr  Zr2       1.0  0.07261867821216583  0.624884307384491  0.0964265689253807  1.0000
