data_image0
_chemical_formula_structural       C2CdClRhTb6
_chemical_formula_sum              "C2 Cd1 Cl1 Rh1 Tb6"
_cell_length_a       4.320764075855412
_cell_length_b       6.676509674442957
_cell_length_c       8.02112102508545
_cell_angle_alpha    105.52519310130394
_cell_angle_beta     91.47857641832766
_cell_angle_gamma    108.4588430453618

_space_group_name_H-M_alt    "P 1"
_space_group_IT_number       1

loop_
  _space_group_symop_operation_xyz
  'x, y, z'

loop_
  _atom_site_type_symbol
  _atom_site_label
  _atom_site_symmetry_multiplicity
  _atom_site_fract_x
  _atom_site_fract_y
  _atom_site_fract_z
  _atom_site_occupancy
  C   C1        1.0  0.26297736167907715  0.2298026829957962  0.7515348196029663  1.0000
  C   C2        1.0  0.2502261698246002  0.05677160620689392  0.906920850276947  1.0000
  Cd  Cd1       1.0  0.2650096118450165  0.710991621017456  0.3724521994590759  1.0000
  Cl  Cl1       1.0  0.7547741532325745  0.03608135133981705  0.4027034640312195  1.0000
  Rh  Rh1       1.0  0.3054807484149933  0.9630740284919739  0.5629512071609497  1.0000
  Tb  Tb1       1.0  0.7685163021087646  0.03663504868745804  0.4524397850036621  1.0000
  Tb  Tb2       1.0  0.7640082240104675  0.8673291206359863  0.8873178362846375  1.0000
  Tb  Tb3       1.0  0.2937992215156555  0.23312045633792877  0.14663876593112946  1.0000
  Tb  Tb4       1.0  0.011922987177968025  0.3666517436504364  0.5025187730789185  1.0000
  Tb  Tb5       1.0  0.27645477652549744  0.7144298553466797  0.276709645986557  1.0000
  Tb  Tb6       1.0  0.7641143798828125  0.6485182046890259  0.7391882538795471  1.0000
