data_image0
_chemical_formula_structural       CClTb9
_chemical_formula_sum              "C1 Cl1 Tb9"
_cell_length_a       5.365727711281099
_cell_length_b       7.4511841230453
_cell_length_c       8.01658821105957
_cell_angle_alpha    117.08525658855774
_cell_angle_beta     97.30251678542537
_cell_angle_gamma    87.65458890364516

_space_group_name_H-M_alt    "P 1"
_space_group_IT_number       1

loop_
  _space_group_symop_operation_xyz
  'x, y, z'

loop_
  _atom_site_type_symbol
  _atom_site_label
  _atom_site_symmetry_multiplicity
  _atom_site_fract_x
  _atom_site_fract_y
  _atom_site_fract_z
  _atom_site_occupancy
  C   C1        1.0  0.0684540644288063  0.7697876095771791  0.5533491969108582  1.0000
  Cl  Cl1       1.0  0.3231271207332611  0.5659446120262146  0.510818362236023  1.0000
  Tb  Tb1       1.0  0.812451183795929  0.4022973477840424  0.23658883571624756  1.0000
  Tb  Tb2       1.0  0.10282453149557114  0.6620759367942811  0.29164710640907293  1.0000
  Tb  Tb3       1.0  0.3447631895542145  0.11021763831377031  0.7014161944389343  1.0000
  Tb  Tb4       1.0  0.6014610528945923  0.6395075917243959  0.024700352922082003  1.0000
  Tb  Tb5       1.0  0.6261038184165955  0.40024167299270635  0.03009267523884776  1.0000
  Tb  Tb6       1.0  0.6017990708351135  0.6290791630744935  0.0844800621271134  1.0000
  Tb  Tb7       1.0  0.35043129324913025  0.6357662677764894  0.7240700125694275  1.0000
  Tb  Tb8       1.0  0.01725338399410248  0.9098347425460817  0.8426884412765503  1.0000
  Tb  Tb9       1.0  0.8328002095222473  0.8104578256607057  0.826606273651123  1.0000
