data_image0
_chemical_formula_structural       CCdRhScTb7
_chemical_formula_sum              "C1 Cd1 Rh1 Sc1 Tb7"
_cell_length_a       5.208135029613693
_cell_length_b       7.269701828235437
_cell_length_c       7.638265132904053
_cell_angle_alpha    114.96493885940954
_cell_angle_beta     88.03958469109176
_cell_angle_gamma    104.88643132466584

_space_group_name_H-M_alt    "P 1"
_space_group_IT_number       1

loop_
  _space_group_symop_operation_xyz
  'x, y, z'

loop_
  _atom_site_type_symbol
  _atom_site_label
  _atom_site_symmetry_multiplicity
  _atom_site_fract_x
  _atom_site_fract_y
  _atom_site_fract_z
  _atom_site_occupancy
  C   C1        1.0  0.7102888822555542  0.711540937423706  0.8928653597831726  1.0000
  Cd  Cd1       1.0  0.28378263115882874  0.5122346878051758  0.09887053817510605  1.0000
  Rh  Rh1       1.0  0.9963422417640686  0.24796414375305176  0.2659543454647064  1.0000
  Sc  Sc1       1.0  0.20906342566013336  0.3979278802871704  0.9341055154800414  1.0000
  Tb  Tb1       1.0  0.06690138578414917  0.6832786202430725  0.7549522519111633  1.0000
  Tb  Tb2       1.0  0.5124331116676331  0.6958975791931152  0.3399059474468231  1.0000
  Tb  Tb3       1.0  0.5142662525177002  0.23625081777572632  0.21514208614826202  1.0000
  Tb  Tb4       1.0  0.9276265501976013  0.4062206447124481  0.4306432604789734  1.0000
  Tb  Tb5       1.0  0.7032731175422668  0.0027547222562134266  0.07585915923118591  1.0000
  Tb  Tb6       1.0  0.210089311003685  0.6740376949310303  0.6279138922691345  1.0000
  Tb  Tb7       1.0  0.18002237379550934  0.9039212465286255  0.5862227082252502  1.0000
