data_image0
_chemical_formula_structural       CdHScTb8
_chemical_formula_sum              "Cd1 H1 Sc1 Tb8"
_cell_length_a       4.99859709260827
_cell_length_b       7.415567369885117
_cell_length_c       8.712286949157715
_cell_angle_alpha    100.82945460753102
_cell_angle_beta     90.71965661750858
_cell_angle_gamma    107.47640133336407

_space_group_name_H-M_alt    "P 1"
_space_group_IT_number       1

loop_
  _space_group_symop_operation_xyz
  'x, y, z'

loop_
  _atom_site_type_symbol
  _atom_site_label
  _atom_site_symmetry_multiplicity
  _atom_site_fract_x
  _atom_site_fract_y
  _atom_site_fract_z
  _atom_site_occupancy
  Cd  Cd1       1.0  0.584774911403656  0.63679039478302  0.20471830666065216  1.0000
  H   H1        1.0  0.5741835832595825  0.646040678024292  0.7348203063011169  1.0000
  Sc  Sc1       1.0  0.8834080100059509  0.14384609460830688  0.8840657472610474  1.0000
  Tb  Tb1       1.0  0.4608573317527771  0.11528987437486649  0.30150410532951355  1.0000
  Tb  Tb2       1.0  0.7484586834907532  0.14532992243766785  0.5442230105400085  1.0000
  Tb  Tb3       1.0  0.1668974757194519  0.1216711476445198  0.36631909012794495  1.0000
  Tb  Tb4       1.0  0.7230056524276733  0.29783812165260315  0.4710129797458648  1.0000
  Tb  Tb5       1.0  0.3752121329307556  0.6261107325553894  0.7394541501998901  1.0000
  Tb  Tb6       1.0  0.5603521466255188  0.6371682286262512  0.052607178688049316  1.0000
  Tb  Tb7       1.0  0.07965711504220963  0.6359989643096924  0.19602864980697632  1.0000
  Tb  Tb8       1.0  0.047216180711984634  0.891309916973114  0.027573237195610972  1.0000
