data_image0
_chemical_formula_structural       CPRe2Tb7
_chemical_formula_sum              "C1 P1 Re2 Tb7"
_cell_length_a       5.013742783886121
_cell_length_b       6.624579001726901
_cell_length_c       7.2010579109191895
_cell_angle_alpha    118.39219266705804
_cell_angle_beta     98.75615433715097
_cell_angle_gamma    85.8950465050861

_space_group_name_H-M_alt    "P 1"
_space_group_IT_number       1

loop_
  _space_group_symop_operation_xyz
  'x, y, z'

loop_
  _atom_site_type_symbol
  _atom_site_label
  _atom_site_symmetry_multiplicity
  _atom_site_fract_x
  _atom_site_fract_y
  _atom_site_fract_z
  _atom_site_occupancy
  C   C1        1.0  0.526481032371521  0.8726660609245299  0.4118618667125702  1.0000
  P   P1        1.0  0.009629500098526478  0.06447520852088928  0.3653714060783386  1.0000
  Re  Re1       1.0  0.5114349722862244  0.2842089533805847  0.19844812154769897  1.0000
  Re  Re2       1.0  0.5412607192993164  0.5613890886306763  0.4467582106590271  1.0000
  Tb  Tb1       1.0  0.1942750662565231  0.7556103467941283  0.6663170456886292  1.0000
  Tb  Tb2       1.0  0.8424989581108093  0.015902865678071976  0.8588429093360901  1.0000
  Tb  Tb3       1.0  0.09500226378440857  0.6591770052909851  0.028234953060746193  1.0000
  Tb  Tb4       1.0  0.29944151639938354  0.1609221249818802  0.44569048285484314  1.0000
  Tb  Tb5       1.0  0.5232353806495667  0.04605131968855857  0.7810893654823303  1.0000
  Tb  Tb6       1.0  0.7797892093658447  0.05260240659117698  0.7353991866111755  1.0000
  Tb  Tb7       1.0  0.9525549411773682  0.15884791314601898  0.16915066540241241  1.0000
