data_image0
_chemical_formula_structural       CPRe4RhTb4
_chemical_formula_sum              "C1 P1 Re4 Rh1 Tb4"
_cell_length_a       5.070112392702085
_cell_length_b       7.130034831979762
_cell_length_c       7.1364874839782715
_cell_angle_alpha    122.6208252587918
_cell_angle_beta     97.80857226140668
_cell_angle_gamma    83.84758438053825

_space_group_name_H-M_alt    "P 1"
_space_group_IT_number       1

loop_
  _space_group_symop_operation_xyz
  'x, y, z'

loop_
  _atom_site_type_symbol
  _atom_site_label
  _atom_site_symmetry_multiplicity
  _atom_site_fract_x
  _atom_site_fract_y
  _atom_site_fract_z
  _atom_site_occupancy
  C   C1        1.0  0.8065406680107117  0.37564677000045776  0.5714232325553894  1.0000
  P   P1        1.0  0.8114168047904968  0.33309802412986755  0.2813244163990021  1.0000
  Re  Re1       1.0  0.3235369920730591  0.8021450638771057  0.4257355034351349  1.0000
  Re  Re2       1.0  0.8106868863105774  0.722734272480011  0.1475537121295929  1.0000
  Re  Re3       1.0  0.29796022176742554  0.8414819240570068  0.694732666015625  1.0000
  Re  Re4       1.0  0.8047014474868774  0.8902813196182251  0.7204796671867371  1.0000
  Rh  Rh1       1.0  0.6037737727165222  0.8289396166801453  0.8111472725868225  1.0000
  Tb  Tb1       1.0  0.7947204113006593  0.24625082314014435  0.5813608169555664  1.0000
  Tb  Tb2       1.0  0.2978660762310028  0.059669580310583115  0.012945346534252167  1.0000
  Tb  Tb3       1.0  0.30355915427207947  0.7749888300895691  0.7840235829353333  1.0000
  Tb  Tb4       1.0  0.3176356256008148  0.31116876006126404  0.45460063219070435  1.0000
