data_image0
_chemical_formula_structural       Dy5TmZn
_chemical_formula_sum              "Dy5 Tm1 Zn1"
_cell_length_a       4.521381862063604
_cell_length_b       6.549802447220808
_cell_length_c       6.852254867553711
_cell_angle_alpha    120.49141910763466
_cell_angle_beta     89.90878941789354
_cell_angle_gamma    86.19193471384759

_space_group_name_H-M_alt    "P 1"
_space_group_IT_number       1

loop_
  _space_group_symop_operation_xyz
  'x, y, z'

loop_
  _atom_site_type_symbol
  _atom_site_label
  _atom_site_symmetry_multiplicity
  _atom_site_fract_x
  _atom_site_fract_y
  _atom_site_fract_z
  _atom_site_occupancy
  Dy  Dy1       1.0  0.0883718803524971  0.11053183674812317  0.598002016544342  1.0000
  Dy  Dy2       1.0  0.59181147813797  0.5997138619422913  0.377743124961853  1.0000
  Dy  Dy3       1.0  0.09239183366298676  0.5926680564880371  0.056661289185285534  1.0000
  Dy  Dy4       1.0  0.09298483282327652  0.11029747873544693  0.4625762104988098  1.0000
  Dy  Dy5       1.0  0.593406617641449  0.8099640607833862  0.3403108716011047  1.0000
  Tm  Tm1       1.0  0.5908322930335999  0.2892287075519562  0.7511615753173828  1.0000
  Zn  Zn1       1.0  0.3461471199989319  0.12990596890449524  0.8613418340682983  1.0000
