data_image0
_chemical_formula_structural       BDy3Tl3
_chemical_formula_sum              "B1 Dy3 Tl3"
_cell_length_a       4.658425687196903
_cell_length_b       5.515692449930973
_cell_length_c       5.4540815353393555
_cell_angle_alpha    114.70090772740491
_cell_angle_beta     96.34143120395045
_cell_angle_gamma    83.9925747623464

_space_group_name_H-M_alt    "P 1"
_space_group_IT_number       1

loop_
  _space_group_symop_operation_xyz
  'x, y, z'

loop_
  _atom_site_type_symbol
  _atom_site_label
  _atom_site_symmetry_multiplicity
  _atom_site_fract_x
  _atom_site_fract_y
  _atom_site_fract_z
  _atom_site_occupancy
  B   B1        1.0  0.5168389678001404  0.18857336044311523  0.17108044028282166  1.0000
  Dy  Dy1       1.0  0.553046464920044  0.12807385623455048  0.8720276355743408  1.0000
  Dy  Dy2       1.0  0.532601535320282  0.6853410005569458  0.1550198197364807  1.0000
  Dy  Dy3       1.0  0.4903733730316162  0.6921181678771973  0.6108399629592896  1.0000
  Tl  Tl1       1.0  0.7608949542045593  0.4306723475456238  0.47183987498283386  1.0000
  Tl  Tl2       1.0  0.173244446516037  0.8843660354614258  0.7286438941955566  1.0000
  Tl  Tl3       1.0  0.14626279473304749  0.15801207721233368  0.16511210799217224  1.0000
