data_image0
_chemical_formula_structural       Dy3MnSZn2
_chemical_formula_sum              "Dy3 Mn1 S1 Zn2"
_cell_length_a       6.063637770870939
_cell_length_b       4.181487944439574
_cell_length_c       5.739629745483398
_cell_angle_alpha    117.58467748503323
_cell_angle_beta     109.09558044958037
_cell_angle_gamma    128.77755491188057

_space_group_name_H-M_alt    "P 1"
_space_group_IT_number       1

loop_
  _space_group_symop_operation_xyz
  'x, y, z'

loop_
  _atom_site_type_symbol
  _atom_site_label
  _atom_site_symmetry_multiplicity
  _atom_site_fract_x
  _atom_site_fract_y
  _atom_site_fract_z
  _atom_site_occupancy
  Dy  Dy1       1.0  0.6821444034576416  0.5683063864707947  0.3413608074188233  1.0000
  Dy  Dy2       1.0  0.8946335911750793  0.21863111853599546  0.346853643655777  1.0000
  Dy  Dy3       1.0  0.20471160113811487  0.027342669665813394  0.3447660505771637  1.0000
  Mn  Mn1       1.0  0.1706509441137313  0.5706558227539061  0.892974317073822  1.0000
  S   S1        1.0  0.5500158667564392  0.7239060997962952  0.11365927010774621  1.0000
  Zn  Zn1       1.0  0.5271601676940918  0.6121838092803955  0.02391470968723306  1.0000
  Zn  Zn2       1.0  0.34812304377555836  0.260397970676422  0.6096724867820739  1.0000
