data_image0
_chemical_formula_structural       BaClLu10ORu
_chemical_formula_sum              "Ba1 Cl1 Lu10 O1 Ru1"
_cell_length_a       6.668296110111281
_cell_length_b       7.201053498026496
_cell_length_c       7.683725833892822
_cell_angle_alpha    62.6323996840155
_cell_angle_beta     62.26869449889581
_cell_angle_gamma    62.294983644876346

_space_group_name_H-M_alt    "P 1"
_space_group_IT_number       1

loop_
  _space_group_symop_operation_xyz
  'x, y, z'

loop_
  _atom_site_type_symbol
  _atom_site_label
  _atom_site_symmetry_multiplicity
  _atom_site_fract_x
  _atom_site_fract_y
  _atom_site_fract_z
  _atom_site_occupancy
  Ba  Ba1       1.0  0.7359555959701538  0.38828888535499567  0.8482262492179871  1.0000
  Cl  Cl1       1.0  0.864863097667694  0.5862038731575012  0.37860333919525146  1.0000
  Lu  Lu1       1.0  0.46130660176277155  0.17404340207576752  0.21014617383480072  1.0000
  Lu  Lu2       1.0  0.7774479389190674  0.3075827658176422  0.8964717388153076  1.0000
  Lu  Lu3       1.0  0.030767703428864514  0.8684991598129271  0.3307517766952515  1.0000
  Lu  Lu4       1.0  0.014061187393963335  0.37793928384780884  0.5368266701698303  1.0000
  Lu  Lu5       1.0  0.34932467341423035  0.6273618936538696  0.8782996535301208  1.0000
  Lu  Lu6       1.0  0.02811307273805142  0.20668075978755948  0.3837287724018097  1.0000
  Lu  Lu7       1.0  0.7297351956367493  0.8892043828964232  0.8258681893348694  1.0000
  Lu  Lu8       1.0  0.0023468732833862678  0.9009506106376647  0.13994565606117243  1.0000
  Lu  Lu9       1.0  0.4806960523128509  0.3826094567775726  0.323337197303772  1.0000
  Lu  Lu10      1.0  0.7785584330558777  0.7973580360412597  0.25151658058166504  1.0000
  O   O1        1.0  0.6403805017471313  0.14698255062103271  0.5687648057937622  1.0000
  Ru  Ru1       1.0  0.4515497982501983  0.6835225820541382  0.20612408220767975  1.0000
