data_image0
_chemical_formula_structural       BiCl2Lu8OZn2
_chemical_formula_sum              "Bi1 Cl2 Lu8 O1 Zn2"
_cell_length_a       6.455669003904542
_cell_length_b       6.787189483272917
_cell_length_c       7.436873435974121
_cell_angle_alpha    61.82221830726045
_cell_angle_beta     62.495975221566404
_cell_angle_gamma    60.950582928081566

_space_group_name_H-M_alt    "P 1"
_space_group_IT_number       1

loop_
  _space_group_symop_operation_xyz
  'x, y, z'

loop_
  _atom_site_type_symbol
  _atom_site_label
  _atom_site_symmetry_multiplicity
  _atom_site_fract_x
  _atom_site_fract_y
  _atom_site_fract_z
  _atom_site_occupancy
  Bi  Bi1       1.0  0.6650940179824829  0.665308952331543  0.811260461807251  1.0000
  Cl  Cl1       1.0  0.3313159644603729  0.21214868128299713  0.6938735842704773  1.0000
  Cl  Cl2       1.0  0.23140741884708405  0.4029768407344818  0.4023766815662384  1.0000
  Lu  Lu1       1.0  0.5244369506835938  0.19372990727424622  0.1797703355550766  1.0000
  Lu  Lu2       1.0  0.9590152502059937  0.3657534718513489  0.6941379308700562  1.0000
  Lu  Lu3       1.0  0.9266260862350464  0.1866564005613327  0.3079505264759063  1.0000
  Lu  Lu4       1.0  0.5144376158714294  0.43526384234428406  0.1318439394235611  1.0000
  Lu  Lu5       1.0  0.21068456768989563  0.6729339957237244  0.3986823856830597  1.0000
  Lu  Lu6       1.0  0.1782820075750351  0.9019443392753601  0.8889090418815613  1.0000
  Lu  Lu7       1.0  0.012272272258996964  0.4791712760925293  0.24756832420825958  1.0000
  Lu  Lu8       1.0  0.5133094787597656  0.9072376489639282  0.3994632363319397  1.0000
  O   O1        1.0  0.2852890193462372  0.6544732451438904  0.9515010714530945  1.0000
  Zn  Zn1       1.0  0.5188100337982178  0.9759714603424072  0.8930377960205078  1.0000
  Zn  Zn2       1.0  0.2182207554578781  0.6641837954521179  0.4158836603164673  1.0000
