data_image0
_chemical_formula_structural       ClLu10O2S
_chemical_formula_sum              "Cl1 Lu10 O2 S1"
_cell_length_a       6.766238897897016
_cell_length_b       7.000871420676992
_cell_length_c       7.108162879943848
_cell_angle_alpha    62.42692519340882
_cell_angle_beta     62.44303781235448
_cell_angle_gamma    63.269076613649524

_space_group_name_H-M_alt    "P 1"
_space_group_IT_number       1

loop_
  _space_group_symop_operation_xyz
  'x, y, z'

loop_
  _atom_site_type_symbol
  _atom_site_label
  _atom_site_symmetry_multiplicity
  _atom_site_fract_x
  _atom_site_fract_y
  _atom_site_fract_z
  _atom_site_occupancy
  Cl  Cl1       1.0  0.24833853542804718  0.5187941193580627  0.22013968229293823  1.0000
  Lu  Lu1       1.0  0.5632287859916687  0.9377441406249999  0.7785496711730957  1.0000
  Lu  Lu2       1.0  0.13902710378170013  0.6820219159126282  0.29796072840690613  1.0000
  Lu  Lu3       1.0  0.12944652140140533  0.691066324710846  0.7393220663070679  1.0000
  Lu  Lu4       1.0  0.137847900390625  0.7048110961914062  0.06507395207881933  1.0000
  Lu  Lu5       1.0  0.5701282620429993  0.5329423546791077  0.5759091377258301  1.0000
  Lu  Lu6       1.0  0.7535865902900696  0.8282844424247741  0.38683021068573  1.0000
  Lu  Lu7       1.0  0.6339960098266602  0.18939907848834991  0.7951045632362366  1.0000
  Lu  Lu8       1.0  0.9437999129295349  0.05425179004669189  0.29652091860771185  1.0000
  Lu  Lu9       1.0  0.24219414591789246  0.8069279193878174  0.5570597052574158  1.0000
  Lu  Lu10      1.0  0.4361701011657715  0.030924264341592785  0.7577589154243469  1.0000
  O   O1        1.0  0.4536093771457672  0.5512436628341675  0.817314624786377  1.0000
  O   O2        1.0  0.9764506220817566  0.32849833369255066  0.5842771530151367  1.0000
  S   S1        1.0  0.8207569122314453  0.19095884263515472  0.5229237079620361  1.0000
