data_image0
_chemical_formula_structural       Cu2Lu5O5Ru2
_chemical_formula_sum              "Cu2 Lu5 O5 Ru2"
_cell_length_a       6.2071311120603
_cell_length_b       6.500731243217443
_cell_length_c       5.781431198120117
_cell_angle_alpha    59.799461509013554
_cell_angle_beta     58.305978970529075
_cell_angle_gamma    59.00703009491109

_space_group_name_H-M_alt    "P 1"
_space_group_IT_number       1

loop_
  _space_group_symop_operation_xyz
  'x, y, z'

loop_
  _atom_site_type_symbol
  _atom_site_label
  _atom_site_symmetry_multiplicity
  _atom_site_fract_x
  _atom_site_fract_y
  _atom_site_fract_z
  _atom_site_occupancy
  Cu  Cu1       1.0  0.22099816799163818  0.8209859132766724  0.4094839990139008  1.0000
  Cu  Cu2       1.0  0.5171019434928894  0.4607868492603302  0.7366988658905029  1.0000
  Lu  Lu1       1.0  0.07999157160520554  0.5779674053192139  0.26087141036987305  1.0000
  Lu  Lu2       1.0  0.5303550958633423  0.5534996390342712  0.3305824100971222  1.0000
  Lu  Lu3       1.0  0.2719500958919525  0.31816157698631287  0.5753761529922485  1.0000
  Lu  Lu4       1.0  0.8047895431518555  0.09490408003330231  0.7580010294914246  1.0000
  Lu  Lu5       1.0  0.022963685914874077  0.06575558334589005  0.25564950704574585  1.0000
  O   O1        1.0  0.2176986187696457  0.4878827631473541  0.4178101122379303  1.0000
  O   O2        1.0  0.6613402366638184  0.09229200333356857  0.7090253233909607  1.0000
  O   O3        1.0  0.27874302864074707  0.22399099171161652  0.22818219661712646  1.0000
  O   O4        1.0  0.9161141514778137  0.44007086753845215  0.8604072332382202  1.0000
  O   O5        1.0  0.7248029708862305  0.6750432848930359  0.7768886685371399  1.0000
  Ru  Ru1       1.0  0.4092685878276825  0.854416012763977  0.988192081451416  1.0000
  Ru  Ru2       1.0  0.782471776008606  0.826607346534729  0.0780043676495552  1.0000
