data_image0
_chemical_formula_structural       Cl3Lu7ORuTlZr
_chemical_formula_sum              "Cl3 Lu7 O1 Ru1 Tl1 Zr1"
_cell_length_a       7.035116032064882
_cell_length_b       7.141947762430155
_cell_length_c       7.424172878265381
_cell_angle_alpha    59.00290991759117
_cell_angle_beta     61.61561640365308
_cell_angle_gamma    59.443226294705475

_space_group_name_H-M_alt    "P 1"
_space_group_IT_number       1

loop_
  _space_group_symop_operation_xyz
  'x, y, z'

loop_
  _atom_site_type_symbol
  _atom_site_label
  _atom_site_symmetry_multiplicity
  _atom_site_fract_x
  _atom_site_fract_y
  _atom_site_fract_z
  _atom_site_occupancy
  Cl  Cl1       1.0  0.20710019767284393  0.6629689931869507  0.8133972883224488  1.0000
  Cl  Cl2       1.0  0.3891921937465668  0.22751785814762115  0.2111637592315674  1.0000
  Cl  Cl3       1.0  0.31453415751457214  0.6524785161018372  0.693938136100769  1.0000
  Lu  Lu1       1.0  0.09812086075544357  0.9084568023681641  0.9407665729522706  1.0000
  Lu  Lu2       1.0  0.2503103017807007  0.23150548338890076  0.30990836024284363  1.0000
  Lu  Lu3       1.0  0.5053043365478516  0.7356929183006287  0.21601063013076785  1.0000
  Lu  Lu4       1.0  0.5898078083992004  0.4087551236152649  0.5732198357582092  1.0000
  Lu  Lu5       1.0  0.0930413156747818  0.9053925275802612  0.08350946009159088  1.0000
  Lu  Lu6       1.0  0.32568424940109253  0.6574692726135254  0.7461398243904114  1.0000
  Lu  Lu7       1.0  0.11029139161109924  0.39182183146476746  0.9619981646537782  1.0000
  O   O1        1.0  0.883830726146698  0.1349470317363739  0.012434760108590067  1.0000
  Ru  Ru1       1.0  0.37332820892333984  0.5533804893493652  0.32251718640327454  1.0000
  Tl  Tl1       1.0  0.7213792204856873  0.05469467490911484  0.3222157657146454  1.0000
  Zr  Zr1       1.0  0.08996210992336273  0.9156247973442078  0.19522237777709964  1.0000
