data_image0
_chemical_formula_structural       BiLu6O5TlTm
_chemical_formula_sum              "Bi1 Lu6 O5 Tl1 Tm1"
_cell_length_a       5.454388608545566
_cell_length_b       6.415792727225938
_cell_length_c       7.005557060241699
_cell_angle_alpha    90.269815060437
_cell_angle_beta     91.5996786974273
_cell_angle_gamma    88.95901656518214

_space_group_name_H-M_alt    "P 1"
_space_group_IT_number       1

loop_
  _space_group_symop_operation_xyz
  'x, y, z'

loop_
  _atom_site_type_symbol
  _atom_site_label
  _atom_site_symmetry_multiplicity
  _atom_site_fract_x
  _atom_site_fract_y
  _atom_site_fract_z
  _atom_site_occupancy
  Bi  Bi1       1.0  0.14491191506385803  0.020331218838691708  0.028114931657910347  1.0000
  Lu  Lu1       1.0  0.6375828385353088  0.023479042574763295  0.7376822829246521  1.0000
  Lu  Lu2       1.0  0.641272783279419  0.883099615573883  0.6723931431770325  1.0000
  Lu  Lu3       1.0  0.14935876429080963  0.7801693081855773  0.3576112985610962  1.0000
  Lu  Lu4       1.0  0.8355451822280884  0.48375764489173884  0.7090572714805603  1.0000
  Lu  Lu5       1.0  0.22436317801475525  0.5194177627563477  0.25118598341941833  1.0000
  Lu  Lu6       1.0  0.13086095452308655  0.7840323448181151  0.10304601490497589  1.0000
  O   O1        1.0  0.33004727959632874  0.3955347537994384  0.9664570093154907  1.0000
  O   O2        1.0  0.3495469093322754  0.5638867020606995  0.23821444809436798  1.0000
  O   O3        1.0  0.8242442607879639  0.25090691447257996  0.5655117034912109  1.0000
  O   O4        1.0  0.03911694884300232  0.83328378200531  0.857298731803894  1.0000
  O   O5        1.0  0.8502931594848633  0.363759696483612  0.05876236408948898  1.0000
  Tl  Tl1       1.0  0.4022202491760254  0.5217517018318176  0.8832555413246155  1.0000
  Tm  Tm1       1.0  0.8455184698104858  0.022688565775752064  0.12396303564310074  1.0000
