data_image0
_chemical_formula_structural       I3O3Ti3
_chemical_formula_sum              "I3 O3 Ti3"
_cell_length_a       5.252732458333997
_cell_length_b       4.216292667986942
_cell_length_c       6.072750091552734
_cell_angle_alpha    124.99289004758803
_cell_angle_beta     113.60584230596739
_cell_angle_gamma    111.88767362643308

_space_group_name_H-M_alt    "P 1"
_space_group_IT_number       1

loop_
  _space_group_symop_operation_xyz
  'x, y, z'

loop_
  _atom_site_type_symbol
  _atom_site_label
  _atom_site_symmetry_multiplicity
  _atom_site_fract_x
  _atom_site_fract_y
  _atom_site_fract_z
  _atom_site_occupancy
  I   I1        1.0  0.13983000814914698  0.13063597679138172  0.451760321855545  1.0000
  I   I2        1.0  0.49351638555526733  0.2931691408157349  0.6334541440010071  1.0000
  I   I3        1.0  0.9039953351020813  0.6575426459312438  0.3775040805339813  1.0000
  O   O1        1.0  0.17111259698867798  0.6957065463066101  0.9353095293045044  1.0000
  O   O2        1.0  0.21106714010238656  0.9898818731307986  0.9577532410621644  1.0000
  O   O3        1.0  0.48086458444595337  0.19943638145923617  0.7153154611587524  1.0000
  Ti  Ti1       1.0  0.4006358385086058  0.3442960083484647  0.6501827836036681  1.0000
  Ti  Ti2       1.0  0.49613437056541443  0.6170140504837037  0.7218961715698243  1.0000
  Ti  Ti3       1.0  0.8017265200614929  0.8627745509147644  0.07866203784942628  1.0000
