data_image0
_chemical_formula_structural       I2O4Ti3
_chemical_formula_sum              "I2 O4 Ti3"
_cell_length_a       4.9606496052089355
_cell_length_b       6.189602214310256
_cell_length_c       7.074565887451172
_cell_angle_alpha    112.50646037855658
_cell_angle_beta     111.32857578877912
_cell_angle_gamma    89.80881573032455

_space_group_name_H-M_alt    "P 1"
_space_group_IT_number       1

loop_
  _space_group_symop_operation_xyz
  'x, y, z'

loop_
  _atom_site_type_symbol
  _atom_site_label
  _atom_site_symmetry_multiplicity
  _atom_site_fract_x
  _atom_site_fract_y
  _atom_site_fract_z
  _atom_site_occupancy
  I   I1        1.0  0.4930553138256073  0.4392608404159546  0.7902677059173584  1.0000
  I   I2        1.0  0.013394443318247795  0.8839940428733826  0.6540632247924805  1.0000
  O   O1        1.0  0.24750761687755585  0.14784719049930573  0.28186115622520447  1.0000
  O   O2        1.0  0.1716468632221222  0.3349485397338867  0.5690164566040039  1.0000
  O   O3        1.0  0.7714693546295166  0.6859039068222046  0.38175302743911743  1.0000
  O   O4        1.0  0.022312885150313377  0.19477388262748718  0.8240139484405518  1.0000
  Ti  Ti1       1.0  0.5637708306312561  0.43161436915397644  0.9095265865325928  1.0000
  Ti  Ti2       1.0  0.23765231668949127  0.11170515418052673  0.6177798509597778  1.0000
  Ti  Ti3       1.0  0.2612135708332062  0.9493241906166077  0.31570005416870117  1.0000
