data_image0
_chemical_formula_structural       I3O2Ti4
_chemical_formula_sum              "I3 O2 Ti4"
_cell_length_a       5.50038632167135
_cell_length_b       4.944237151085722
_cell_length_c       7.230501174926758
_cell_angle_alpha    124.30002086772616
_cell_angle_beta     113.77116321425831
_cell_angle_gamma    88.41318574862018

_space_group_name_H-M_alt    "P 1"
_space_group_IT_number       1

loop_
  _space_group_symop_operation_xyz
  'x, y, z'

loop_
  _atom_site_type_symbol
  _atom_site_label
  _atom_site_symmetry_multiplicity
  _atom_site_fract_x
  _atom_site_fract_y
  _atom_site_fract_z
  _atom_site_occupancy
  I   I1        1.0  0.7187075614929199  0.5667064189910888  0.6368025541305542  1.0000
  I   I2        1.0  0.26750648021698  0.6762648224830626  0.8649308085441589  1.0000
  I   I3        1.0  0.2237254083156586  0.16059808433055875  0.3086918592453003  1.0000
  O   O1        1.0  0.6971116065979004  0.49881634116172785  0.4956386089324951  1.0000
  O   O2        1.0  0.8160042762756349  0.41163948178291315  0.08219427615404129  1.0000
  Ti  Ti1       1.0  0.9020166993141175  0.9192941188812255  0.35936295986175537  1.0000
  Ti  Ti2       1.0  0.470228523015976  0.9375873208045958  0.14496272802352905  1.0000
  Ti  Ti3       1.0  0.9345673918724061  0.6631632447242736  0.11540602147579193  1.0000
  Ti  Ti4       1.0  0.15808261930942535  0.1946972161531448  0.9641554355621338  1.0000
