data_image0
_chemical_formula_structural       IO3PTi4
_chemical_formula_sum              "I1 O3 P1 Ti4"
_cell_length_a       5.1381453255095355
_cell_length_b       5.628007140014128
_cell_length_c       6.811929225921631
_cell_angle_alpha    112.71309204676209
_cell_angle_beta     112.6391608067576
_cell_angle_gamma    91.1223557422687

_space_group_name_H-M_alt    "P 1"
_space_group_IT_number       1

loop_
  _space_group_symop_operation_xyz
  'x, y, z'

loop_
  _atom_site_type_symbol
  _atom_site_label
  _atom_site_symmetry_multiplicity
  _atom_site_fract_x
  _atom_site_fract_y
  _atom_site_fract_z
  _atom_site_occupancy
  I   I1        1.0  0.3534684479236603  0.38343337178230286  0.3261311948299408  1.0000
  O   O1        1.0  0.5103663802146912  0.031124241650104523  0.08581500500440598  1.0000
  O   O2        1.0  0.16461281478405  0.5999746322631836  0.582488477230072  1.0000
  O   O3        1.0  0.8674769401550293  0.38449448347091675  0.32524779438972473  1.0000
  P   P1        1.0  0.9922779202461243  0.14795003831386566  0.1247266009449959  1.0000
  Ti  Ti1       1.0  0.7899933457374573  0.1264888346195221  0.6193954944610596  1.0000
  Ti  Ti2       1.0  0.37216314673423767  0.11884787678718567  0.8642174005508424  1.0000
  Ti  Ti3       1.0  0.12403661012649536  0.7373070120811462  0.5876899361610413  1.0000
  Ti  Ti4       1.0  0.8728280663490295  0.6343830227851868  0.31997278332710266  1.0000
