data_image0
_chemical_formula_structural       Ge7I2
_chemical_formula_sum              "Ge7 I2"
_cell_length_a       5.6496351185359375
_cell_length_b       5.999460119411387
_cell_length_c       7.087578773498535
_cell_angle_alpha    90.12044611352057
_cell_angle_beta     92.52534613970954
_cell_angle_gamma    115.00890815427498

_space_group_name_H-M_alt    "P 1"
_space_group_IT_number       1

loop_
  _space_group_symop_operation_xyz
  'x, y, z'

loop_
  _atom_site_type_symbol
  _atom_site_label
  _atom_site_symmetry_multiplicity
  _atom_site_fract_x
  _atom_site_fract_y
  _atom_site_fract_z
  _atom_site_occupancy
  Ge  Ge1       1.0  0.8664153814315795  0.5761778950691223  0.7051489949226378  1.0000
  Ge  Ge2       1.0  0.3904851675033569  0.5284876227378845  0.4766122102737426  1.0000
  Ge  Ge3       1.0  0.8608504533767699  0.8480601310729979  0.04621119797229766  1.0000
  Ge  Ge4       1.0  0.5748324990272522  0.6746613383293152  0.9633286595344542  1.0000
  Ge  Ge5       1.0  0.37582603096961964  0.9387237429618834  0.5625210404396057  1.0000
  Ge  Ge6       1.0  0.1539018601179123  0.6163686513900757  0.4687278568744659  1.0000
  Ge  Ge7       1.0  0.5402387380599976  0.28931620717048645  0.8342228531837462  1.0000
  I   I1        1.0  0.09405731409788123  0.9161090254783629  0.6569972634315491  1.0000
  I   I2        1.0  0.871705651283264  0.08829440176486969  0.9633960127830504  1.0000
