data_image0
_chemical_formula_structural       ClGe5TeTl2
_chemical_formula_sum              "Cl1 Ge5 Te1 Tl2"
_cell_length_a       6.907074581044772
_cell_length_b       6.726475448248499
_cell_length_c       6.764438152313232
_cell_angle_alpha    108.37286516844236
_cell_angle_beta     110.93550670838682
_cell_angle_gamma    98.62457955199902

_space_group_name_H-M_alt    "P 1"
_space_group_IT_number       1

loop_
  _space_group_symop_operation_xyz
  'x, y, z'

loop_
  _atom_site_type_symbol
  _atom_site_label
  _atom_site_symmetry_multiplicity
  _atom_site_fract_x
  _atom_site_fract_y
  _atom_site_fract_z
  _atom_site_occupancy
  Cl  Cl1       1.0  0.6545711755752563  0.01427365466952324  0.6046951413154602  1.0000
  Ge  Ge1       1.0  0.17772766947746277  0.4806687831878662  0.3757016360759735  1.0000
  Ge  Ge2       1.0  0.1060781329870224  0.3470456004142761  0.17616039514541626  1.0000
  Ge  Ge3       1.0  0.6007242202758789  0.7611021399497986  0.1590920239686966  1.0000
  Ge  Ge4       1.0  0.6716175675392151  0.951379656791687  0.3489636182785034  1.0000
  Ge  Ge5       1.0  0.6832610368728638  0.5045043230056763  0.4914203286170959  1.0000
  Te  Te1       1.0  0.6506440043449402  0.5335044860839844  0.8412234187126159  1.0000
  Tl  Tl1       1.0  0.5931785702705383  0.10055755823850632  0.13291314244270325  1.0000
  Tl  Tl2       1.0  0.21288233995437622  0.7978924512863159  0.7177051901817322  1.0000
