data_image0
_chemical_formula_structural       ClGe6NTc
_chemical_formula_sum              "Cl1 Ge6 N1 Tc1"
_cell_length_a       5.057281924029396
_cell_length_b       5.892909241688311
_cell_length_c       6.940540313720703
_cell_angle_alpha    88.86271463138131
_cell_angle_beta     89.34932635141135
_cell_angle_gamma    89.44274636223709

_space_group_name_H-M_alt    "P 1"
_space_group_IT_number       1

loop_
  _space_group_symop_operation_xyz
  'x, y, z'

loop_
  _atom_site_type_symbol
  _atom_site_label
  _atom_site_symmetry_multiplicity
  _atom_site_fract_x
  _atom_site_fract_y
  _atom_site_fract_z
  _atom_site_occupancy
  Cl  Cl1       1.0  0.6825674176216125  0.585308313369751  0.324840247631073  1.0000
  Ge  Ge1       1.0  0.347101628780365  0.4362596571445465  0.45369988679885864  1.0000
  Ge  Ge2       1.0  0.15710875391960144  0.513124942779541  0.09677525609731674  1.0000
  Ge  Ge3       1.0  0.6810228228569031  0.8905700445175171  0.9653244018554688  1.0000
  Ge  Ge4       1.0  0.1665847897529602  0.576167106628418  0.7621016502380371  1.0000
  Ge  Ge5       1.0  0.6733113527297974  0.9884599447250366  0.8851892948150635  1.0000
  Ge  Ge6       1.0  0.16826240718364716  0.8049169778823853  0.3578195571899414  1.0000
  N   N1        1.0  0.677304744720459  0.7835645079612732  0.7042405009269714  1.0000
  Tc  Tc1       1.0  0.6722441911697388  0.6131717562675476  0.8256067037582397  1.0000
