data_image0
_chemical_formula_structural       ClGe6IP
_chemical_formula_sum              "Cl1 Ge6 I1 P1"
_cell_length_a       6.265831735722162
_cell_length_b       6.215247759300403
_cell_length_c       6.779421329498291
_cell_angle_alpha    89.65010133360884
_cell_angle_beta     88.31848124430024
_cell_angle_gamma    90.4059500121883

_space_group_name_H-M_alt    "P 1"
_space_group_IT_number       1

loop_
  _space_group_symop_operation_xyz
  'x, y, z'

loop_
  _atom_site_type_symbol
  _atom_site_label
  _atom_site_symmetry_multiplicity
  _atom_site_fract_x
  _atom_site_fract_y
  _atom_site_fract_z
  _atom_site_occupancy
  Cl  Cl1       1.0  0.4789721369743347  0.27573493123054504  0.2479480504989624  1.0000
  Ge  Ge1       1.0  0.6230221390724182  0.42462944984436035  0.24079306423664093  1.0000
  Ge  Ge2       1.0  0.38568830490112305  0.3096104860305786  0.22662211954593658  1.0000
  Ge  Ge3       1.0  0.8768216371536255  0.8251105546951294  0.37861937284469604  1.0000
  Ge  Ge4       1.0  0.49039000272750854  0.29102346301078796  0.020061679184436798  1.0000
  Ge  Ge5       1.0  0.9096108675003052  0.5717223882675171  0.9429980516433716  1.0000
  Ge  Ge6       1.0  0.3912966251373291  0.16256900131702423  0.4102957546710968  1.0000
  I   I1        1.0  0.9623761177062988  0.4321441948413849  0.6400456428527832  1.0000
  P   P1        1.0  0.4325926899909973  0.5896767377853394  0.5895729064941406  1.0000
