data_image0
_chemical_formula_structural       FLu7O6S2
_chemical_formula_sum              "F1 Lu7 O6 S2"
_cell_length_a       6.679966837402245
_cell_length_b       6.844918169951908
_cell_length_c       7.292886257171631
_cell_angle_alpha    61.09546491405975
_cell_angle_beta     63.104117083026445
_cell_angle_gamma    59.805639252808604

_space_group_name_H-M_alt    "P 1"
_space_group_IT_number       1

loop_
  _space_group_symop_operation_xyz
  'x, y, z'

loop_
  _atom_site_type_symbol
  _atom_site_label
  _atom_site_symmetry_multiplicity
  _atom_site_fract_x
  _atom_site_fract_y
  _atom_site_fract_z
  _atom_site_occupancy
  F   F1        1.0  0.0803152322769165  0.16587167978286743  0.6508840322494507  1.0000
  Lu  Lu1       1.0  0.455220103263855  0.36220401525497437  0.9227293729782106  1.0000
  Lu  Lu2       1.0  0.6440079808235168  0.1737551987171173  0.6801586747169495  1.0000
  Lu  Lu3       1.0  0.11875970661640167  0.5444059371948242  0.18581607937812805  1.0000
  Lu  Lu4       1.0  0.6908389329910278  0.1741168200969696  0.3619717061519623  1.0000
  Lu  Lu5       1.0  0.25806498527526855  0.8363180756568909  0.5663446187973022  1.0000
  Lu  Lu6       1.0  0.768133819103241  0.5431472063064575  0.01914897747337818  1.0000
  Lu  Lu7       1.0  0.7721645832061768  0.8016470074653625  0.6199535131454468  1.0000
  O   O1        1.0  0.30997151136398315  0.4644518792629242  0.6621635556221008  1.0000
  O   O2        1.0  0.9718900918960571  0.3158800005912781  0.4242694377899171  1.0000
  O   O3        1.0  0.45267239212989807  0.24331286549568176  0.9970000982284547  1.0000
  O   O4        1.0  0.9529320597648621  0.05564478784799576  0.258706659078598  1.0000
  O   O5        1.0  0.3788217604160309  0.47639063000679016  0.5022947788238525  1.0000
  O   O6        1.0  0.9614806175231934  0.807201087474823  0.761675238609314  1.0000
  S   S1        1.0  0.08370523154735565  0.6504288911819458  0.4472136199474335  1.0000
  S   S2        1.0  0.7098432183265686  0.1079009473323822  0.28830400109291077  1.0000
