data_image0
_chemical_formula_structural       FLi3Lu4O6S2
_chemical_formula_sum              "F1 Li3 Lu4 O6 S2"
_cell_length_a       6.042932596271529
_cell_length_b       7.988451721295841
_cell_length_c       8.655288696289062
_cell_angle_alpha    111.76538187538638
_cell_angle_beta     109.14359385495588
_cell_angle_gamma    90.55006771125467

_space_group_name_H-M_alt    "P 1"
_space_group_IT_number       1

loop_
  _space_group_symop_operation_xyz
  'x, y, z'

loop_
  _atom_site_type_symbol
  _atom_site_label
  _atom_site_symmetry_multiplicity
  _atom_site_fract_x
  _atom_site_fract_y
  _atom_site_fract_z
  _atom_site_occupancy
  F   F1        1.0  0.3948777914047241  0.015401878394186495  0.23932817578315735  1.0000
  Li  Li1       1.0  0.16019038856029508  0.9524228572845458  0.3993647098541259  1.0000
  Li  Li2       1.0  0.35387125611305237  0.5516261458396912  0.6899241805076599  1.0000
  Li  Li3       1.0  0.9974563717842102  0.010840903967618942  0.6162689328193665  1.0000
  Lu  Lu1       1.0  0.2585999667644501  0.07510773092508316  0.3344487249851227  1.0000
  Lu  Lu2       1.0  0.48853543400764465  0.6355662941932678  0.5830196738243103  1.0000
  Lu  Lu3       1.0  0.6125328540802002  0.44932603836059565  0.913348376750946  1.0000
  Lu  Lu4       1.0  0.9155451059341431  0.0352386012673378  0.1517125964164734  1.0000
  O   O1        1.0  0.7108809351921082  0.14861920475959778  0.7318541407585144  1.0000
  O   O2        1.0  0.5966013669967651  0.7070549726486206  0.9668726325035095  1.0000
  O   O3        1.0  0.41488876938819885  0.17771752178668976  0.5708650946617126  1.0000
  O   O4        1.0  0.03760720044374466  0.6598629355430603  0.12619334459304804  1.0000
  O   O5        1.0  0.6130744814872742  0.3662247657775879  0.43979889154434204  1.0000
  O   O6        1.0  0.6227877736091614  0.8742342591285706  0.4453961849212646  1.0000
  S   S1        1.0  0.5654338002204895  0.9606341719627379  0.5186966061592102  1.0000
  S   S2        1.0  0.5710582733154297  0.8254836201667786  0.08386648446321487  1.0000
