data_image0
_chemical_formula_structural       F2Fe4O5S5
_chemical_formula_sum              "F2 Fe4 O5 S5"
_cell_length_a       6.348669201324855
_cell_length_b       6.772312676179002
_cell_length_c       6.844059467315674
_cell_angle_alpha    67.22644401038056
_cell_angle_beta     62.781269444703774
_cell_angle_gamma    62.70372797476959

_space_group_name_H-M_alt    "P 1"
_space_group_IT_number       1

loop_
  _space_group_symop_operation_xyz
  'x, y, z'

loop_
  _atom_site_type_symbol
  _atom_site_label
  _atom_site_symmetry_multiplicity
  _atom_site_fract_x
  _atom_site_fract_y
  _atom_site_fract_z
  _atom_site_occupancy
  F   F1        1.0  0.06952299177646637  0.5320653319358826  0.6668325066566467  1.0000
  F   F2        1.0  0.754588782787323  0.31110331416130066  0.20941981673240662  1.0000
  Fe  Fe1       1.0  0.19186566770076752  0.7822780013084412  0.4711027145385742  1.0000
  Fe  Fe2       1.0  0.6810974478721619  0.7784877419471741  0.05029217153787613  1.0000
  Fe  Fe3       1.0  0.6874244809150696  0.28712713718414307  0.2889191210269928  1.0000
  Fe  Fe4       1.0  0.18567825853824615  0.7790270447731018  0.7976583242416382  1.0000
  O   O1        1.0  0.3060517907142639  0.315217524766922  0.47990599274635315  1.0000
  O   O2        1.0  0.5542219281196594  0.012019559741020203  0.9663258790969849  1.0000
  O   O3        1.0  0.2875126004219055  0.4869683086872101  0.8550287485122681  1.0000
  O   O4        1.0  0.029795903712511063  0.996624767780304  0.9678948521614077  1.0000
  O   O5        1.0  0.7642059326171875  0.9316584467887878  0.8836395144462585  1.0000
  S   S1        1.0  0.5580143332481384  0.011408518068492413  0.6658772826194763  1.0000
  S   S2        1.0  0.0635843276977539  0.5225720405578613  0.5297620892524719  1.0000
  S   S3        1.0  0.5759294033050537  0.016670197248458862  0.6546978950500488  1.0000
  S   S4        1.0  0.16243527829647064  0.2750318944454193  0.25884079933166504  1.0000
  S   S5        1.0  0.1009676530957222  0.9945335388183594  0.8318869471549988  1.0000
