data_image0
_chemical_formula_structural       F2Lu3O7S3Sm
_chemical_formula_sum              "F2 Lu3 O7 S3 Sm1"
_cell_length_a       6.568263146916739
_cell_length_b       6.837256970565054
_cell_length_c       6.877718448638916
_cell_angle_alpha    64.0688422455235
_cell_angle_beta     64.03065546447066
_cell_angle_gamma    62.377278068255784

_space_group_name_H-M_alt    "P 1"
_space_group_IT_number       1

loop_
  _space_group_symop_operation_xyz
  'x, y, z'

loop_
  _atom_site_type_symbol
  _atom_site_label
  _atom_site_symmetry_multiplicity
  _atom_site_fract_x
  _atom_site_fract_y
  _atom_site_fract_z
  _atom_site_occupancy
  F   F1        1.0  0.6763017177581787  0.8294650912284851  0.8396442532539368  1.0000
  F   F2        1.0  0.6011989116668701  0.004202424082905054  0.34682759642601  1.0000
  Lu  Lu1       1.0  0.8573105335235596  0.41239944100379944  0.9410692453384399  1.0000
  Lu  Lu2       1.0  0.27743569016456604  0.6433140635490417  0.07382089644670486  1.0000
  Lu  Lu3       1.0  0.8307986855506897  0.5048268437385559  0.36546656489372253  1.0000
  O   O1        1.0  0.05218018963932991  0.45770320296287537  0.3447217643260956  1.0000
  O   O2        1.0  0.6068835854530334  0.29035696387290955  0.17281880974769592  1.0000
  O   O3        1.0  0.2793441116809845  0.14495019614696503  0.8083251118659973  1.0000
  O   O4        1.0  0.5843828916549683  0.5260627269744873  0.4123232364654541  1.0000
  O   O5        1.0  0.5629873275756836  0.48513832688331604  0.8592071533203125  1.0000
  O   O6        1.0  0.17143835127353668  0.4576447904109955  0.8521192669868469  1.0000
  O   O7        1.0  0.8374446034431458  0.033060528337955475  0.9140990972518921  1.0000
  S   S1        1.0  0.7476285696029663  0.7675502300262451  0.6208571195602417  1.0000
  S   S2        1.0  0.3479268550872803  0.17365878820419312  0.3722822070121765  1.0000
  S   S3        1.0  0.8567606806755066  0.9982671141624451  0.8359686136245728  1.0000
  Sm  Sm1       1.0  0.3783849775791168  0.9948939085006714  0.671272873878479  1.0000
