data_image0
_chemical_formula_structural       FLu4MnO6S4
_chemical_formula_sum              "F1 Lu4 Mn1 O6 S4"
_cell_length_a       6.72047067740691
_cell_length_b       6.846880346523238
_cell_length_c       7.422102451324463
_cell_angle_alpha    66.21202851912464
_cell_angle_beta     64.57124306582426
_cell_angle_gamma    62.85446604113747

_space_group_name_H-M_alt    "P 1"
_space_group_IT_number       1

loop_
  _space_group_symop_operation_xyz
  'x, y, z'

loop_
  _atom_site_type_symbol
  _atom_site_label
  _atom_site_symmetry_multiplicity
  _atom_site_fract_x
  _atom_site_fract_y
  _atom_site_fract_z
  _atom_site_occupancy
  F   F1        1.0  0.13145504891872406  0.34448930621147156  0.6092686653137208  1.0000
  Lu  Lu1       1.0  0.8974266052246094  0.539962112903595  0.9829180240631105  1.0000
  Lu  Lu2       1.0  0.542555034160614  0.8110507726669312  0.2232104539871216  1.0000
  Lu  Lu3       1.0  0.4320957064628601  0.09242468327283859  0.003191203344613314  1.0000
  Lu  Lu4       1.0  0.42306220531463623  0.1992829144001007  0.04849717020988465  1.0000
  Mn  Mn1       1.0  0.8421491384506226  0.645111083984375  0.350915402173996  1.0000
  O   O1        1.0  0.5033868551254272  0.2038409262895584  0.3623053133487702  1.0000
  O   O2        1.0  0.6720888018608093  0.804216206073761  0.06917570531368256  1.0000
  O   O3        1.0  0.9097403883934021  0.08709326386451721  0.8238099217414857  1.0000
  O   O4        1.0  0.055706337094306946  0.8381831645965576  0.1645840555429459  1.0000
  O   O5        1.0  0.4157469868659973  0.10041283816099167  0.7347343564033509  1.0000
  O   O6        1.0  0.677952229976654  0.8243343830108643  0.8578405380249025  1.0000
  S   S1        1.0  0.7173112034797668  0.507888674736023  0.6122374534606935  1.0000
  S   S2        1.0  0.23244884610176086  0.6644647717475891  0.358204871416092  1.0000
  S   S3        1.0  0.23121759295463562  0.36476024985313416  0.839676320552826  1.0000
  S   S4        1.0  0.2416960597038269  0.5183163285255432  0.844856083393097  1.0000
