data_image0
_chemical_formula_structural       FFe4O6S4Sm
_chemical_formula_sum              "F1 Fe4 O6 S4 Sm1"
_cell_length_a       5.952107447267223
_cell_length_b       6.3736581133495145
_cell_length_c       6.3846611976623535
_cell_angle_alpha    112.14448844587552
_cell_angle_beta     106.45936101717867
_cell_angle_gamma    90.7653875362262

_space_group_name_H-M_alt    "P 1"
_space_group_IT_number       1

loop_
  _space_group_symop_operation_xyz
  'x, y, z'

loop_
  _atom_site_type_symbol
  _atom_site_label
  _atom_site_symmetry_multiplicity
  _atom_site_fract_x
  _atom_site_fract_y
  _atom_site_fract_z
  _atom_site_occupancy
  F   F1        1.0  0.25457268953323364  0.30160534381866455  0.17655645310878754  1.0000
  Fe  Fe1       1.0  0.51394122838974  0.00829130969941616  0.25514739751815796  1.0000
  Fe  Fe2       1.0  0.5005456805229187  0.4566829800605774  0.4159177839756012  1.0000
  Fe  Fe3       1.0  0.0066558802500367165  0.49895718693733215  0.6415011286735535  1.0000
  Fe  Fe4       1.0  0.26472243666648865  0.7988642454147339  0.8186379671096802  1.0000
  O   O1        1.0  0.2770582437515259  0.7952170372009277  0.44840049743652344  1.0000
  O   O2        1.0  0.6680982112884521  0.35576459765434265  0.43307361006736755  1.0000
  O   O3        1.0  0.9855878353118896  0.9642727375030518  0.6661779284477234  1.0000
  O   O4        1.0  0.646181583404541  0.002553231781348586  0.8859613537788391  1.0000
  O   O5        1.0  0.6811040043830872  0.49514588713645935  0.5361112952232361  1.0000
  O   O6        1.0  0.9477116465568542  0.007435498759150505  0.9731477499008179  1.0000
  S   S1        1.0  0.011286813765764236  0.4810050129890442  0.24747706949710846  1.0000
  S   S2        1.0  0.9040632247924805  0.6692655682563782  0.44178470969200134  1.0000
  S   S3        1.0  0.49755391478538513  0.9794318079948425  0.9524646401405334  1.0000
  S   S4        1.0  0.0004825592041015625  0.48734337091445923  0.30992183089256287  1.0000
  Sm  Sm1       1.0  0.7766785025596619  0.7603864073753357  0.38829684257507324  1.0000
