data_image0
_chemical_formula_structural       CoDy7HTbZn
_chemical_formula_sum              "Co1 Dy7 H1 Tb1 Zn1"
_cell_length_a       5.5269188184428035
_cell_length_b       7.319461929853478
_cell_length_c       7.6330413818359375
_cell_angle_alpha    123.26252340450513
_cell_angle_beta     90.45148714009142
_cell_angle_gamma    88.762456292005

_space_group_name_H-M_alt    "P 1"
_space_group_IT_number       1

loop_
  _space_group_symop_operation_xyz
  'x, y, z'

loop_
  _atom_site_type_symbol
  _atom_site_label
  _atom_site_symmetry_multiplicity
  _atom_site_fract_x
  _atom_site_fract_y
  _atom_site_fract_z
  _atom_site_occupancy
  Co  Co1       1.0  0.40134134888648987  0.6647788286209106  0.13575042784214011  1.0000
  Dy  Dy1       1.0  0.917469322681427  0.5354403257369995  0.44100499153137196  1.0000
  Dy  Dy2       1.0  0.9003572463989258  0.945599377155304  0.025505121797323164  1.0000
  Dy  Dy3       1.0  0.4028812050819397  0.3295530676841736  0.43259757757186884  1.0000
  Dy  Dy4       1.0  0.905747652053833  0.8728139400482178  0.26686781644821156  1.0000
  Dy  Dy5       1.0  0.40317171812057495  0.10457342863082886  0.13710583746433255  1.0000
  Dy  Dy6       1.0  0.4030236005783081  0.3716723322868347  0.3862073421478271  1.0000
  Dy  Dy7       1.0  0.9028010368347168  0.7319051027297974  0.253738135099411  1.0000
  H   H1        1.0  0.8982434272766113  0.8912081122398376  0.045763052999973235  1.0000
  Tb  Tb1       1.0  0.9105463624000549  0.5966405272483826  0.6661224961280822  1.0000
  Zn  Zn1       1.0  0.4037654995918274  0.48642170429229736  0.22342883050441736  1.0000
