data_image0
_chemical_formula_structural       Dy7PtTbVZn
_chemical_formula_sum              "Dy7 Pt1 Tb1 V1 Zn1"
_cell_length_a       6.360827558069731
_cell_length_b       6.607705608229328
_cell_length_c       7.354228496551514
_cell_angle_alpha    118.86401141416025
_cell_angle_beta     111.98634438048727
_cell_angle_gamma    90.01838840695584

_space_group_name_H-M_alt    "P 1"
_space_group_IT_number       1

loop_
  _space_group_symop_operation_xyz
  'x, y, z'

loop_
  _atom_site_type_symbol
  _atom_site_label
  _atom_site_symmetry_multiplicity
  _atom_site_fract_x
  _atom_site_fract_y
  _atom_site_fract_z
  _atom_site_occupancy
  Dy  Dy1       1.0  0.15335668623447418  0.7752386331558228  0.6235767602920531  1.0000
  Dy  Dy2       1.0  0.14383968710899353  0.7422317266464233  0.789178967475891  1.0000
  Dy  Dy3       1.0  0.1659131497144699  0.9693678617477417  0.8445785045623778  1.0000
  Dy  Dy4       1.0  0.956690013408661  0.4224313497543335  0.9101110100746154  1.0000
  Dy  Dy5       1.0  0.46294686198234564  0.7559466361999512  0.11532603949308401  1.0000
  Dy  Dy6       1.0  0.47550529241561895  0.2395896017551422  0.15612562000751493  1.0000
  Dy  Dy7       1.0  0.6487874388694763  0.9465339183807373  0.9161930680274962  1.0000
  Pt  Pt1       1.0  0.6404225826263428  0.5280498266220093  0.9859222173690795  1.0000
  Tb  Tb1       1.0  0.957937777042389  0.9257358908653259  0.5396385788917542  1.0000
  V   V1        1.0  0.6532878875732422  0.9706608057022095  0.8542281389236449  1.0000
  Zn  Zn1       1.0  0.47255045175552374  0.7081474661827087  0.4494803845882415  1.0000
