data_image0
_chemical_formula_structural       AlCaDy4HIPtTbZn
_chemical_formula_sum              "Al1 Ca1 Dy4 H1 I1 Pt1 Tb1 Zn1"
_cell_length_a       5.492225653980756
_cell_length_b       6.936186438570468
_cell_length_c       7.139980316162109
_cell_angle_alpha    125.14973158590614
_cell_angle_beta     89.37147596542614
_cell_angle_gamma    88.86996038935857

_space_group_name_H-M_alt    "P 1"
_space_group_IT_number       1

loop_
  _space_group_symop_operation_xyz
  'x, y, z'

loop_
  _atom_site_type_symbol
  _atom_site_label
  _atom_site_symmetry_multiplicity
  _atom_site_fract_x
  _atom_site_fract_y
  _atom_site_fract_z
  _atom_site_occupancy
  Al  Al1       1.0  0.9911457300186157  0.01427004672586918  0.2907622456550598  1.0000
  Ca  Ca1       1.0  0.4923885762691498  0.16987837851047516  0.8809709548950196  1.0000
  Dy  Dy1       1.0  0.4906995892524719  0.17488282918930054  0.0170552544295788  1.0000
  Dy  Dy2       1.0  0.9924724698066711  0.019291451200842857  0.12331265956163408  1.0000
  Dy  Dy3       1.0  0.994978666305542  0.5276808142662048  0.11432205140590675  1.0000
  Dy  Dy4       1.0  0.4909725487232208  0.12183576822280885  0.8846826553344728  1.0000
  H   H1        1.0  0.4936700463294983  0.469465583562851  0.061834957450628315  1.0000
  I   I1        1.0  0.988722026348114  0.3620799779891968  0.11506321281194691  1.0000
  Pt  Pt1       1.0  0.9970113635063171  0.5228592157363892  0.24780571460723885  1.0000
  Tb  Tb1       1.0  0.49206358194351196  0.4253381490707398  0.4148330986499787  1.0000
  Zn  Zn1       1.0  0.4909159541130066  0.29106059670448303  0.38903400301933294  1.0000
