data_image0
_chemical_formula_structural       Ag5Mg6
_chemical_formula_sum              "Ag5 Mg6"
_cell_length_a       5.907559035848299
_cell_length_b       5.5525317757084265
_cell_length_c       5.6480584144592285
_cell_angle_alpha    89.44001422634908
_cell_angle_beta     89.1721280213437
_cell_angle_gamma    90.07739101911666

_space_group_name_H-M_alt    "P 1"
_space_group_IT_number       1

loop_
  _space_group_symop_operation_xyz
  'x, y, z'

loop_
  _atom_site_type_symbol
  _atom_site_label
  _atom_site_symmetry_multiplicity
  _atom_site_fract_x
  _atom_site_fract_y
  _atom_site_fract_z
  _atom_site_occupancy
  Ag  Ag1       1.0  0.5968804955482483  0.005225500091910362  0.25852689146995544  1.0000
  Ag  Ag2       1.0  0.09732955694198607  0.9387852549552917  0.6858135461807251  1.0000
  Ag  Ag3       1.0  0.5984790325164795  0.04741685092449188  0.18988852202892303  1.0000
  Ag  Ag4       1.0  0.5981024503707886  0.03520428389310837  0.2988716661930084  1.0000
  Ag  Ag5       1.0  0.5964368581771851  0.8250894546508789  0.3483790159225464  1.0000
  Mg  Mg1       1.0  0.09482236206531525  0.6904558539390564  0.8650625944137573  1.0000
  Mg  Mg2       1.0  0.09439968317747116  0.29218074679374695  0.2331017702817917  1.0000
  Mg  Mg3       1.0  0.09598368406295775  0.024439077824354172  0.1530415117740631  1.0000
  Mg  Mg4       1.0  0.5923617482185364  0.6529877185821533  0.4285299479961395  1.0000
  Mg  Mg5       1.0  0.0929642841219902  0.716258704662323  0.41489437222480774  1.0000
  Mg  Mg6       1.0  0.09570962935686111  0.888918399810791  0.6542136669158936  1.0000
