data_image0
_chemical_formula_structural       AlDy4FMg2PtZn2
_chemical_formula_sum              "Al1 Dy4 F1 Mg2 Pt1 Zn2"
_cell_length_a       5.27914154606
_cell_length_b       5.6278784151839005
_cell_length_c       6.543010234832764
_cell_angle_alpha    120.64955286940076
_cell_angle_beta     119.62897222454639
_cell_angle_gamma    97.04963834794509

_space_group_name_H-M_alt    "P 1"
_space_group_IT_number       1

loop_
  _space_group_symop_operation_xyz
  'x, y, z'

loop_
  _atom_site_type_symbol
  _atom_site_label
  _atom_site_symmetry_multiplicity
  _atom_site_fract_x
  _atom_site_fract_y
  _atom_site_fract_z
  _atom_site_occupancy
  Al  Al1       1.0  0.5769775509834291  0.5629754662513735  0.7757449150085451  1.0000
  Dy  Dy1       1.0  0.06594222784042364  0.5777923464775087  0.4203365445137025  1.0000
  Dy  Dy2       1.0  0.9054539203643799  0.16523312032222748  0.24717691540718087  1.0000
  Dy  Dy3       1.0  0.5517306327819824  0.11554087698459635  0.9707896113395692  1.0000
  Dy  Dy4       1.0  0.5426759719848633  0.16353558003902435  0.5278406739234924  1.0000
  F   F1        1.0  0.7904313206672668  0.06642738729715347  0.06176785379648213  1.0000
  Mg  Mg1       1.0  0.05216160789132119  0.009400924667716038  0.07638293504714967  1.0000
  Mg  Mg2       1.0  0.5338187217712402  0.670518159866333  0.2475120872259141  1.0000
  Pt  Pt1       1.0  0.6730625629425049  0.2295372188091279  0.4023902416229249  1.0000
  Zn  Zn1       1.0  0.585695207118988  0.5429136157035828  0.1060779839754106  1.0000
  Zn  Zn2       1.0  0.033888302743434955  0.7585848569869996  0.5972726345062257  1.0000
