data_image0
_chemical_formula_structural       Ag6BiMg4
_chemical_formula_sum              "Ag6 Bi1 Mg4"
_cell_length_a       5.623113876187616
_cell_length_b       5.537033150056888
_cell_length_c       6.771382808685303
_cell_angle_alpha    128.90400635751558
_cell_angle_beta     92.04444936466336
_cell_angle_gamma    80.91664775784821

_space_group_name_H-M_alt    "P 1"
_space_group_IT_number       1

loop_
  _space_group_symop_operation_xyz
  'x, y, z'

loop_
  _atom_site_type_symbol
  _atom_site_label
  _atom_site_symmetry_multiplicity
  _atom_site_fract_x
  _atom_site_fract_y
  _atom_site_fract_z
  _atom_site_occupancy
  Ag  Ag1       1.0  0.351498544216156  0.8025884032249451  0.8030127882957458  1.0000
  Ag  Ag2       1.0  0.5821577310562134  0.38202473521232605  0.7951921224594116  1.0000
  Ag  Ag3       1.0  0.8442809581756592  0.09099312871694565  0.2550075650215149  1.0000
  Ag  Ag4       1.0  0.8509039878845215  0.6692264080047607  0.4024371802806854  1.0000
  Ag  Ag5       1.0  0.21982330083847046  0.3068721294403076  0.5932550430297852  1.0000
  Ag  Ag6       1.0  0.8862835764884949  0.1254952996969223  0.11541686207056046  1.0000
  Bi  Bi1       1.0  0.8467503190040588  0.9658793210983276  0.7723831534385681  1.0000
  Mg  Mg1       1.0  0.8377560377120972  0.38673943281173706  0.8935466408729553  1.0000
  Mg  Mg2       1.0  0.3439149856567383  0.35570842027664185  0.9779046773910522  1.0000
  Mg  Mg3       1.0  0.8462885022163391  0.9974580407142639  0.04808173328638083  1.0000
  Mg  Mg4       1.0  0.3511562645435333  0.1785789132118225  0.4563908576965332  1.0000
