data_image0
_chemical_formula_structural       AlFHoNa2O6PdSi6
_chemical_formula_sum              "Al1 F1 Ho1 Na2 O6 Pd1 Si6"
_cell_length_a       6.366635219150944
_cell_length_b       6.7221416166017605
_cell_length_c       6.698229789733887
_cell_angle_alpha    65.76551399902678
_cell_angle_beta     62.94402535366847
_cell_angle_gamma    65.91726204842671

_space_group_name_H-M_alt    "P 1"
_space_group_IT_number       1

loop_
  _space_group_symop_operation_xyz
  'x, y, z'

loop_
  _atom_site_type_symbol
  _atom_site_label
  _atom_site_symmetry_multiplicity
  _atom_site_fract_x
  _atom_site_fract_y
  _atom_site_fract_z
  _atom_site_occupancy
  Al  Al1       1.0  0.32471248507499695  0.7440198659896851  0.6392259001731874  1.0000
  F   F1        1.0  0.19420652091503143  0.3295273780822754  0.14611178636550903  1.0000
  Ho  Ho1       1.0  0.32003480195999146  0.2670736014842987  0.6988254189491273  1.0000
  Na  Na1       1.0  0.5998795032501221  0.19827337563037872  0.2768735289573669  1.0000
  Na  Na2       1.0  0.634773313999176  0.8665409684181213  0.7690263390541078  1.0000
  O   O1        1.0  0.21702656149864197  0.1443542242050171  0.764901101589203  1.0000
  O   O2        1.0  0.19588007032871246  0.3791062831878662  0.13854652643203735  1.0000
  O   O3        1.0  0.4532284140586853  0.9003375768661499  0.7829124331474305  1.0000
  O   O4        1.0  0.11710471659898758  0.052105654031038284  0.4134910106658936  1.0000
  O   O5        1.0  0.1395850032567978  0.5799933671951294  0.8412106633186341  1.0000
  O   O6        1.0  0.8289530873298645  0.4718315899372101  0.653203845024109  1.0000
  Pd  Pd1       1.0  0.9611341357231141  0.23157304525375366  0.5058903694152832  1.0000
  Si  Si1       1.0  0.4886480569839478  0.38407742977142334  0.18292541801929477  1.0000
  Si  Si2       1.0  0.44992053508758545  0.9483532309532166  0.2804058194160461  1.0000
  Si  Si3       1.0  0.1191375255584717  0.8471848964691162  0.7293803095817567  1.0000
  Si  Si4       1.0  0.6208603382110596  0.11088484525680542  0.19977152347564692  1.0000
  Si  Si5       1.0  0.392803817987442  0.024378126487135887  0.04950425773859025  1.0000
  Si  Si6       1.0  0.7887735962867737  0.5413201451301575  0.5434707999229431  1.0000
