data_image0
_chemical_formula_structural       FNaO5Si10Zr
_chemical_formula_sum              "F1 Na1 O5 Si10 Zr1"
_cell_length_a       6.44207542934359
_cell_length_b       6.74461776333284
_cell_length_c       6.7794718742370605
_cell_angle_alpha    66.46154204977054
_cell_angle_beta     63.41515941700767
_cell_angle_gamma    67.18267266266038

_space_group_name_H-M_alt    "P 1"
_space_group_IT_number       1

loop_
  _space_group_symop_operation_xyz
  'x, y, z'

loop_
  _atom_site_type_symbol
  _atom_site_label
  _atom_site_symmetry_multiplicity
  _atom_site_fract_x
  _atom_site_fract_y
  _atom_site_fract_z
  _atom_site_occupancy
  F   F1        1.0  0.9469727873802185  0.36339619755744934  0.6846044659614563  1.0000
  Na  Na1       1.0  0.015178645960986614  0.02351495623588562  0.607964813709259  1.0000
  O   O1        1.0  0.4134751856327057  0.6393246650695801  0.7864695191383362  1.0000
  O   O2        1.0  0.756509006023407  0.9312633275985718  0.06525755673646927  1.0000
  O   O3        1.0  0.32076990604400635  0.12230920046567917  0.7179131507873535  1.0000
  O   O4        1.0  0.08263509720563889  0.786791980266571  0.49891069531440735  1.0000
  O   O5        1.0  0.08588144928216934  0.9734538197517395  0.08982829749584198  1.0000
  Si  Si1       1.0  0.6953389644622803  0.6884647607803345  0.2660934031009674  1.0000
  Si  Si2       1.0  0.9306104183197021  0.1660410761833191  0.7436583638191223  1.0000
  Si  Si3       1.0  0.20977891981601715  0.7216223478317261  0.09950938820838928  1.0000
  Si  Si4       1.0  0.8601747751235962  0.9914997220039368  0.045907050371170044  1.0000
  Si  Si5       1.0  0.7030273675918579  0.28867068886756897  0.39092835783958435  1.0000
  Si  Si6       1.0  0.4465460777282715  0.1587827503681183  0.6407917737960815  1.0000
  Si  Si7       1.0  0.4474809765815735  0.08044011890888214  0.4594400227069855  1.0000
  Si  Si8       1.0  0.6985816359519958  0.7007748484611511  0.7907682061195374  1.0000
  Si  Si9       1.0  0.17883935570716858  0.2734479606151581  0.9433755278587341  1.0000
  Si  Si10      1.0  0.08926798403263092  0.18921518325805664  0.17275436222553253  1.0000
  Zr  Zr1       1.0  0.6874924302101135  0.6764134168624878  0.3428890109062195  1.0000
