data_image0
_chemical_formula_structural       DyF2O7Si8
_chemical_formula_sum              "Dy1 F2 O7 Si8"
_cell_length_a       5.430085665162287
_cell_length_b       7.1933839536300646
_cell_length_c       7.0600104331970215
_cell_angle_alpha    122.25187463237059
_cell_angle_beta     89.26931399593545
_cell_angle_gamma    91.99681044644016

_space_group_name_H-M_alt    "P 1"
_space_group_IT_number       1

loop_
  _space_group_symop_operation_xyz
  'x, y, z'

loop_
  _atom_site_type_symbol
  _atom_site_label
  _atom_site_symmetry_multiplicity
  _atom_site_fract_x
  _atom_site_fract_y
  _atom_site_fract_z
  _atom_site_occupancy
  Dy  Dy1       1.0  0.9868911504745485  0.9601229429244996  0.9552460312843323  1.0000
  F   F1        1.0  0.9786497354507449  0.19948747754096988  0.22717854380607605  1.0000
  F   F2        1.0  0.49176412820816046  0.07726465165615082  0.21480754017829895  1.0000
  O   O1        1.0  0.990751087665558  0.7090959548950196  0.8391475677490234  1.0000
  O   O2        1.0  0.005392674822360277  0.5586058497428894  0.8394482135772705  1.0000
  O   O3        1.0  0.23298503458499908  0.08422499150037766  0.3082704544067383  1.0000
  O   O4        1.0  0.48630362749099737  0.7603367567062379  0.2157234251499176  1.0000
  O   O5        1.0  0.9866579174995423  0.5019239187240601  0.9912340044975281  1.0000
  O   O6        1.0  0.6850706338882446  0.7832883000373841  0.5905936360359192  1.0000
  O   O7        1.0  0.4739849865436554  0.08900315314531328  0.021359123289585114  1.0000
  Si  Si1       1.0  0.48662945628166204  0.32005709409713745  0.5978640913963318  1.0000
  Si  Si2       1.0  0.9761369824409487  0.1810955107212067  0.6592443585395813  1.0000
  Si  Si3       1.0  0.4954110980033875  0.9014406800270082  0.9517126083374023  1.0000
  Si  Si4       1.0  0.4890573918819428  0.5541709065437317  0.2076360285282135  1.0000
  Si  Si5       1.0  0.49458971619606024  0.6820945739746094  0.7114471197128296  1.0000
  Si  Si6       1.0  0.4906256198883057  0.10456763952970506  0.43952062726020813  1.0000
  Si  Si7       1.0  0.9731253385543824  0.04241504520177841  0.4180091321468353  1.0000
  Si  Si8       1.0  0.9794611930847169  0.6630241274833679  0.6801546812057495  1.0000
