data_image0
_chemical_formula_structural       DyFO8Si8
_chemical_formula_sum              "Dy1 F1 O8 Si8"
_cell_length_a       6.385700206363796
_cell_length_b       6.574899351131034
_cell_length_c       6.853654861450195
_cell_angle_alpha    68.90116819594034
_cell_angle_beta     67.9445839848106
_cell_angle_gamma    66.75714911822782

_space_group_name_H-M_alt    "P 1"
_space_group_IT_number       1

loop_
  _space_group_symop_operation_xyz
  'x, y, z'

loop_
  _atom_site_type_symbol
  _atom_site_label
  _atom_site_symmetry_multiplicity
  _atom_site_fract_x
  _atom_site_fract_y
  _atom_site_fract_z
  _atom_site_occupancy
  Dy  Dy1       1.0  0.16222096979618073  0.900978147983551  0.10475926101207733  1.0000
  F   F1        1.0  0.06746578961610794  0.41312652826309204  0.2107740193605423  1.0000
  O   O1        1.0  0.5132160782814026  0.29282766580581665  0.7797386646270752  1.0000
  O   O2        1.0  0.6186147332191467  0.24249450862407684  0.007078699301928283  1.0000
  O   O3        1.0  0.33686375617980957  0.5286797285079956  0.39958181977272034  1.0000
  O   O4        1.0  0.9266195893287659  0.6535127758979797  0.9223055839538575  1.0000
  O   O5        1.0  0.1683879941701889  0.8733193874359131  0.8212167620658875  1.0000
  O   O6        1.0  0.6164552569389343  0.1353859007358551  0.2994309663772583  1.0000
  O   O7        1.0  0.7787704467773438  0.9814813733100891  0.14721739292144775  1.0000
  O   O8        1.0  0.1754336804151535  0.2246159464120865  0.10754550993442535  1.0000
  Si  Si1       1.0  0.6009561419487  0.9261713027954102  0.8334048390388489  1.0000
  Si  Si2       1.0  0.12141124159097672  0.13652509450912476  0.6935768127441406  1.0000
  Si  Si3       1.0  0.3935346305370331  0.568988561630249  0.5361316800117493  1.0000
  Si  Si4       1.0  0.05124450847506523  0.7879738807678223  0.02042524144053459  1.0000
  Si  Si5       1.0  0.136024609208107  0.05710385739803314  0.08154524117708206  1.0000
  Si  Si6       1.0  0.8254318237304688  0.5481871366500854  0.6345339417457581  1.0000
  Si  Si7       1.0  0.16147270798683167  0.4897557199001312  0.30592843890190125  1.0000
  Si  Si8       1.0  0.4041326344013214  0.021996496245265007  0.516872525215149  1.0000
