data_image0
_chemical_formula_structural       ClFNaOSi14
_chemical_formula_sum              "Cl1 F1 Na1 O1 Si14"
_cell_length_a       6.3693319633905086
_cell_length_b       7.7455851942721985
_cell_length_c       7.450623512268066
_cell_angle_alpha    69.65630790123848
_cell_angle_beta     66.51853343866686
_cell_angle_gamma    67.71319838580914

_space_group_name_H-M_alt    "P 1"
_space_group_IT_number       1

loop_
  _space_group_symop_operation_xyz
  'x, y, z'

loop_
  _atom_site_type_symbol
  _atom_site_label
  _atom_site_symmetry_multiplicity
  _atom_site_fract_x
  _atom_site_fract_y
  _atom_site_fract_z
  _atom_site_occupancy
  Cl  Cl1       1.0  0.8487682938575744  0.10633082687854765  0.2313767969608307  1.0000
  F   F1        1.0  0.8163350820541381  0.7169051766395569  0.4173406660556793  1.0000
  Na  Na1       1.0  0.5361732244491577  0.07689779251813889  0.1052795872092247  1.0000
  O   O1        1.0  0.3082331717014313  0.3816679120063781  0.9946638941764832  1.0000
  Si  Si1       1.0  0.4501660764217376  0.768818974494934  0.5626314282417297  1.0000
  Si  Si2       1.0  0.20955330133438108  0.2446547597646713  0.7261619567871094  1.0000
  Si  Si3       1.0  0.6201183199882507  0.12208799272775649  0.8649231195449829  1.0000
  Si  Si4       1.0  0.6824658513069153  0.4772081077098846  0.562313973903656  1.0000
  Si  Si5       1.0  0.9320349097251891  0.2450287342071533  0.8592885732650757  1.0000
  Si  Si6       1.0  0.7089847326278687  0.2671489417552948  0.6845992207527161  1.0000
  Si  Si7       1.0  0.9692264199256896  0.37509498000144953  0.07805012166500092  1.0000
  Si  Si8       1.0  0.7154685258865356  0.7949559688568114  0.41447964310646057  1.0000
  Si  Si9       1.0  0.4391712844371795  0.2780035436153412  0.8941801190376282  1.0000
  Si  Si10      1.0  0.9988643527030944  0.8212358951568602  0.2157723605632782  1.0000
  Si  Si11      1.0  0.44925752282142634  0.3123187720775604  0.4858822822570801  1.0000
  Si  Si12      1.0  0.7022428512573242  0.5347505211830139  0.9690387845039368  1.0000
  Si  Si13      1.0  0.7325939536094666  0.8743452429771422  0.03749708831310272  1.0000
  Si  Si14      1.0  0.4392444193363189  0.22470992803573606  0.4260641634464264  1.0000
