data_image0
_chemical_formula_structural       F2NaOSi12Zr2
_chemical_formula_sum              "F2 Na1 O1 Si12 Zr2"
_cell_length_a       6.324048761425628
_cell_length_b       7.16139877276265
_cell_length_c       7.384637355804443
_cell_angle_alpha    68.42790468037646
_cell_angle_beta     63.96323155560931
_cell_angle_gamma    64.35961210147924

_space_group_name_H-M_alt    "P 1"
_space_group_IT_number       1

loop_
  _space_group_symop_operation_xyz
  'x, y, z'

loop_
  _atom_site_type_symbol
  _atom_site_label
  _atom_site_symmetry_multiplicity
  _atom_site_fract_x
  _atom_site_fract_y
  _atom_site_fract_z
  _atom_site_occupancy
  F   F1        1.0  0.3639197051525116  0.03239377960562706  0.38346120715141296  1.0000
  F   F2        1.0  0.3232603073120117  0.21219815313816068  0.7358942627906799  1.0000
  Na  Na1       1.0  0.3057679533958435  0.562593936920166  0.5990727543830872  1.0000
  O   O1        1.0  0.4360477924346924  0.176481619477272  0.5138248801231384  1.0000
  Si  Si1       1.0  0.5032103061676025  0.8449285030364989  0.4424206614494324  1.0000
  Si  Si2       1.0  0.4434649646282196  0.5398560762405396  0.289799302816391  1.0000
  Si  Si3       1.0  0.6733113527297974  0.23297537863254544  0.21908040344715118  1.0000
  Si  Si4       1.0  0.9250643849372864  0.3788032233715057  0.24964232742786407  1.0000
  Si  Si5       1.0  0.6931803226470947  0.22869171202182767  0.9188947081565857  1.0000
  Si  Si6       1.0  0.4742608368396759  0.19871483743190763  0.21614430844783783  1.0000
  Si  Si7       1.0  0.5547472834587097  0.5464245676994324  0.12641243636608124  1.0000
  Si  Si8       1.0  0.146015465259552  0.25189292430877686  0.8410513401031494  1.0000
  Si  Si9       1.0  0.6909310817718506  0.8632436990737914  0.8808308839797974  1.0000
  Si  Si10      1.0  0.17094783484935766  0.6638932228088378  0.2973500192165375  1.0000
  Si  Si11      1.0  0.7414903044700623  0.8670347929000853  0.8175985813140869  1.0000
  Si  Si12      1.0  0.014646274968981753  0.2054132521152496  0.11460212618112564  1.0000
  Zr  Zr1       1.0  0.0640556588768959  0.5669220685958862  0.7540140748023987  1.0000
  Zr  Zr2       1.0  0.49611225724220276  0.5140413641929626  0.403679758310318  1.0000
