data_image0
_chemical_formula_structural       Ga2H2ITiZnZr3
_chemical_formula_sum              "Ga2 H2 I1 Ti1 Zn1 Zr3"
_cell_length_a       4.9792727256040905
_cell_length_b       5.822515433169509
_cell_length_c       6.693708419799805
_cell_angle_alpha    113.11650472803709
_cell_angle_beta     90.3088956661155
_cell_angle_gamma    89.2459182837505

_space_group_name_H-M_alt    "P 1"
_space_group_IT_number       1

loop_
  _space_group_symop_operation_xyz
  'x, y, z'

loop_
  _atom_site_type_symbol
  _atom_site_label
  _atom_site_symmetry_multiplicity
  _atom_site_fract_x
  _atom_site_fract_y
  _atom_site_fract_z
  _atom_site_occupancy
  Ga  Ga1       1.0  0.5434609055519104  0.4902413487434387  0.7300248742103577  1.0000
  Ga  Ga2       1.0  0.5436473488807678  0.3103627562522888  0.2689903974533081  1.0000
  H   H1        1.0  0.04122646525502205  0.24667689204216003  0.2723090946674347  1.0000
  H   H2        1.0  0.539264440536499  0.2504969537258148  0.9033797383308411  1.0000
  I   I1        1.0  0.05418853834271431  0.6277595162391663  0.13552367687225345  1.0000
  Ti  Ti1       1.0  0.054124198853969574  0.8913540244102478  0.7016962766647339  1.0000
  Zn  Zn1       1.0  0.5423792600631714  0.15785010159015656  0.34268346428871155  1.0000
  Zr  Zr1       1.0  0.5495958924293518  0.424662709236145  0.677985668182373  1.0000
  Zr  Zr2       1.0  0.04076690226793289  0.7832092642784119  0.2622559666633606  1.0000
  Zr  Zr3       1.0  0.043327923864126205  0.7833607196807861  0.14582952857017517  1.0000
