data_image0
_chemical_formula_structural       HI2PPbZr5
_chemical_formula_sum              "H1 I2 P1 Pb1 Zr5"
_cell_length_a       5.007633704047001
_cell_length_b       7.473314604736455
_cell_length_c       7.462782382965088
_cell_angle_alpha    121.30693751638108
_cell_angle_beta     90.40859553482622
_cell_angle_gamma    90.51695005393103

_space_group_name_H-M_alt    "P 1"
_space_group_IT_number       1

loop_
  _space_group_symop_operation_xyz
  'x, y, z'

loop_
  _atom_site_type_symbol
  _atom_site_label
  _atom_site_symmetry_multiplicity
  _atom_site_fract_x
  _atom_site_fract_y
  _atom_site_fract_z
  _atom_site_occupancy
  H   H1        1.0  0.5338242053985596  0.15197986364364624  0.891675591468811  1.0000
  I   I1        1.0  0.037428371608257294  0.010000977665185928  0.5298343896865845  1.0000
  I   I2        1.0  0.5471834540367126  0.02694172039628029  0.1773340255022049  1.0000
  P   P1        1.0  0.5493259429931641  0.3310171365737915  0.7771110534667969  1.0000
  Pb  Pb1       1.0  0.03434600681066513  0.4215940535068512  0.03405255079269412  1.0000
  Zr  Zr1       1.0  0.04176752641797066  0.5688474774360657  0.5975731611251831  1.0000
  Zr  Zr2       1.0  0.04219505563378334  0.783285915851593  0.5957697033882141  1.0000
  Zr  Zr3       1.0  0.05424729362130165  0.045429203659296036  0.22589360177516937  1.0000
  Zr  Zr4       1.0  0.03839084133505821  0.4046116769313812  0.8815614581108094  1.0000
  Zr  Zr5       1.0  0.5452625751495361  0.6293047666549683  0.22035400569438934  1.0000
