data_image0
_chemical_formula_structural       H2Pb2Zn2Zr4
_chemical_formula_sum              "H2 Pb2 Zn2 Zr4"
_cell_length_a       4.9727275869780065
_cell_length_b       4.275477429975451
_cell_length_c       5.914140224456787
_cell_angle_alpha    118.38275769322729
_cell_angle_beta     108.18620158375896
_cell_angle_gamma    83.26297764459065

_space_group_name_H-M_alt    "P 1"
_space_group_IT_number       1

loop_
  _space_group_symop_operation_xyz
  'x, y, z'

loop_
  _atom_site_type_symbol
  _atom_site_label
  _atom_site_symmetry_multiplicity
  _atom_site_fract_x
  _atom_site_fract_y
  _atom_site_fract_z
  _atom_site_occupancy
  H   H1        1.0  0.673038899898529  0.7172030806541443  0.9724363684654236  1.0000
  H   H2        1.0  0.180563285946846  0.933921217918396  0.41130661964416504  1.0000
  Pb  Pb1       1.0  0.8859899640083313  0.7605645656585693  0.63214510679245  1.0000
  Pb  Pb2       1.0  0.15603148937225342  0.8582502007484436  0.9854674935340881  1.0000
  Zn  Zn1       1.0  0.4140211045742035  0.49727216362953186  0.1906740665435791  1.0000
  Zn  Zn2       1.0  0.17861448228359222  0.5014896988868713  0.17757712304592133  1.0000
  Zr  Zr1       1.0  0.6692128777503967  0.49947360157966614  0.27007707953453064  1.0000
  Zr  Zr2       1.0  0.6568650603294373  0.006083537824451923  0.47225242853164673  1.0000
  Zr  Zr3       1.0  0.940159022808075  0.5883559584617615  0.15275436639785767  1.0000
  Zr  Zr4       1.0  0.8634070754051208  0.8555178046226501  0.6541050672531128  1.0000
