data_image0
_chemical_formula_structural       Co3H2Zr5
_chemical_formula_sum              "Co3 H2 Zr5"
_cell_length_a       5.261116566531122
_cell_length_b       5.667377899985771
_cell_length_c       5.558258056640625
_cell_angle_alpha    114.10851794867428
_cell_angle_beta     89.97407183431667
_cell_angle_gamma    90.62214148896516

_space_group_name_H-M_alt    "P 1"
_space_group_IT_number       1

loop_
  _space_group_symop_operation_xyz
  'x, y, z'

loop_
  _atom_site_type_symbol
  _atom_site_label
  _atom_site_symmetry_multiplicity
  _atom_site_fract_x
  _atom_site_fract_y
  _atom_site_fract_z
  _atom_site_occupancy
  Co  Co1       1.0  0.739894449710846  0.30755263566970825  0.44384515285491943  1.0000
  Co  Co2       1.0  0.7393835783004761  0.5416584014892578  0.770036518573761  1.0000
  Co  Co3       1.0  0.7345746755599976  0.9532070755958557  0.5372249484062195  1.0000
  H   H1        1.0  0.22973190248012543  0.9054838418960571  0.8838981986045837  1.0000
  H   H2        1.0  0.48825836181640625  0.6996484994888306  0.48760911822319025  1.0000
  Zr  Zr1       1.0  0.24248841404914856  0.2821634113788605  0.46245744824409485  1.0000
  Zr  Zr2       1.0  0.23988249897956848  0.3575688302516937  0.7857851982116699  1.0000
  Zr  Zr3       1.0  0.23924554884433746  0.6301765441894531  0.7619854211807251  1.0000
  Zr  Zr4       1.0  0.7401919960975647  0.6525314450263977  0.6530212163925171  1.0000
  Zr  Zr5       1.0  0.7413068413734436  0.22289876639842987  0.28301307559013367  1.0000
