data_image0
_chemical_formula_structural       CaCoH3NpPPbZr2
_chemical_formula_sum              "Ca1 Co1 H3 Np1 P1 Pb1 Zr2"
_cell_length_a       4.655084605812235
_cell_length_b       2.8238610867766916
_cell_length_c       8.029976844787598
_cell_angle_alpha    101.7659080656267
_cell_angle_beta     90.22156163057846
_cell_angle_gamma    148.20543611230016

_space_group_name_H-M_alt    "P 1"
_space_group_IT_number       1

loop_
  _space_group_symop_operation_xyz
  'x, y, z'

loop_
  _atom_site_type_symbol
  _atom_site_label
  _atom_site_symmetry_multiplicity
  _atom_site_fract_x
  _atom_site_fract_y
  _atom_site_fract_z
  _atom_site_occupancy
  Ca  Ca1       1.0  0.36841315031051636  0.6098698377609253  0.7660239338874817  1.0000
  Co  Co1       1.0  0.9564084410667419  0.22058485448360443  0.9295485019683838  1.0000
  H   H1        1.0  0.8297659158706665  0.4260893762111664  0.7824743986129761  1.0000
  H   H2        1.0  0.3315808176994324  0.2487798035144806  0.4267788231372833  1.0000
  H   H3        1.0  0.17107842862606049  0.4175569415092468  0.974092960357666  1.0000
  Np  Np1       1.0  0.1403927206993103  0.28039640188217163  0.18920607864856717  1.0000
  P   P1        1.0  0.5638858079910278  0.8737897872924805  0.43709075450897217  1.0000
  Pb  Pb1       1.0  0.00042057185783050656  0.2698773145675659  0.14750947058200836  1.0000
  Zr  Zr1       1.0  0.8830503821372986  0.08076058328151703  0.7538301944732666  1.0000
  Zr  Zr2       1.0  0.8486219644546509  0.1301548182964325  0.7722039818763733  1.0000
