data_image0
_chemical_formula_structural       Co3H3PbZr3
_chemical_formula_sum              "Co3 H3 Pb1 Zr3"
_cell_length_a       3.642975891769529
_cell_length_b       3.2584032432965144
_cell_length_c       5.380967140197754
_cell_angle_alpha    122.79655924797994
_cell_angle_beta     87.86223337401037
_cell_angle_gamma    89.74602173412829

_space_group_name_H-M_alt    "P 1"
_space_group_IT_number       1

loop_
  _space_group_symop_operation_xyz
  'x, y, z'

loop_
  _atom_site_type_symbol
  _atom_site_label
  _atom_site_symmetry_multiplicity
  _atom_site_fract_x
  _atom_site_fract_y
  _atom_site_fract_z
  _atom_site_occupancy
  Co  Co1       1.0  0.12948431074619293  0.45814669132232666  0.09432443976402283  1.0000
  Co  Co2       1.0  0.6443777084350586  0.16583101451396942  0.5826570987701416  1.0000
  Co  Co3       1.0  0.1430244743824005  0.5699920654296875  0.9301090240478516  1.0000
  H   H1        1.0  0.14814969897270203  0.538489043712616  0.5604265928268433  1.0000
  H   H2        1.0  0.14840669929981232  0.71543288230896  0.754608690738678  1.0000
  H   H3        1.0  0.08807767927646637  0.6932214498519897  0.04347907006740566  1.0000
  Pb  Pb1       1.0  0.6509256362915039  0.005648632068186998  0.7744333744049074  1.0000
  Zr  Zr1       1.0  0.6514837741851807  0.04132043197751045  0.2135857194662094  1.0000
  Zr  Zr2       1.0  0.6470504403114319  0.06036798655986785  0.3046993613243103  1.0000
  Zr  Zr3       1.0  0.6507652401924133  0.7960876822471619  0.27029338479042053  1.0000
