data_image0
_chemical_formula_structural       CoFFeHHfNpPbTcW
_chemical_formula_sum              "Co1 F1 Fe1 H1 Hf1 Np1 Pb1 Tc1 W1"
_cell_length_a       5.151412233471811
_cell_length_b       5.140869306898756
_cell_length_c       6.119185447692871
_cell_angle_alpha    89.93143267397956
_cell_angle_beta     89.98313064954333
_cell_angle_gamma    59.21156265084604

_space_group_name_H-M_alt    "P 1"
_space_group_IT_number       1

loop_
  _space_group_symop_operation_xyz
  'x, y, z'

loop_
  _atom_site_type_symbol
  _atom_site_label
  _atom_site_symmetry_multiplicity
  _atom_site_fract_x
  _atom_site_fract_y
  _atom_site_fract_z
  _atom_site_occupancy
  Co  Co1       1.0  0.184175044298172  0.44984427094459534  0.4873170554637909  1.0000
  F   F1        1.0  0.02564574033021927  0.29655328392982483  0.7644672393798829  1.0000
  Fe  Fe1       1.0  0.5927326083183289  0.801096498966217  0.717384934425354  1.0000
  H   H1        1.0  0.7423393726348877  0.025055425241589546  0.49428823590278625  1.0000
  Hf  Hf1       1.0  0.14235101640224457  0.9081213474273682  0.5499647855758667  1.0000
  Np  Np1       1.0  0.03682076930999756  0.7519167065620422  0.9984444379806517  1.0000
  Pb  Pb1       1.0  0.38477393984794617  0.09817742556333542  0.16321758925914764  1.0000
  Tc  Tc1       1.0  0.5782179832458496  0.29863202571868896  0.7394781708717346  1.0000
  W   W1        1.0  0.7107089757919312  0.4409189522266388  0.3446651995182037  1.0000
