data_image0
_chemical_formula_structural       Np3Ru3Zn3
_chemical_formula_sum              "Np3 Ru3 Zn3"
_cell_length_a       4.330450926806679
_cell_length_b       4.310061381426836
_cell_length_c       9.758749008178711
_cell_angle_alpha    102.76825587652309
_cell_angle_beta     102.76495071710306
_cell_angle_gamma    89.92819663473172

_space_group_name_H-M_alt    "P 1"
_space_group_IT_number       1

loop_
  _space_group_symop_operation_xyz
  'x, y, z'

loop_
  _atom_site_type_symbol
  _atom_site_label
  _atom_site_symmetry_multiplicity
  _atom_site_fract_x
  _atom_site_fract_y
  _atom_site_fract_z
  _atom_site_occupancy
  Np  Np1       1.0  0.24428287148475647  0.6025259494781494  0.9511317610740662  1.0000
  Np  Np2       1.0  0.36614853143692017  0.22272667288780212  0.20359918475151062  1.0000
  Np  Np3       1.0  0.5930607318878174  0.4494115114212036  0.6564222574234009  1.0000
  Ru  Ru1       1.0  0.9665562510490417  0.3258572518825531  0.4025285542011261  1.0000
  Ru  Ru2       1.0  0.46593931317329407  0.8224508166313171  0.40073713660240173  1.0000
  Ru  Ru3       1.0  0.16731898486614227  0.03201767057180405  0.7963250279426575  1.0000
  Zn  Zn1       1.0  0.7458086013793945  0.10205619037151337  0.9517844915390015  1.0000
  Zn  Zn2       1.0  0.034318625926971436  0.8860646486282349  0.5355368256568909  1.0000
  Zn  Zn3       1.0  0.864341139793396  0.7207022309303284  0.20768402516841888  1.0000
