data_image0
_chemical_formula_structural       Np2Ru3SiZn3
_chemical_formula_sum              "Np2 Ru3 Si1 Zn3"
_cell_length_a       4.122576279207504
_cell_length_b       4.1189012786478765
_cell_length_c       9.013890266418457
_cell_angle_alpha    89.98568465416507
_cell_angle_beta     90.06800089670386
_cell_angle_gamma    89.9631858553066

_space_group_name_H-M_alt    "P 1"
_space_group_IT_number       1

loop_
  _space_group_symop_operation_xyz
  'x, y, z'

loop_
  _atom_site_type_symbol
  _atom_site_label
  _atom_site_symmetry_multiplicity
  _atom_site_fract_x
  _atom_site_fract_y
  _atom_site_fract_z
  _atom_site_occupancy
  Np  Np1       1.0  0.9879524111747742  0.23295339941978455  0.09258615225553513  1.0000
  Np  Np2       1.0  0.987585723400116  0.2320202887058258  0.589728057384491  1.0000
  Ru  Ru1       1.0  0.4874892830848694  0.23460689187049866  0.8728971481323242  1.0000
  Ru  Ru2       1.0  0.4884895086288452  0.7325531244277954  0.46119561791419983  1.0000
  Ru  Ru3       1.0  0.48984816670417786  0.23275811970233917  0.3238693475723266  1.0000
  Si  Si1       1.0  0.9899283051490784  0.7312701344490051  0.3258332312107086  1.0000
  Zn  Zn1       1.0  0.9890725612640381  0.7339353561401367  0.8719339966773987  1.0000
  Zn  Zn2       1.0  0.48786863684654236  0.7340530753135681  0.7199333906173705  1.0000
  Zn  Zn3       1.0  0.48784250020980835  0.7341810464859009  0.10091206431388855  1.0000
