data_image0
_chemical_formula_structural       Eu2PTbUZn
_chemical_formula_sum              "Eu2 P1 Tb1 U1 Zn1"
_cell_length_a       5.665302230578367
_cell_length_b       5.867370799388241
_cell_length_c       7.222915172576904
_cell_angle_alpha    112.04144634959671
_cell_angle_beta     108.67402441708714
_cell_angle_gamma    109.65906204060578

_space_group_name_H-M_alt    "P 1"
_space_group_IT_number       1

loop_
  _space_group_symop_operation_xyz
  'x, y, z'

loop_
  _atom_site_type_symbol
  _atom_site_label
  _atom_site_symmetry_multiplicity
  _atom_site_fract_x
  _atom_site_fract_y
  _atom_site_fract_z
  _atom_site_occupancy
  Eu  Eu1       1.0  0.9757614135742188  0.8670617341995239  0.6546800136566162  1.0000
  Eu  Eu2       1.0  0.019167285412549973  0.5989882946014404  0.7813687920570374  1.0000
  P   P1        1.0  0.4429740607738495  0.8346414566040039  0.03383947163820267  1.0000
  Tb  Tb1       1.0  0.899869978427887  0.1417386829853058  0.39812400937080383  1.0000
  U   U1        1.0  0.4893060028553009  0.1185724288225174  0.12507545948028564  1.0000
  Zn  Zn1       1.0  0.6507042050361633  0.6356649994850159  0.25588387250900274  1.0000
