data_image0
_chemical_formula_structural       Eu6
_chemical_formula_sum              "Eu6"
_cell_length_a       5.375874126781536
_cell_length_b       5.121623678777717
_cell_length_c       7.425205707550049
_cell_angle_alpha    91.96692068919845
_cell_angle_beta     97.60679673177533
_cell_angle_gamma    109.91174918764573

_space_group_name_H-M_alt    "P 1"
_space_group_IT_number       1

loop_
  _space_group_symop_operation_xyz
  'x, y, z'

loop_
  _atom_site_type_symbol
  _atom_site_label
  _atom_site_symmetry_multiplicity
  _atom_site_fract_x
  _atom_site_fract_y
  _atom_site_fract_z
  _atom_site_occupancy
  Eu  Eu1       1.0  0.6641741991043091  0.38990119099617004  0.0008619014406576528  1.0000
  Eu  Eu2       1.0  0.6556808948516846  0.38813191652297974  0.14087559282779694  1.0000
  Eu  Eu3       1.0  0.1502813994884491  0.8065325617790222  0.904546856880188  1.0000
  Eu  Eu4       1.0  0.6444610357284546  0.8439203500747681  0.5842795372009277  1.0000
  Eu  Eu5       1.0  0.14810936152935028  0.58517986536026  0.7254026532173157  1.0000
  Eu  Eu6       1.0  0.6484145522117615  0.06995729357004166  0.7239148616790771  1.0000
