data_image0
_chemical_formula_structural       Eu6
_chemical_formula_sum              "Eu6"
_cell_length_a       5.162342081399073
_cell_length_b       5.094752790188821
_cell_length_c       6.94704532623291
_cell_angle_alpha    94.74806812875697
_cell_angle_beta     98.23710701478676
_cell_angle_gamma    117.60777258490292

_space_group_name_H-M_alt    "P 1"
_space_group_IT_number       1

loop_
  _space_group_symop_operation_xyz
  'x, y, z'

loop_
  _atom_site_type_symbol
  _atom_site_label
  _atom_site_symmetry_multiplicity
  _atom_site_fract_x
  _atom_site_fract_y
  _atom_site_fract_z
  _atom_site_occupancy
  Eu  Eu1       1.0  0.7942113280296326  0.7287718653678894  0.9529025554656982  1.0000
  Eu  Eu2       1.0  0.43770381808280945  0.5862877368927002  0.596833348274231  1.0000
  Eu  Eu3       1.0  0.476593941450119  0.04240242391824722  0.20667098462581635  1.0000
  Eu  Eu4       1.0  0.9226481914520264  0.21489161252975464  0.9640425443649292  1.0000
  Eu  Eu5       1.0  0.9210376739501953  0.20040635764598846  0.04379710927605629  1.0000
  Eu  Eu6       1.0  0.8973092436790466  0.7810777425765991  0.11277491599321365  1.0000
