data_image0
_chemical_formula_structural       AlIr6LiTa
_chemical_formula_sum              "Al1 Ir6 Li1 Ta1"
_cell_length_a       5.192751565459333
_cell_length_b       6.147952670377969
_cell_length_c       6.881875038146973
_cell_angle_alpha    109.54646512178824
_cell_angle_beta     89.10239478545647
_cell_angle_gamma    107.66382420379848

_space_group_name_H-M_alt    "P 1"
_space_group_IT_number       1

loop_
  _space_group_symop_operation_xyz
  'x, y, z'

loop_
  _atom_site_type_symbol
  _atom_site_label
  _atom_site_symmetry_multiplicity
  _atom_site_fract_x
  _atom_site_fract_y
  _atom_site_fract_z
  _atom_site_occupancy
  Al  Al1       1.0  0.72409987449646  0.24299952387809753  0.39584270119667053  1.0000
  Ir  Ir1       1.0  0.7360802292823792  0.795261561870575  0.5915390253067017  1.0000
  Ir  Ir2       1.0  0.734549880027771  0.7495234608650208  0.8275926113128662  1.0000
  Ir  Ir3       1.0  0.23471041023731232  0.26686933636665344  0.1684151440858841  1.0000
  Ir  Ir4       1.0  0.22979046404361725  0.327316015958786  0.8392342329025269  1.0000
  Ir  Ir5       1.0  0.2292722761631012  0.9117222428321838  0.6126185059547424  1.0000
  Ir  Ir6       1.0  0.7315518260002136  0.7533786296844482  0.30738556385040283  1.0000
  Li  Li1       1.0  0.2314578741788864  0.7652455568313599  0.02469295822083953  1.0000
  Ta  Ta1       1.0  0.7339434027671814  0.366769015789032  0.09500660747289658  1.0000
