data_image0
_chemical_formula_structural       AlIr5LaLiTa
_chemical_formula_sum              "Al1 Ir5 La1 Li1 Ta1"
_cell_length_a       6.354756122389918
_cell_length_b       6.487782591437739
_cell_length_c       6.616752624511719
_cell_angle_alpha    111.66726953167772
_cell_angle_beta     106.3560633172312
_cell_angle_gamma    106.46011942919559

_space_group_name_H-M_alt    "P 1"
_space_group_IT_number       1

loop_
  _space_group_symop_operation_xyz
  'x, y, z'

loop_
  _atom_site_type_symbol
  _atom_site_label
  _atom_site_symmetry_multiplicity
  _atom_site_fract_x
  _atom_site_fract_y
  _atom_site_fract_z
  _atom_site_occupancy
  Al  Al1       1.0  0.9142659902572632  0.2662734389305115  0.15708455443382263  1.0000
  Ir  Ir1       1.0  0.4351494312286377  0.27440690994262695  0.16800756752490997  1.0000
  Ir  Ir2       1.0  0.44173547625541687  0.6384349465370178  0.6382008194923401  1.0000
  Ir  Ir3       1.0  0.9366360902786255  0.8796175122261047  0.054913945496082237  1.0000
  Ir  Ir4       1.0  0.4324483871459961  0.880786657333374  0.8604455590248108  1.0000
  Ir  Ir5       1.0  0.9396077394485474  0.3773980140686035  0.46526604890823364  1.0000
  La  La1       1.0  0.686621904373169  0.6086219549179077  0.5609347820281982  1.0000
  Li  Li1       1.0  0.17958949506282806  0.9436038732528687  0.1530323475599289  1.0000
  Ta  Ta1       1.0  0.18266281485557556  0.2944308817386627  0.5458353757858276  1.0000
