data_image0
_chemical_formula_structural       Ir7Ta2
_chemical_formula_sum              "Ir7 Ta2"
_cell_length_a       3.9180385367531736
_cell_length_b       4.271816893345544
_cell_length_c       10.698830604553223
_cell_angle_alpha    105.04440920381856
_cell_angle_beta     90.7200530331388
_cell_angle_gamma    89.05225167407724

_space_group_name_H-M_alt    "P 1"
_space_group_IT_number       1

loop_
  _space_group_symop_operation_xyz
  'x, y, z'

loop_
  _atom_site_type_symbol
  _atom_site_label
  _atom_site_symmetry_multiplicity
  _atom_site_fract_x
  _atom_site_fract_y
  _atom_site_fract_z
  _atom_site_occupancy
  Ir  Ir1       1.0  0.5256630778312683  0.02288290485739708  0.3609370291233063  1.0000
  Ir  Ir2       1.0  0.8683684468269348  0.9976701140403748  0.25138983130455017  1.0000
  Ir  Ir3       1.0  0.0596620999276638  0.2939237356185913  0.5843061208724976  1.0000
  Ir  Ir4       1.0  0.5309511423110962  0.7874799966812134  0.3548240065574646  1.0000
  Ir  Ir5       1.0  0.03523729369044304  0.9608657360076904  0.35267108678817755  1.0000
  Ir  Ir6       1.0  0.3699091672897339  0.9861111044883728  0.08761468529701234  1.0000
  Ir  Ir7       1.0  0.5575054287910461  0.3625084459781647  0.9610489010810852  1.0000
  Ta  Ta1       1.0  0.5422111749649048  0.35683974623680115  0.3706912398338318  1.0000
  Ta  Ta2       1.0  0.058438707143068314  0.7872304320335388  0.8946856260299683  1.0000
