data_image0
_chemical_formula_structural       CuIr5RhTaTi
_chemical_formula_sum              "Cu1 Ir5 Rh1 Ta1 Ti1"
_cell_length_a       5.505409953649976
_cell_length_b       5.634133408087839
_cell_length_c       6.083637714385986
_cell_angle_alpha    111.63020009898403
_cell_angle_beta     107.93097246598893
_cell_angle_gamma    108.28087954801401

_space_group_name_H-M_alt    "P 1"
_space_group_IT_number       1

loop_
  _space_group_symop_operation_xyz
  'x, y, z'

loop_
  _atom_site_type_symbol
  _atom_site_label
  _atom_site_symmetry_multiplicity
  _atom_site_fract_x
  _atom_site_fract_y
  _atom_site_fract_z
  _atom_site_occupancy
  Cu  Cu1       1.0  0.8919239044189453  0.13087579607963562  0.43775835633277893  1.0000
  Ir  Ir1       1.0  0.894564151763916  0.7731493711471558  0.7695328593254089  1.0000
  Ir  Ir2       1.0  0.1299455910921097  0.478939563035965  0.6886878609657288  1.0000
  Ir  Ir3       1.0  0.3433122932910919  0.13844648003578186  0.07495510578155516  1.0000
  Ir  Ir4       1.0  0.32446771860122686  0.8864429593086244  0.0745171383023262  1.0000
  Ir  Ir5       1.0  0.6346417665481567  0.381326824426651  0.06813852488994594  1.0000
  Rh  Rh1       1.0  0.6318943500518799  0.49653846025466924  0.45319315791130055  1.0000
  Ta  Ta1       1.0  0.8843300342559814  0.12560968101024628  0.31477206945419306  1.0000
  Ti  Ti1       1.0  0.3426293134689331  0.8278997540473938  0.5717007517814636  1.0000
