data_image0
_chemical_formula_structural       F2I2MgMn3Zn2
_chemical_formula_sum              "F2 I2 Mg1 Mn3 Zn2"
_cell_length_a       5.585305221252282
_cell_length_b       5.71675684646
_cell_length_c       7.627866268157959
_cell_angle_alpha    92.0054606661436
_cell_angle_beta     87.93129137513155
_cell_angle_gamma    91.00926587002398

_space_group_name_H-M_alt    "P 1"
_space_group_IT_number       1

loop_
  _space_group_symop_operation_xyz
  'x, y, z'

loop_
  _atom_site_type_symbol
  _atom_site_label
  _atom_site_symmetry_multiplicity
  _atom_site_fract_x
  _atom_site_fract_y
  _atom_site_fract_z
  _atom_site_occupancy
  F   F1        1.0  0.04149632900953293  0.3732754588127136  0.0433172844350338  1.0000
  F   F2        1.0  0.36099737882614136  0.1374957412481308  0.25345107913017273  1.0000
  I   I1        1.0  0.3662222921848297  0.00974973663687706  0.05496761202812195  1.0000
  I   I2        1.0  0.6298077702522278  0.4259389638900757  0.10154282301664352  1.0000
  Mg  Mg1       1.0  0.8686779141426086  0.3113348186016083  0.6483563780784607  1.0000
  Mn  Mn1       1.0  0.3650747537612915  0.4670722782611847  0.9975301623344421  1.0000
  Mn  Mn2       1.0  0.8648475408554077  0.5220012664794922  0.9310300350189209  1.0000
  Mn  Mn3       1.0  0.5840903520584106  0.6739757061004639  0.5507307648658752  1.0000
  Zn  Zn1       1.0  0.36355477571487427  0.11851721256971359  0.7685489654541016  1.0000
  Zn  Zn2       1.0  0.36427047848701477  0.19832436740398407  0.627373993396759  1.0000
