data_image0
_chemical_formula_structural       F2IMg3Mn2Zn2
_chemical_formula_sum              "F2 I1 Mg3 Mn2 Zn2"
_cell_length_a       6.494581323675434
_cell_length_b       7.430932312979519
_cell_length_c       7.996013641357422
_cell_angle_alpha    123.46314136128166
_cell_angle_beta     88.86629116995753
_cell_angle_gamma    89.8763146514709

_space_group_name_H-M_alt    "P 1"
_space_group_IT_number       1

loop_
  _space_group_symop_operation_xyz
  'x, y, z'

loop_
  _atom_site_type_symbol
  _atom_site_label
  _atom_site_symmetry_multiplicity
  _atom_site_fract_x
  _atom_site_fract_y
  _atom_site_fract_z
  _atom_site_occupancy
  F   F1        1.0  0.20108209550380707  0.43822309374809265  0.23424831032752993  1.0000
  F   F2        1.0  0.17018821835517883  0.34328553080558777  0.44355982542037964  1.0000
  I   I1        1.0  0.6899473667144775  0.5846720337867737  0.6272200345993042  1.0000
  Mg  Mg1       1.0  0.1966843456029892  0.8912323713302613  0.7480055689811707  1.0000
  Mg  Mg2       1.0  0.7004762291908264  0.7911797165870667  0.4192589223384858  1.0000
  Mg  Mg3       1.0  0.19366160035133362  0.09780550748109818  0.14808106422424316  1.0000
  Mn  Mn1       1.0  0.6952897906303406  0.6512775421142578  0.7304405570030212  1.0000
  Mn  Mn2       1.0  0.19802576303482056  0.34512993693351746  0.32769590616226196  1.0000
  Zn  Zn1       1.0  0.6952495574951172  0.9666908979415895  0.5193299055099487  1.0000
  Zn  Zn2       1.0  0.19434678554534912  0.865319013595581  0.12072111666202551  1.0000
