data_image0
_chemical_formula_structural       BaCdF3Mn5
_chemical_formula_sum              "Ba1 Cd1 F3 Mn5"
_cell_length_a       5.15917837248175
_cell_length_b       5.1277634817685875
_cell_length_c       4.913705825805664
_cell_angle_alpha    106.6883777415209
_cell_angle_beta     96.95333878141317
_cell_angle_gamma    95.7589369402985

_space_group_name_H-M_alt    "P 1"
_space_group_IT_number       1

loop_
  _space_group_symop_operation_xyz
  'x, y, z'

loop_
  _atom_site_type_symbol
  _atom_site_label
  _atom_site_symmetry_multiplicity
  _atom_site_fract_x
  _atom_site_fract_y
  _atom_site_fract_z
  _atom_site_occupancy
  Ba  Ba1       1.0  0.9787658452987671  0.013384312391281128  0.8743789196014404  1.0000
  Cd  Cd1       1.0  0.5943298935890198  0.23186983168125153  0.6250689625740051  1.0000
  F   F1        1.0  0.4405706524848938  0.08222327381372452  0.12119314074516296  1.0000
  F   F2        1.0  0.979968249797821  0.9489173293113708  0.8626052141189575  1.0000
  F   F3        1.0  0.5792756676673889  0.7667088508605957  0.5755510330200195  1.0000
  Mn  Mn1       1.0  0.5901575684547424  0.6234070658683777  0.5603323578834534  1.0000
  Mn  Mn2       1.0  0.10679972171783447  0.03639087826013565  0.39705514907836914  1.0000
  Mn  Mn3       1.0  0.08168325573205948  0.5087190866470337  0.5103180408477783  1.0000
  Mn  Mn4       1.0  0.08054805546998978  0.05500977858901024  0.06081254407763481  1.0000
  Mn  Mn5       1.0  0.6021384596824646  0.35986465215682983  0.8064907193183899  1.0000
