data_image0
_chemical_formula_structural       Cd2F2Mn6
_chemical_formula_sum              "Cd2 F2 Mn6"
_cell_length_a       4.913549100625284
_cell_length_b       4.933659542443201
_cell_length_c       4.889920711517334
_cell_angle_alpha    114.78348073194032
_cell_angle_beta     93.3403841311596
_cell_angle_gamma    95.00765677671137

_space_group_name_H-M_alt    "P 1"
_space_group_IT_number       1

loop_
  _space_group_symop_operation_xyz
  'x, y, z'

loop_
  _atom_site_type_symbol
  _atom_site_label
  _atom_site_symmetry_multiplicity
  _atom_site_fract_x
  _atom_site_fract_y
  _atom_site_fract_z
  _atom_site_occupancy
  Cd  Cd1       1.0  0.8182035684585571  0.9916968345642091  0.8218954205513  1.0000
  Cd  Cd2       1.0  0.5889202952384949  0.5570418834686279  0.3782089948654175  1.0000
  F   F1        1.0  0.8368539214134216  0.00997968204319477  0.2709886133670807  1.0000
  F   F2        1.0  0.3450273871421814  0.21686607599258423  0.21928369998931885  1.0000
  Mn  Mn1       1.0  0.3324449956417084  0.646921694278717  0.37404334545135504  1.0000
  Mn  Mn2       1.0  0.1067923977971077  0.264911413192749  0.6767466068267822  1.0000
  Mn  Mn3       1.0  0.8103407025337219  0.5621597170829773  0.10437563061714172  1.0000
  Mn  Mn4       1.0  0.34462985396385193  0.5245780348777771  0.21279367804527283  1.0000
  Mn  Mn5       1.0  0.07170892506837845  0.8605515956878662  0.6229579448699951  1.0000
  Mn  Mn6       1.0  0.8415622711181641  0.5623965859413147  0.23737676441669464  1.0000
