data_image0
_chemical_formula_structural       F3LuMn3Sb2Zn
_chemical_formula_sum              "F3 Lu1 Mn3 Sb2 Zn1"
_cell_length_a       6.853346556938533
_cell_length_b       5.640213287916316
_cell_length_c       6.393606662750244
_cell_angle_alpha    62.647435421963735
_cell_angle_beta     57.62092636467809
_cell_angle_gamma    55.14011800927743

_space_group_name_H-M_alt    "P 1"
_space_group_IT_number       1

loop_
  _space_group_symop_operation_xyz
  'x, y, z'

loop_
  _atom_site_type_symbol
  _atom_site_label
  _atom_site_symmetry_multiplicity
  _atom_site_fract_x
  _atom_site_fract_y
  _atom_site_fract_z
  _atom_site_occupancy
  F   F1        1.0  0.049825724214315414  0.872569739818573  0.20359903573989868  1.0000
  F   F2        1.0  0.7160740494728088  0.05051104724407196  0.5496798157691957  1.0000
  F   F3        1.0  0.28179407119750977  0.823453962802887  0.06616537272930145  1.0000
  Lu  Lu1       1.0  0.5523852705955505  0.9890046119689941  0.49769115447998047  1.0000
  Mn  Mn1       1.0  0.4606274664402008  0.8601046204566956  0.05886140093207366  1.0000
  Mn  Mn2       1.0  0.9960340857505798  0.4081202745437622  0.5417216420173645  1.0000
  Mn  Mn3       1.0  0.022516140714287758  0.8060125708580017  0.47269779443740845  1.0000
  Sb  Sb1       1.0  0.30861788988113403  0.5615322589874268  0.5179506540298462  1.0000
  Sb  Sb2       1.0  0.4129846394062042  0.5858809947967529  0.7553181052207947  1.0000
  Zn  Zn1       1.0  0.3303363621234894  0.5244495868682861  0.060481198132038186  1.0000
