data_image0
_chemical_formula_structural       F3Mn2TbZn4
_chemical_formula_sum              "F3 Mn2 Tb1 Zn4"
_cell_length_a       6.254066059406869
_cell_length_b       5.597220906207399
_cell_length_c       7.9181389808654785
_cell_angle_alpha    99.88448097961516
_cell_angle_beta     90.00850846997061
_cell_angle_gamma    88.95263089689065

_space_group_name_H-M_alt    "P 1"
_space_group_IT_number       1

loop_
  _space_group_symop_operation_xyz
  'x, y, z'

loop_
  _atom_site_type_symbol
  _atom_site_label
  _atom_site_symmetry_multiplicity
  _atom_site_fract_x
  _atom_site_fract_y
  _atom_site_fract_z
  _atom_site_occupancy
  F   F1        1.0  0.5345304012298584  0.0606033094227314  0.813154935836792  1.0000
  F   F2        1.0  0.5244048237800598  0.5730232000350952  0.4519657492637634  1.0000
  F   F3        1.0  0.02390816062688827  0.13725967705249786  0.9748677611351013  1.0000
  Mn  Mn1       1.0  0.304145872592926  0.07858546078205109  0.7311217784881592  1.0000
  Mn  Mn2       1.0  0.015233792364597319  0.7999210953712463  0.47712549567222595  1.0000
  Tb  Tb1       1.0  0.008510079234838486  0.8860523104667664  0.04865804687142371  1.0000
  Zn  Zn1       1.0  0.009587205946445465  0.0632089152932167  0.23608633875846863  1.0000
  Zn  Zn2       1.0  0.5199747085571289  0.6239796280860901  0.6078885197639465  1.0000
  Zn  Zn3       1.0  0.5045573115348816  0.3792768716812134  0.3514512777328491  1.0000
  Zn  Zn4       1.0  0.024953840300440785  0.04271877929568291  0.2933574318885803  1.0000
