data_image0
_chemical_formula_structural       CsGaGeHISb3TbZn2
_chemical_formula_sum              "Cs1 Ga1 Ge1 H1 I1 Sb3 Tb1 Zn2"
_cell_length_a       6.532157769826385
_cell_length_b       6.900854764754756
_cell_length_c       7.268467426300049
_cell_angle_alpha    90.18257542150901
_cell_angle_beta     91.05715764608031
_cell_angle_gamma    90.98728005361636

_space_group_name_H-M_alt    "P 1"
_space_group_IT_number       1

loop_
  _space_group_symop_operation_xyz
  'x, y, z'

loop_
  _atom_site_type_symbol
  _atom_site_label
  _atom_site_symmetry_multiplicity
  _atom_site_fract_x
  _atom_site_fract_y
  _atom_site_fract_z
  _atom_site_occupancy
  Cs  Cs1       1.0  0.7285258173942566  0.6680368185043335  0.9089064002037048  1.0000
  Ga  Ga1       1.0  0.7409252524375916  0.5416551232337952  0.44232177734375  1.0000
  Ge  Ge1       1.0  0.7313185334205627  0.8538488745689392  0.23056887090206146  1.0000
  H   H1        1.0  0.2368450164794922  0.41223445534706116  0.1854306161403656  1.0000
  I   I1        1.0  0.21931420266628265  0.09378278255462646  0.5846536755561829  1.0000
  Sb  Sb1       1.0  0.7283954620361328  0.7309465408325195  0.8662176132202148  1.0000
  Sb  Sb2       1.0  0.23196861147880554  0.32865428924560547  0.36180922389030457  1.0000
  Sb  Sb3       1.0  0.721529483795166  0.578748881816864  0.5233867764472961  1.0000
  Tb  Tb1       1.0  0.226142019033432  0.13675816357135773  0.7541000247001648  1.0000
  Zn  Zn1       1.0  0.228549987077713  0.9419447183609009  0.8795619010925293  1.0000
  Zn  Zn2       1.0  0.7242794632911682  0.08800263702869415  0.03457034006714821  1.0000
