data_image0
_chemical_formula_structural       AsGaGeISb4TiVZn
_chemical_formula_sum              "As1 Ga1 Ge1 I1 Sb4 Ti1 V1 Zn1"
_cell_length_a       5.164688265546251
_cell_length_b       7.059153165517802
_cell_length_c       9.264970779418945
_cell_angle_alpha    114.65355263802596
_cell_angle_beta     92.25456469994838
_cell_angle_gamma    93.78906966758612

_space_group_name_H-M_alt    "P 1"
_space_group_IT_number       1

loop_
  _space_group_symop_operation_xyz
  'x, y, z'

loop_
  _atom_site_type_symbol
  _atom_site_label
  _atom_site_symmetry_multiplicity
  _atom_site_fract_x
  _atom_site_fract_y
  _atom_site_fract_z
  _atom_site_occupancy
  As  As1       1.0  0.2711591422557831  0.03444681689143181  0.8504835963249207  1.0000
  Ga  Ga1       1.0  0.26752859354019165  0.8635935783386232  0.1869729906320572  1.0000
  Ge  Ge1       1.0  0.7727247476577759  0.37830641865730286  0.7964714765548706  1.0000
  I   I1        1.0  0.7625008821487427  0.34255072474479675  0.044723790138959905  1.0000
  Sb  Sb1       1.0  0.7713261246681213  0.22510775923728946  0.3445984125137329  1.0000
  Sb  Sb2       1.0  0.27401015162467957  0.2526191174983978  0.20229412615299225  1.0000
  Sb  Sb3       1.0  0.27795180678367615  0.7192132472991943  0.11188242584466938  1.0000
  Sb  Sb4       1.0  0.7690027356147766  0.7324498295783997  0.7908032536506653  1.0000
  Ti  Ti1       1.0  0.7756522297859192  0.4073672294616699  0.7405264973640442  1.0000
  V   V1        1.0  0.27510836720466614  0.930659055709839  0.4237341284751892  1.0000
  Zn  Zn1       1.0  0.7727145552635193  0.4670340716838837  0.776528537273407  1.0000
