data_image0
_chemical_formula_structural       AsGeISb6VZn
_chemical_formula_sum              "As1 Ge1 I1 Sb6 V1 Zn1"
_cell_length_a       6.480241308452562
_cell_length_b       6.455895018848318
_cell_length_c       6.8968825340271
_cell_angle_alpha    110.11094297629329
_cell_angle_beta     111.54894242982441
_cell_angle_gamma    115.09971273981616

_space_group_name_H-M_alt    "P 1"
_space_group_IT_number       1

loop_
  _space_group_symop_operation_xyz
  'x, y, z'

loop_
  _atom_site_type_symbol
  _atom_site_label
  _atom_site_symmetry_multiplicity
  _atom_site_fract_x
  _atom_site_fract_y
  _atom_site_fract_z
  _atom_site_occupancy
  As  As1       1.0  0.7653650045394897  0.4793374240398407  0.5157676935195923  1.0000
  Ge  Ge1       1.0  0.6986385583877563  0.06954958289861679  0.8944363594055175  1.0000
  I   I1        1.0  0.5039640665054321  0.1737150400876999  0.427179604768753  1.0000
  Sb  Sb1       1.0  0.006046209018677473  0.1641654223203659  0.7662636041641234  1.0000
  Sb  Sb2       1.0  0.6647765636444092  0.3199695646762848  0.8490962386131286  1.0000
  Sb  Sb3       1.0  0.8377383351325989  0.9716386795043945  0.457182765007019  1.0000
  Sb  Sb4       1.0  0.6511533856391907  0.5977762341499329  0.23003567755222318  1.0000
  Sb  Sb5       1.0  0.16539530456066132  0.5629183053970337  0.8365021347999572  1.0000
  Sb  Sb6       1.0  0.253621906042099  0.189157634973526  0.6517291069030761  1.0000
  V   V1        1.0  0.23953023552894592  0.35631200671195984  0.15809130668640137  1.0000
  Zn  Zn1       1.0  0.03424897417426109  0.6210059523582458  0.5978028178215027  1.0000
