data_image0
_chemical_formula_structural       AsGe2ILaSb4VZn
_chemical_formula_sum              "As1 Ge2 I1 La1 Sb4 V1 Zn1"
_cell_length_a       5.990746507203489
_cell_length_b       6.019642283720381
_cell_length_c       9.25398063659668
_cell_angle_alpha    89.47947749190298
_cell_angle_beta     91.43296502862025
_cell_angle_gamma    90.88170811753761

_space_group_name_H-M_alt    "P 1"
_space_group_IT_number       1

loop_
  _space_group_symop_operation_xyz
  'x, y, z'

loop_
  _atom_site_type_symbol
  _atom_site_label
  _atom_site_symmetry_multiplicity
  _atom_site_fract_x
  _atom_site_fract_y
  _atom_site_fract_z
  _atom_site_occupancy
  As  As1       1.0  0.3251704275608063  0.680854856967926  0.08086307346820831  1.0000
  Ge  Ge1       1.0  0.24119193851947782  0.7993860840797424  0.6486389636993408  1.0000
  Ge  Ge2       1.0  0.26716411113739014  0.33522894978523254  0.36800602078437805  1.0000
  I   I1        1.0  0.26821550726890564  0.23314835131168365  0.05008315667510033  1.0000
  La  La1       1.0  0.2743018865585327  0.5921977758407593  0.9104899764060974  1.0000
  Sb  Sb1       1.0  0.7740145325660706  0.20761165022850037  0.8927890658378601  1.0000
  Sb  Sb2       1.0  0.7479015588760376  0.5711572766304016  0.563791036605835  1.0000
  Sb  Sb3       1.0  0.7547726631164551  0.46091344952583313  0.41081303358078003  1.0000
  Sb  Sb4       1.0  0.7705977559089661  0.24101553857326508  0.6151961088180542  1.0000
  V   V1        1.0  0.24097412824630735  0.9800798892974854  0.30014342069625854  1.0000
  Zn  Zn1       1.0  0.7649855613708496  0.6567170023918152  0.6046079993247986  1.0000
