data_image0
_chemical_formula_structural       Cs4FSb6
_chemical_formula_sum              "Cs4 F1 Sb6"
_cell_length_a       6.999000364360392
_cell_length_b       7.223694462629969
_cell_length_c       8.454524040222168
_cell_angle_alpha    111.99270998993963
_cell_angle_beta     111.61560499282402
_cell_angle_gamma    92.23617977206237

_space_group_name_H-M_alt    "P 1"
_space_group_IT_number       1

loop_
  _space_group_symop_operation_xyz
  'x, y, z'

loop_
  _atom_site_type_symbol
  _atom_site_label
  _atom_site_symmetry_multiplicity
  _atom_site_fract_x
  _atom_site_fract_y
  _atom_site_fract_z
  _atom_site_occupancy
  Cs  Cs1       1.0  0.0125424200668931  0.7438540458679199  0.8804872035980225  1.0000
  Cs  Cs2       1.0  0.5005072355270386  0.12169717252254486  0.01821521855890751  1.0000
  Cs  Cs3       1.0  0.10589881241321564  0.8047103881835938  0.279113233089447  1.0000
  Cs  Cs4       1.0  0.10226398706436157  0.45578888058662415  0.3808553218841553  1.0000
  F   F1        1.0  0.6268607974052429  0.3089398443698883  0.6077682971954346  1.0000
  Sb  Sb1       1.0  0.8126519322395325  0.6112444400787354  0.0242606233805418  1.0000
  Sb  Sb2       1.0  0.6056853532791138  0.8456210494041443  0.8846614956855774  1.0000
  Sb  Sb3       1.0  0.614812970161438  0.34586942195892334  0.36928337812423706  1.0000
  Sb  Sb4       1.0  0.11334185302257538  0.8600376844406128  0.055455535650253296  1.0000
  Sb  Sb5       1.0  0.6008720397949219  0.9390931129455566  0.6409760117530823  1.0000
  Sb  Sb6       1.0  0.6054655313491821  0.8396180868148804  0.26952672004699707  1.0000
