data_image0
_chemical_formula_structural       Cs5Sb6
_chemical_formula_sum              "Cs5 Sb6"
_cell_length_a       6.885970798392276
_cell_length_b       7.215116155118323
_cell_length_c       10.71002197265625
_cell_angle_alpha    107.29766684719482
_cell_angle_beta     93.31504142372087
_cell_angle_gamma    104.68307867884755

_space_group_name_H-M_alt    "P 1"
_space_group_IT_number       1

loop_
  _space_group_symop_operation_xyz
  'x, y, z'

loop_
  _atom_site_type_symbol
  _atom_site_label
  _atom_site_symmetry_multiplicity
  _atom_site_fract_x
  _atom_site_fract_y
  _atom_site_fract_z
  _atom_site_occupancy
  Cs  Cs1       1.0  0.23027496039867398  0.4136313498020172  0.007685707416385412  1.0000
  Cs  Cs2       1.0  0.7082802057266235  0.7315204739570618  0.23741008341312408  1.0000
  Cs  Cs3       1.0  0.6999949216842651  0.4340488314628601  0.408022940158844  1.0000
  Cs  Cs4       1.0  0.31940126419067383  0.38730388879776  0.2569178640842438  1.0000
  Cs  Cs5       1.0  0.0074597387574613086  0.21784362196922302  0.9778715968132019  1.0000
  Sb  Sb1       1.0  0.0459231398999691  0.3497292399406433  0.354574054479599  1.0000
  Sb  Sb2       1.0  0.929745316505432  0.1735127866268158  0.5271045565605164  1.0000
  Sb  Sb3       1.0  0.4040284156799316  0.2349703311920166  0.5784443616867065  1.0000
  Sb  Sb4       1.0  0.5223376154899597  0.9051551818847656  0.26774168014526367  1.0000
  Sb  Sb5       1.0  0.4691201448440551  0.2636655271053314  0.9593080878257751  1.0000
  Sb  Sb6       1.0  0.03377392143011093  0.4352530539035797  0.3248058259487152  1.0000
