data_image0
_chemical_formula_structural       Ce2CoDy2IInMgPr2Se5
_chemical_formula_sum              "Ce2 Co1 Dy2 I1 In1 Mg1 Pr2 Se5"
_cell_length_a       6.239273103641514
_cell_length_b       8.87175219568516
_cell_length_c       9.600746154785156
_cell_angle_alpha    122.11454602343875
_cell_angle_beta     89.04302579181044
_cell_angle_gamma    96.2666657032904

_space_group_name_H-M_alt    "P 1"
_space_group_IT_number       1

loop_
  _space_group_symop_operation_xyz
  'x, y, z'

loop_
  _atom_site_type_symbol
  _atom_site_label
  _atom_site_symmetry_multiplicity
  _atom_site_fract_x
  _atom_site_fract_y
  _atom_site_fract_z
  _atom_site_occupancy
  Ce  Ce1       1.0  0.024480951949954033  0.6354251503944397  0.7744731903076172  1.0000
  Ce  Ce2       1.0  0.7292243242263794  0.8912298679351807  0.308233618736267  1.0000
  Co  Co1       1.0  0.6280087828636169  0.3028857111930847  0.5153355598449707  1.0000
  Dy  Dy1       1.0  0.5123085975646973  0.18707048892974854  0.6895467042922974  1.0000
  Dy  Dy2       1.0  0.03190886974334717  0.9379119277000427  0.9286301732063293  1.0000
  I   I1        1.0  0.5118836760520935  0.6388810276985168  0.5436924695968628  1.0000
  In  In1       1.0  0.5108803510665894  0.8533328771591187  0.5621886253356934  1.0000
  Mg  Mg1       1.0  0.07383256405591965  0.7869025468826294  0.8215746879577637  1.0000
  Pr  Pr1       1.0  0.4967932105064392  0.896808385848999  0.5006096363067627  1.0000
  Pr  Pr2       1.0  0.05582593381404877  0.6648893356323242  0.7709667086601257  1.0000
  Se  Se1       1.0  0.5030049085617065  0.3180634379386902  0.9339415431022644  1.0000
  Se  Se2       1.0  0.9858822822570801  0.614591121673584  0.5658087730407715  1.0000
  Se  Se3       1.0  0.055021967738866806  0.17870455980300903  0.5614410638809204  1.0000
  Se  Se4       1.0  0.039279308170080185  0.7879867553710938  0.34053936600685114  1.0000
  Se  Se5       1.0  0.03257202357053757  0.19168946146965027  0.8300521969795227  1.0000
