data_image0
_chemical_formula_structural       Ce2FeGe2I2LuSe7
_chemical_formula_sum              "Ce2 Fe1 Ge2 I2 Lu1 Se7"
_cell_length_a       5.0384399538749545
_cell_length_b       4.985990039494862
_cell_length_c       11.927217483520508
_cell_angle_alpha    92.77835675461382
_cell_angle_beta     90.81289030164741
_cell_angle_gamma    134.20309379365577

_space_group_name_H-M_alt    "P 1"
_space_group_IT_number       1

loop_
  _space_group_symop_operation_xyz
  'x, y, z'

loop_
  _atom_site_type_symbol
  _atom_site_label
  _atom_site_symmetry_multiplicity
  _atom_site_fract_x
  _atom_site_fract_y
  _atom_site_fract_z
  _atom_site_occupancy
  Ce  Ce1       1.0  0.5476955771446228  0.6715097427368164  0.405849814414978  1.0000
  Ce  Ce2       1.0  0.8175690174102783  0.9862485527992249  0.14155936241149902  1.0000
  Fe  Fe1       1.0  0.10118941962718964  0.14057835936546326  0.1140909418463707  1.0000
  Ge  Ge1       1.0  0.21694405376911163  0.4259474575519562  0.89496248960495  1.0000
  Ge  Ge2       1.0  0.7566375732421875  0.05673215165734291  0.5861561298370361  1.0000
  I   I1        1.0  0.5607169270515442  0.9875683784484863  0.6518815755844116  1.0000
  I   I2        1.0  0.2681833803653717  0.4612344205379486  0.7126528024673462  1.0000
  Lu  Lu1       1.0  0.25287163257598877  0.9879706501960754  0.6274950504302979  1.0000
  Se  Se1       1.0  0.24902918934822083  0.08849490433931351  0.5995373129844666  1.0000
  Se  Se2       1.0  0.6133939623832703  0.16251254081726074  0.48962023854255676  1.0000
  Se  Se3       1.0  0.664379358291626  0.4516572058200836  0.0666746124625206  1.0000
  Se  Se4       1.0  0.16145658493041992  0.77538001537323  0.7251155376434326  1.0000
  Se  Se5       1.0  0.24803288280963898  0.919208288192749  0.7976844906806946  1.0000
  Se  Se6       1.0  0.24448490142822266  0.5090081691741943  0.8861873149871826  1.0000
  Se  Se7       1.0  0.2842876613140106  0.6961448192596436  0.4170258641242981  1.0000
