data_image0
_chemical_formula_structural       In9LaSe5
_chemical_formula_sum              "In9 La1 Se5"
_cell_length_a       4.071373311536738
_cell_length_b       4.069046964315042
_cell_length_c       20.746986389160156
_cell_angle_alpha    119.19463143132032
_cell_angle_beta     106.30975590265669
_cell_angle_gamma    80.2775534711634

_space_group_name_H-M_alt    "P 1"
_space_group_IT_number       1

loop_
  _space_group_symop_operation_xyz
  'x, y, z'

loop_
  _atom_site_type_symbol
  _atom_site_label
  _atom_site_symmetry_multiplicity
  _atom_site_fract_x
  _atom_site_fract_y
  _atom_site_fract_z
  _atom_site_occupancy
  In  In1       1.0  0.37827831506729126  0.17249295115470886  0.30555278062820435  1.0000
  In  In2       1.0  0.9359114766120911  0.6255382895469666  0.0978044867515564  1.0000
  In  In3       1.0  0.21811896562576294  0.8019397258758544  0.5000042915344238  1.0000
  In  In4       1.0  0.3018105626106262  0.9128909707069396  0.78447425365448  1.0000
  In  In5       1.0  0.24435091018676758  0.19530826807022092  0.46931436657905584  1.0000
  In  In6       1.0  0.6169755458831787  0.15078642964363098  0.010284999385476112  1.0000
  In  In7       1.0  0.7270811200141907  0.3090061843395233  0.6484723091125488  1.0000
  In  In8       1.0  0.20522309839725494  0.36160698533058167  0.7527682185173035  1.0000
  In  In9       1.0  0.8081026673316956  0.9409255981445311  0.18940791487693787  1.0000
  La  La1       1.0  0.9104533195495605  0.9599190354347228  0.35580354928970337  1.0000
  Se  Se1       1.0  0.3301474153995514  0.010775872506201267  0.7015586495399475  1.0000
  Se  Se2       1.0  0.1876455843448639  0.179859921336174  0.5570758581161499  1.0000
  Se  Se3       1.0  0.8829670548439026  0.47559946775436396  0.6387046575546265  1.0000
  Se  Se4       1.0  0.9992974996566772  0.7403452396392821  0.9421353936195375  1.0000
  Se  Se5       1.0  0.5992944836616516  0.46042308211326594  0.4670496881008149  1.0000
