data_image0
_chemical_formula_structural       Ce5Dy3InSe5Zn
_chemical_formula_sum              "Ce5 Dy3 In1 Se5 Zn1"
_cell_length_a       5.614325783731115
_cell_length_b       5.96413903328117
_cell_length_c       15.673653602600098
_cell_angle_alpha    105.80189568760737
_cell_angle_beta     95.03386407021026
_cell_angle_gamma    88.89312657893528

_space_group_name_H-M_alt    "P 1"
_space_group_IT_number       1

loop_
  _space_group_symop_operation_xyz
  'x, y, z'

loop_
  _atom_site_type_symbol
  _atom_site_label
  _atom_site_symmetry_multiplicity
  _atom_site_fract_x
  _atom_site_fract_y
  _atom_site_fract_z
  _atom_site_occupancy
  Ce  Ce1       1.0  0.11920502781867981  0.7010936737060547  0.7249755263328552  1.0000
  Ce  Ce2       1.0  0.7877200245857239  0.8430477380752562  0.7174199819564819  1.0000
  Ce  Ce3       1.0  0.6153178811073303  0.5755589008331299  0.2522057592868805  1.0000
  Ce  Ce4       1.0  0.6101275682449341  0.8572475910186766  0.5787602663040161  1.0000
  Ce  Ce5       1.0  0.11196815222501755  0.8281794786453246  0.8795239329338073  1.0000
  Dy  Dy1       1.0  0.6221154928207397  0.4799733161926269  0.20805205404758453  1.0000
  Dy  Dy2       1.0  0.606424868106842  0.4298064708709716  0.5389653444290161  1.0000
  Dy  Dy3       1.0  0.11200550198554993  0.8867481350898742  0.9940264225006105  1.0000
  In  In1       1.0  0.3534982204437256  0.09379131346940993  0.7458716630935669  1.0000
  Se  Se1       1.0  0.10737448930740356  0.5961150527000427  0.3138268291950226  1.0000
  Se  Se2       1.0  0.11953458935022354  0.32705527544021606  0.7552739977836609  1.0000
  Se  Se3       1.0  0.10771522670984268  0.1449933797121048  0.8470977544784546  1.0000
  Se  Se4       1.0  0.6081392168998718  0.6271110773086548  0.06834632158279418  1.0000
  Se  Se5       1.0  0.6054335236549376  0.7169577479362487  0.5264110565185547  1.0000
  Zn  Zn1       1.0  0.10636147111654282  0.1187770441174507  0.5482936501502991  1.0000
