data_image0
_chemical_formula_structural       Ce5Co2DyIInSe5
_chemical_formula_sum              "Ce5 Co2 Dy1 I1 In1 Se5"
_cell_length_a       5.804707995923128
_cell_length_b       8.82334815164535
_cell_length_c       9.918410301208496
_cell_angle_alpha    120.00134754897162
_cell_angle_beta     90.58705536477183
_cell_angle_gamma    93.12570131322664

_space_group_name_H-M_alt    "P 1"
_space_group_IT_number       1

loop_
  _space_group_symop_operation_xyz
  'x, y, z'

loop_
  _atom_site_type_symbol
  _atom_site_label
  _atom_site_symmetry_multiplicity
  _atom_site_fract_x
  _atom_site_fract_y
  _atom_site_fract_z
  _atom_site_occupancy
  Ce  Ce1       1.0  0.9165809750556947  0.2719593644142151  0.7429661154747009  1.0000
  Ce  Ce2       1.0  0.3885744512081147  0.8223167657852174  0.38219910860061657  1.0000
  Ce  Ce3       1.0  0.8905470967292787  0.4274872839450837  0.7949100136756897  1.0000
  Ce  Ce4       1.0  0.8871026039123536  0.7637245059013367  0.9297485351562501  1.0000
  Ce  Ce5       1.0  0.38930931687355047  0.40793403983116155  0.31610211730003357  1.0000
  Co  Co1       1.0  0.38501587510108953  0.7548609375953674  0.9301104545593263  1.0000
  Co  Co2       1.0  0.8805731534957887  0.08701592683792114  0.15974578261375427  1.0000
  Dy  Dy1       1.0  0.3909435868263245  0.8660263419151307  0.14752905070781713  1.0000
  I   I1        1.0  0.8845834732055665  0.841527283191681  0.14001527428627014  1.0000
  In  In1       1.0  0.8782230019569398  0.9845665693283082  0.028807444497942924  1.0000
  Se  Se1       1.0  0.3872074484825135  0.1277153640985489  0.15355132520198822  1.0000
  Se  Se2       1.0  0.3946689665317536  0.17091645300388336  0.36053624749183655  1.0000
  Se  Se3       1.0  0.8965523242950441  0.6366276144981384  0.4462568461894989  1.0000
  Se  Se4       1.0  0.3805984556674958  0.95576149225235  0.22699406743049622  1.0000
  Se  Se5       1.0  0.8847727775573732  0.2129550874233246  0.3601941466331482  1.0000
