data_image0
_chemical_formula_structural       In2Se13
_chemical_formula_sum              "In2 Se13"
_cell_length_a       6.629957789899382
_cell_length_b       12.260093391765206
_cell_length_c       38.78807067871094
_cell_angle_alpha    112.76152786750826
_cell_angle_beta     104.75833328161079
_cell_angle_gamma    85.16401031697214

_space_group_name_H-M_alt    "P 1"
_space_group_IT_number       1

loop_
  _space_group_symop_operation_xyz
  'x, y, z'

loop_
  _atom_site_type_symbol
  _atom_site_label
  _atom_site_symmetry_multiplicity
  _atom_site_fract_x
  _atom_site_fract_y
  _atom_site_fract_z
  _atom_site_occupancy
  In  In1       1.0  0.3900426626205444  0.8017340898513794  0.8259662389755249  1.0000
  In  In2       1.0  0.20376430451869962  0.11156796663999557  0.22221404314041138  1.0000
  Se  Se1       1.0  0.3858259320259094  0.9530982971191406  0.6228011250495911  1.0000
  Se  Se2       1.0  0.9937437176704406  0.8965203762054443  0.05585670843720434  1.0000
  Se  Se3       1.0  0.7070474028587341  0.20867140591144562  0.07679439336061478  1.0000
  Se  Se4       1.0  0.6407299041748047  0.5216780304908752  0.7269392013549805  1.0000
  Se  Se5       1.0  0.34484896063804626  0.3324742019176483  0.9333485960960388  1.0000
  Se  Se6       1.0  0.18226724863052368  0.674620509147644  0.7472489476203918  1.0000
  Se  Se7       1.0  0.8266888856887816  0.6383880376815796  0.37778279185295105  1.0000
  Se  Se8       1.0  0.09891258925199507  0.9106213450431824  0.6421501040458679  1.0000
  Se  Se9       1.0  0.3679831326007843  0.8619380593299866  0.6772066950798035  1.0000
  Se  Se10      1.0  0.5162897706031799  0.6941775679588318  0.3757549822330475  1.0000
  Se  Se11      1.0  0.11402543634176253  0.3150619864463806  0.7038037180900573  1.0000
  Se  Se12      1.0  0.10144557803869246  0.22970949113368988  0.951035737991333  1.0000
  Se  Se13      1.0  0.7859463095664977  0.5417280197143555  0.26360568404197693  1.0000
