data_image0
_chemical_formula_structural       O6S2SbTi
_chemical_formula_sum              "O6 S2 Sb1 Ti1"
_cell_length_a       5.508740796315547
_cell_length_b       5.959985428845692
_cell_length_c       6.63508939743042
_cell_angle_alpha    112.21049046676934
_cell_angle_beta     115.10689219041512
_cell_angle_gamma    89.35283007967496

_space_group_name_H-M_alt    "P 1"
_space_group_IT_number       1

loop_
  _space_group_symop_operation_xyz
  'x, y, z'

loop_
  _atom_site_type_symbol
  _atom_site_label
  _atom_site_symmetry_multiplicity
  _atom_site_fract_x
  _atom_site_fract_y
  _atom_site_fract_z
  _atom_site_occupancy
  O   O1        1.0  0.021879374980926514  0.5363555550575256  0.4964257776737213  1.0000
  O   O2        1.0  0.004642213694751263  0.38999032974243164  0.13135252892971036  1.0000
  O   O3        1.0  0.13799622654914856  0.9531557559967041  0.5975360870361328  1.0000
  O   O4        1.0  0.4370614290237427  0.2627062201499939  0.3819615840911865  1.0000
  O   O5        1.0  0.9831899404525757  0.0721956193447113  0.9207696318626404  1.0000
  O   O6        1.0  0.9307606816291809  0.1740715056657791  0.6377800107002258  1.0000
  S   S1        1.0  0.02413717471063137  0.8373122215270996  0.39626345038414  1.0000
  S   S2        1.0  0.21175162494182587  0.4752447009086609  0.9175461530685425  1.0000
  Sb  Sb1       1.0  0.7030522227287292  0.10332642495632172  0.8928850293159485  1.0000
  Ti  Ti1       1.0  0.035293370485305786  0.3567385673522949  0.9075618386268616  1.0000
