data_image0
_chemical_formula_structural       O4SSb2Si3
_chemical_formula_sum              "O4 S1 Sb2 Si3"
_cell_length_a       5.629928425436123
_cell_length_b       6.089788986704447
_cell_length_c       6.325909614562988
_cell_angle_alpha    65.08412508091038
_cell_angle_beta     62.73368807453656
_cell_angle_gamma    63.16656859561063

_space_group_name_H-M_alt    "P 1"
_space_group_IT_number       1

loop_
  _space_group_symop_operation_xyz
  'x, y, z'

loop_
  _atom_site_type_symbol
  _atom_site_label
  _atom_site_symmetry_multiplicity
  _atom_site_fract_x
  _atom_site_fract_y
  _atom_site_fract_z
  _atom_site_occupancy
  O   O1        1.0  0.40722039341926575  0.4782690703868866  0.9323320984840393  1.0000
  O   O2        1.0  0.35708022117614746  0.8052194118499756  0.8407213687896729  1.0000
  O   O3        1.0  0.34880220890045166  0.2840072214603424  0.37228459119796753  1.0000
  O   O4        1.0  0.9399641752243043  0.4666183888912201  0.8017091751098633  1.0000
  S   S1        1.0  0.8301978707313538  0.40652117133140564  0.08877509832382202  1.0000
  Sb  Sb1       1.0  0.3694456219673157  0.28569602966308594  0.20525182783603668  1.0000
  Sb  Sb2       1.0  0.36765360832214355  0.5918375253677368  0.6830898523330688  1.0000
  Si  Si1       1.0  0.6051769256591797  0.8440993428230286  0.1931031197309494  1.0000
  Si  Si2       1.0  0.09376846253871918  0.8218696117401123  0.1680016666650772  1.0000
  Si  Si3       1.0  0.3467006981372833  0.1389671266078949  0.12770690023899078  1.0000
