data_image0
_chemical_formula_structural       O3S4Ti3
_chemical_formula_sum              "O3 S4 Ti3"
_cell_length_a       5.722275460633923
_cell_length_b       5.816916500609349
_cell_length_c       6.553095817565918
_cell_angle_alpha    115.72449043608626
_cell_angle_beta     114.90193729602743
_cell_angle_gamma    88.82217566828258

_space_group_name_H-M_alt    "P 1"
_space_group_IT_number       1

loop_
  _space_group_symop_operation_xyz
  'x, y, z'

loop_
  _atom_site_type_symbol
  _atom_site_label
  _atom_site_symmetry_multiplicity
  _atom_site_fract_x
  _atom_site_fract_y
  _atom_site_fract_z
  _atom_site_occupancy
  O   O1        1.0  0.7588924169540405  0.018373746424913406  0.34180331230163574  1.0000
  O   O2        1.0  0.5150299668312073  0.536084771156311  0.3345322012901306  1.0000
  O   O3        1.0  0.7688474059104919  0.6979262828826904  0.5922276973724365  1.0000
  S   S1        1.0  0.07474225759506226  0.08129134029150009  0.5207217335700989  1.0000
  S   S2        1.0  0.41134124994277954  0.8017697334289551  0.5796785950660706  1.0000
  S   S3        1.0  0.6033663749694824  0.07002059370279312  0.9769312143325806  1.0000
  S   S4        1.0  0.9113889932632446  0.7846701145172119  0.8494266867637634  1.0000
  Ti  Ti1       1.0  0.969586968421936  0.3284708261489868  0.8716208338737488  1.0000
  Ti  Ti2       1.0  0.7420923113822937  0.43688517808914185  0.6057723760604858  1.0000
  Ti  Ti3       1.0  0.06400351226329803  0.07566042989492416  0.08761923760175705  1.0000
