data_image0
_chemical_formula_structural       O4S2Si3Tl
_chemical_formula_sum              "O4 S2 Si3 Tl1"
_cell_length_a       5.7183710869643525
_cell_length_b       6.395451636718203
_cell_length_c       6.69228458404541
_cell_angle_alpha    69.4625879671649
_cell_angle_beta     64.10307612874489
_cell_angle_gamma    65.46034405348425

_space_group_name_H-M_alt    "P 1"
_space_group_IT_number       1

loop_
  _space_group_symop_operation_xyz
  'x, y, z'

loop_
  _atom_site_type_symbol
  _atom_site_label
  _atom_site_symmetry_multiplicity
  _atom_site_fract_x
  _atom_site_fract_y
  _atom_site_fract_z
  _atom_site_occupancy
  O   O1        1.0  0.32755419611930847  0.4083384573459625  0.9329765439033508  1.0000
  O   O2        1.0  0.03256732597947121  0.8269163370132446  0.08169238269329071  1.0000
  O   O3        1.0  0.7016759514808655  0.16704103350639343  0.944284200668335  1.0000
  O   O4        1.0  0.35275980830192566  0.576122522354126  0.6069589257240295  1.0000
  S   S1        1.0  0.6187067627906799  0.9150705933570862  0.680227518081665  1.0000
  S   S2        1.0  0.07715258002281189  0.3470298945903778  0.0625901147723198  1.0000
  Si  Si1       1.0  0.6103197336196899  0.7997133731842041  0.2810673117637634  1.0000
  Si  Si2       1.0  0.4138556122779846  0.6860690712928772  0.41870108246803284  1.0000
  Si  Si3       1.0  0.4260103404521942  0.1912609189748764  0.8157926201820374  1.0000
  Tl  Tl1       1.0  0.05618436634540558  0.8573705554008484  0.09630878269672394  1.0000
