data_image0
_chemical_formula_structural       O4PS2Si2Tl
_chemical_formula_sum              "O4 P1 S2 Si2 Tl1"
_cell_length_a       5.561694717430971
_cell_length_b       6.405975877852995
_cell_length_c       6.720470905303955
_cell_angle_alpha    69.04676022324188
_cell_angle_beta     61.957079813034774
_cell_angle_gamma    64.31141555391402

_space_group_name_H-M_alt    "P 1"
_space_group_IT_number       1

loop_
  _space_group_symop_operation_xyz
  'x, y, z'

loop_
  _atom_site_type_symbol
  _atom_site_label
  _atom_site_symmetry_multiplicity
  _atom_site_fract_x
  _atom_site_fract_y
  _atom_site_fract_z
  _atom_site_occupancy
  O   O1        1.0  0.15408571064472198  0.6499677300453186  0.8110155463218688  1.0000
  O   O2        1.0  0.09887710958719254  0.4123982787132263  0.016922537237405777  1.0000
  O   O3        1.0  0.39721134305000305  0.2875773012638092  0.14470912516117096  1.0000
  O   O4        1.0  0.8575624823570251  0.3191709518432617  0.7803947329521178  1.0000
  P   P1        1.0  0.18779243528842926  0.45659512281417847  0.4229815006256103  1.0000
  S   S1        1.0  0.3089101016521454  0.9061461687088013  0.7787955403327941  1.0000
  S   S2        1.0  0.9176015257835388  0.8733695149421692  0.6364908814430237  1.0000
  Si  Si1       1.0  0.3381538391113281  0.9981541037559509  0.13632620871067047  1.0000
  Si  Si2       1.0  0.11452322453260422  0.8692184686660767  0.8048813343048095  1.0000
  Tl  Tl1       1.0  0.6145159006118774  0.38786429166793823  0.5220910906791686  1.0000
