data_image0
_chemical_formula_structural       O3S3Ti4
_chemical_formula_sum              "O3 S3 Ti4"
_cell_length_a       5.323563335185683
_cell_length_b       5.3703219596054375
_cell_length_c       6.00977087020874
_cell_angle_alpha    118.95307684086451
_cell_angle_beta     115.90087233660623
_cell_angle_gamma    89.43407978913237

_space_group_name_H-M_alt    "P 1"
_space_group_IT_number       1

loop_
  _space_group_symop_operation_xyz
  'x, y, z'

loop_
  _atom_site_type_symbol
  _atom_site_label
  _atom_site_symmetry_multiplicity
  _atom_site_fract_x
  _atom_site_fract_y
  _atom_site_fract_z
  _atom_site_occupancy
  O   O1        1.0  0.778132438659668  0.8625080585479736  0.12705445289611816  1.0000
  O   O2        1.0  0.22092044353485107  0.5610104203224182  0.5659627318382263  1.0000
  O   O3        1.0  0.16742834448814392  0.6046252250671387  0.3295486569404602  1.0000
  S   S1        1.0  0.9074831604957581  0.18503838777542114  0.7136973142623901  1.0000
  S   S2        1.0  0.3952990174293518  0.916988730430603  0.3117414712905884  1.0000
  S   S3        1.0  0.6829915642738342  0.9873179793357849  0.07577274739742279  1.0000
  Ti  Ti1       1.0  0.05645081028342247  0.9832178950309753  0.08202477544546127  1.0000
  Ti  Ti2       1.0  0.5048902630805969  0.7699881792068481  0.9650650024414061  1.0000
  Ti  Ti3       1.0  0.49114149808883667  0.2460148185491562  0.8620873689651488  1.0000
  Ti  Ti4       1.0  0.0006701540551148355  0.2545540928840637  0.47186186909675587  1.0000
