data_image0
_chemical_formula_structural       InIrO3SbSr5TaTe2
_chemical_formula_sum              "In1 Ir1 O3 Sb1 Sr5 Ta1 Te2"
_cell_length_a       7.872605871394171
_cell_length_b       8.762078414712448
_cell_length_c       8.570180892944336
_cell_angle_alpha    69.45855255125389
_cell_angle_beta     65.62525782518154
_cell_angle_gamma    67.59852121198429

_space_group_name_H-M_alt    "P 1"
_space_group_IT_number       1

loop_
  _space_group_symop_operation_xyz
  'x, y, z'

loop_
  _atom_site_type_symbol
  _atom_site_label
  _atom_site_symmetry_multiplicity
  _atom_site_fract_x
  _atom_site_fract_y
  _atom_site_fract_z
  _atom_site_occupancy
  In  In1       1.0  0.34826257824897766  0.8233994841575621  0.7073792815208435  1.0000
  Ir  Ir1       1.0  0.5511120557785034  0.8269081711769103  0.7187581062316895  1.0000
  O   O1        1.0  0.8607640266418457  0.23716372251510617  0.49504032731056213  1.0000
  O   O2        1.0  0.0878083035349846  0.40697702765464777  0.06563155353069305  1.0000
  O   O3        1.0  0.3238109350204468  0.6792242527008056  0.7881312966346741  1.0000
  Sb  Sb1       1.0  0.07647528499364856  0.8215821981430053  0.2972801923751831  1.0000
  Sr  Sr1       1.0  0.8628993034362793  0.15307056903839109  0.6897578239440918  1.0000
  Sr  Sr2       1.0  0.8574312925338745  0.7629724144935607  0.5608402490615845  1.0000
  Sr  Sr3       1.0  0.3719920217990875  0.16035881638526914  0.18444277346134186  1.0000
  Sr  Sr4       1.0  0.33765256404876715  0.8889034390449523  0.42664551734924316  1.0000
  Sr  Sr5       1.0  0.8485322594642639  0.4116590023040771  0.057747647166252136  1.0000
  Ta  Ta1       1.0  0.5298219919204712  0.4357695281505584  0.7227391004562378  1.0000
  Te  Te1       1.0  0.3915225863456726  0.5108847618103027  0.9274516105651855  1.0000
  Te  Te2       1.0  0.3457038700580597  0.25999173521995544  0.5484650135040283  1.0000
