data_image0
_chemical_formula_structural       In2O3PSiSr6Tl
_chemical_formula_sum              "In2 O3 P1 Si1 Sr6 Tl1"
_cell_length_a       7.614254206700628
_cell_length_b       8.890307306585724
_cell_length_c       8.317773818969727
_cell_angle_alpha    92.87599359252764
_cell_angle_beta     93.84690728665942
_cell_angle_gamma    113.40180152059519

_space_group_name_H-M_alt    "P 1"
_space_group_IT_number       1

loop_
  _space_group_symop_operation_xyz
  'x, y, z'

loop_
  _atom_site_type_symbol
  _atom_site_label
  _atom_site_symmetry_multiplicity
  _atom_site_fract_x
  _atom_site_fract_y
  _atom_site_fract_z
  _atom_site_occupancy
  In  In1       1.0  0.22662220895290378  0.2393992841243744  0.6245970726013184  1.0000
  In  In2       1.0  0.872712552547455  0.709395170211792  0.8605614304542542  1.0000
  O   O1        1.0  0.5566036105155946  0.44709131121635437  0.9187272191047668  1.0000
  O   O2        1.0  0.08793604373931886  0.4689542055130005  0.8920885920524597  1.0000
  O   O3        1.0  0.5636445879936219  0.22531557083129883  0.5495635271072388  1.0000
  P   P1        1.0  0.7665625214576722  0.5218255519866943  0.4245840609073639  1.0000
  Si  Si1       1.0  0.2275061756372452  0.766998827457428  0.9147247076034546  1.0000
  Sr  Sr1       1.0  0.821542263031006  0.7583551406860352  0.9632043242454529  1.0000
  Sr  Sr2       1.0  0.08522039651870729  0.6294430494308472  0.6065780520439148  1.0000
  Sr  Sr3       1.0  0.7456752657890321  0.24544267356395721  0.2730219066143036  1.0000
  Sr  Sr4       1.0  0.3633149862289429  0.6958633661270142  0.8495457172393799  1.0000
  Sr  Sr5       1.0  0.7108586430549623  0.12742702662944794  0.1310780793428421  1.0000
  Sr  Sr6       1.0  0.20905578136444095  0.2815537452697754  0.3585345149040222  1.0000
  Tl  Tl1       1.0  0.5327922701835632  0.01906149461865425  0.4310024678707123  1.0000
