data_image0
_chemical_formula_structural       In2MoO3PTa6Tl
_chemical_formula_sum              "In2 Mo1 O3 P1 Ta6 Tl1"
_cell_length_a       6.64779449095094
_cell_length_b       6.758205748481201
_cell_length_c       6.963932037353516
_cell_angle_alpha    62.72368633049637
_cell_angle_beta     61.715753007964366
_cell_angle_gamma    61.21950708771259

_space_group_name_H-M_alt    "P 1"
_space_group_IT_number       1

loop_
  _space_group_symop_operation_xyz
  'x, y, z'

loop_
  _atom_site_type_symbol
  _atom_site_label
  _atom_site_symmetry_multiplicity
  _atom_site_fract_x
  _atom_site_fract_y
  _atom_site_fract_z
  _atom_site_occupancy
  In  In1       1.0  0.5205205082893372  0.7898152470588684  0.8288366794586182  1.0000
  In  In2       1.0  0.7881743907928467  0.08601173758506775  0.38710537552833557  1.0000
  Mo  Mo1       1.0  0.07519547641277313  0.8014487624168396  0.6331862211227417  1.0000
  O   O1        1.0  0.12155803292989731  0.5791253447532654  0.03930475562810898  1.0000
  O   O2        1.0  0.4949314296245575  0.26513877511024475  0.04206079989671707  1.0000
  O   O3        1.0  0.605158805847168  0.9497020840644836  0.547200620174408  1.0000
  P   P1        1.0  0.7823803424835205  0.5665484070777893  0.9217311143875122  1.0000
  Ta  Ta1       1.0  0.37186965346336365  0.08332043886184692  0.5443469285964966  1.0000
  Ta  Ta2       1.0  0.4991144835948944  0.640850305557251  0.9427945613861084  1.0000
  Ta  Ta3       1.0  0.11851634085178375  0.8809564113616943  0.159711554646492  1.0000
  Ta  Ta4       1.0  0.08303855359554291  0.288309246301651  0.990950345993042  1.0000
  Ta  Ta5       1.0  0.8149222135543823  0.016060208901762962  0.43462425470352173  1.0000
  Ta  Ta6       1.0  0.6147329807281494  0.5937461256980896  0.13833273947238922  1.0000
  Tl  Tl1       1.0  0.03781602531671524  0.27375781536102295  0.17558401823043823  1.0000
