data_image0
_chemical_formula_structural       In6O5Ta3
_chemical_formula_sum              "In6 O5 Ta3"
_cell_length_a       7.281765606279279
_cell_length_b       7.127035984252148
_cell_length_c       8.465216636657715
_cell_angle_alpha    59.33376664898656
_cell_angle_beta     61.24077826469966
_cell_angle_gamma    57.6401437240215

_space_group_name_H-M_alt    "P 1"
_space_group_IT_number       1

loop_
  _space_group_symop_operation_xyz
  'x, y, z'

loop_
  _atom_site_type_symbol
  _atom_site_label
  _atom_site_symmetry_multiplicity
  _atom_site_fract_x
  _atom_site_fract_y
  _atom_site_fract_z
  _atom_site_occupancy
  In  In1       1.0  0.5335564017295837  0.8824840188026427  0.4825880825519562  1.0000
  In  In2       1.0  0.9087079167366028  0.4055605828762054  0.9815979599952698  1.0000
  In  In3       1.0  0.9032249450683594  0.39423209428787226  0.4704686105251312  1.0000
  In  In4       1.0  0.9106093645095825  0.1968032121658325  0.9798547625541687  1.0000
  In  In5       1.0  0.3064229786396027  0.879979372024536  0.04633009433746338  1.0000
  In  In6       1.0  0.2817235589027405  0.4118983149528503  0.7328486442565918  1.0000
  O   O1        1.0  0.19953703880310064  0.9372397065162658  0.48685768246650696  1.0000
  O   O2        1.0  0.20474185049533844  0.028817405924201008  0.3472289443016052  1.0000
  O   O3        1.0  0.9665474295616149  0.38814920186996454  0.8091799020767212  1.0000
  O   O4        1.0  0.5533915162086487  0.14733527600765228  0.4429059326648712  1.0000
  O   O5        1.0  0.544686496257782  0.42896839976310724  0.3137124478816986  1.0000
  Ta  Ta1       1.0  0.30460473895072937  0.3110816180706024  0.8636562824249268  1.0000
  Ta  Ta2       1.0  0.7752129435539246  0.9029780626296996  0.26585882902145386  1.0000
  Ta  Ta3       1.0  0.4088042974472046  0.706012487411499  0.05525540933012968  1.0000
