data_image0
_chemical_formula_structural       CdIIn2NO2Ta6Ti
_chemical_formula_sum              "Cd1 I1 In2 N1 O2 Ta6 Ti1"
_cell_length_a       8.263083262854895
_cell_length_b       8.130207894394463
_cell_length_c       8.095550537109375
_cell_angle_alpha    58.95531035494135
_cell_angle_beta     60.445912930781795
_cell_angle_gamma    60.801355323230354

_space_group_name_H-M_alt    "P 1"
_space_group_IT_number       1

loop_
  _space_group_symop_operation_xyz
  'x, y, z'

loop_
  _atom_site_type_symbol
  _atom_site_label
  _atom_site_symmetry_multiplicity
  _atom_site_fract_x
  _atom_site_fract_y
  _atom_site_fract_z
  _atom_site_occupancy
  Cd  Cd1       1.0  0.4054533541202545  0.7665544748306274  0.3696475923061371  1.0000
  I   I1        1.0  0.3366550803184509  0.9359438419342041  0.5100113749504089  1.0000
  In  In1       1.0  0.36095020174980164  0.5280780792236328  0.5078612565994263  1.0000
  In  In2       1.0  0.9036345481872559  0.4008390009403229  0.734935998916626  1.0000
  N   N1        1.0  0.6625375151634216  0.8971925973892212  0.14750023186206818  1.0000
  O   O1        1.0  0.2099555879831314  0.1100158542394638  0.8245316743850708  1.0000
  O   O2        1.0  0.7005971670150757  0.1971532553434372  0.9161078929901123  1.0000
  Ta  Ta1       1.0  0.23440065979957578  0.19177420437335968  0.1490738540887833  1.0000
  Ta  Ta2       1.0  0.9171559810638427  0.7741519212722778  0.7223517894744873  1.0000
  Ta  Ta3       1.0  0.3815639317035675  0.1777525395154953  0.8779957890510559  1.0000
  Ta  Ta4       1.0  0.8908689022064209  0.8095006346702576  0.2271990031003952  1.0000
  Ta  Ta5       1.0  0.5244480967521667  0.1561509221792221  0.7028489112854004  1.0000
  Ta  Ta6       1.0  0.9406583309173583  0.7112381458282471  0.9693737626075745  1.0000
  Ti  Ti1       1.0  0.5558022260665894  0.14980879426002502  0.667781412601471  1.0000
