data_image0
_chemical_formula_structural       In6O5Ta3
_chemical_formula_sum              "In6 O5 Ta3"
_cell_length_a       6.8663040380381695
_cell_length_b       6.915402289761847
_cell_length_c       7.630338668823242
_cell_angle_alpha    61.56740347764901
_cell_angle_beta     61.99949436186461
_cell_angle_gamma    60.90769021193581

_space_group_name_H-M_alt    "P 1"
_space_group_IT_number       1

loop_
  _space_group_symop_operation_xyz
  'x, y, z'

loop_
  _atom_site_type_symbol
  _atom_site_label
  _atom_site_symmetry_multiplicity
  _atom_site_fract_x
  _atom_site_fract_y
  _atom_site_fract_z
  _atom_site_occupancy
  In  In1       1.0  0.5629259943962097  0.9914326071739197  0.47539299726486206  1.0000
  In  In2       1.0  0.8218020796775817  0.22535645961761475  0.238080844283104  1.0000
  In  In3       1.0  0.5270708799362183  0.5729612112045288  0.735135018825531  1.0000
  In  In4       1.0  0.23285506665706632  0.7352317571640015  0.15412385761737823  1.0000
  In  In5       1.0  0.5360184907913208  0.5247130393981934  0.7360523343086243  1.0000
  In  In6       1.0  0.02144787088036537  0.5411363840103149  0.7376541495323181  1.0000
  O   O1        1.0  0.06507780402898788  0.33957794308662415  0.47548872232437134  1.0000
  O   O2        1.0  0.5222914218902588  0.4899040758609772  0.6466299891471863  1.0000
  O   O3        1.0  0.7243303060531616  0.7362887859344482  0.0932932123541832  1.0000
  O   O4        1.0  0.4501339197158813  0.2682937979698181  0.9107398986816406  1.0000
  O   O5        1.0  0.025718281045556065  0.7526412606239319  0.6446723341941833  1.0000
  Ta  Ta1       1.0  0.5512781739234924  0.7324121594429016  0.9412680268287659  1.0000
  Ta  Ta2       1.0  0.057258840650320046  0.924213171005249  0.8024920225143433  1.0000
  Ta  Ta3       1.0  0.8000059127807616  0.19283297657966614  0.21497616171836859  1.0000
