data_image0
_chemical_formula_structural       FLi2Lu4O3S
_chemical_formula_sum              "F1 Li2 Lu4 O3 S1"
_cell_length_a       5.753834696512035
_cell_length_b       6.389785617744459
_cell_length_c       7.040639400482178
_cell_angle_alpha    64.14068233198746
_cell_angle_beta     65.460713706688
_cell_angle_gamma    61.20491118761658

_space_group_name_H-M_alt    "P 1"
_space_group_IT_number       1

loop_
  _space_group_symop_operation_xyz
  'x, y, z'

loop_
  _atom_site_type_symbol
  _atom_site_label
  _atom_site_symmetry_multiplicity
  _atom_site_fract_x
  _atom_site_fract_y
  _atom_site_fract_z
  _atom_site_occupancy
  F   F1        1.0  0.12629450857639313  0.5389056205749512  0.4922867119312286  1.0000
  Li  Li1       1.0  0.4875553846359253  0.09787051379680632  0.3870160281658172  1.0000
  Li  Li2       1.0  0.7259479761123657  0.8930610418319701  0.7320901751518248  1.0000
  Lu  Lu1       1.0  0.7502190470695496  0.36807507276535034  0.6437888145446776  1.0000
  Lu  Lu2       1.0  0.15452452003955847  0.8789234161376952  0.36529874801635737  1.0000
  Lu  Lu3       1.0  0.28468874096870433  0.9602840542793273  0.9299557805061339  1.0000
  Lu  Lu4       1.0  0.24001212418079376  0.32113972306251526  0.7228173613548278  1.0000
  O   O1        1.0  0.8691834807395935  0.7414318919181824  0.723871350288391  1.0000
  O   O2        1.0  0.3636206090450287  0.6114747524261475  0.09640042483806609  1.0000
  O   O3        1.0  0.5340709686279298  0.9606372117996215  0.3431775569915771  1.0000
  S   S1        1.0  0.9739115238189697  0.5173982381820679  0.47489494085311884  1.0000
