data_image0
_chemical_formula_structural       BFLi2LuO4STe
_chemical_formula_sum              "B1 F1 Li2 Lu1 O4 S1 Te1"
_cell_length_a       4.493656233366017
_cell_length_b       4.918361755378287
_cell_length_c       8.927963256835938
_cell_angle_alpha    90.08042166498761
_cell_angle_beta     90.15650546562948
_cell_angle_gamma    94.27695279871719

_space_group_name_H-M_alt    "P 1"
_space_group_IT_number       1

loop_
  _space_group_symop_operation_xyz
  'x, y, z'

loop_
  _atom_site_type_symbol
  _atom_site_label
  _atom_site_symmetry_multiplicity
  _atom_site_fract_x
  _atom_site_fract_y
  _atom_site_fract_z
  _atom_site_occupancy
  B   B1        1.0  0.8696743249893188  0.7378305196762085  0.009844990447163582  1.0000
  F   F1        1.0  0.47915148735046387  0.6087749004364014  0.7196283936500549  1.0000
  Li  Li1       1.0  0.39883187413215637  0.2275375872850418  0.3410176634788513  1.0000
  Li  Li2       1.0  0.5178254246711731  0.2139272540807724  0.969267725944519  1.0000
  Lu  Lu1       1.0  0.4746074676513672  0.5903356075286865  0.696364164352417  1.0000
  O   O1        1.0  0.13092251121997833  0.5234390497207642  0.5798918008804321  1.0000
  O   O2        1.0  0.38840344548225403  0.8703155517578125  0.9533188939094543  1.0000
  O   O3        1.0  0.6452605724334717  0.22528424859046936  0.5153037309646606  1.0000
  O   O4        1.0  0.8859410881996155  0.8645714521408081  0.32504987716674805  1.0000
  S   S1        1.0  0.9782763123512268  0.49018752574920654  0.8453835844993591  1.0000
  Te  Te1       1.0  0.5504288673400879  0.21002277731895447  0.9414654970169067  1.0000
