data_image0
_chemical_formula_structural       FeLi2O5Sn3
_chemical_formula_sum              "Fe1 Li2 O5 Sn3"
_cell_length_a       4.743904115822931
_cell_length_b       4.796855432122739
_cell_length_c       7.288666248321533
_cell_angle_alpha    85.78535450628725
_cell_angle_beta     83.95985564349111
_cell_angle_gamma    67.40604912903395

_space_group_name_H-M_alt    "P 1"
_space_group_IT_number       1

loop_
  _space_group_symop_operation_xyz
  'x, y, z'

loop_
  _atom_site_type_symbol
  _atom_site_label
  _atom_site_symmetry_multiplicity
  _atom_site_fract_x
  _atom_site_fract_y
  _atom_site_fract_z
  _atom_site_occupancy
  Fe  Fe1       1.0  0.8914463520050048  0.3861273527145386  0.8687798380851746  1.0000
  Li  Li1       1.0  0.31725308299064636  0.5614570379257202  0.5763130784034729  1.0000
  Li  Li2       1.0  0.4390985965728759  0.8705959320068359  0.3531753718852997  1.0000
  O   O1        1.0  0.32806727290153503  0.5680765509605408  0.7531728744506836  1.0000
  O   O2        1.0  0.9675660729408263  0.05583202466368675  0.11132019758224489  1.0000
  O   O3        1.0  0.7544159889221191  0.7925591468811035  0.5280700325965881  1.0000
  O   O4        1.0  0.6998355388641357  0.28881603479385376  0.8923950791358948  1.0000
  O   O5        1.0  0.21813756227493283  0.2909030020236969  0.9913675785064697  1.0000
  Sn  Sn1       1.0  0.9814951419830321  0.8226885199546814  0.18567094206809998  1.0000
  Sn  Sn2       1.0  0.009002001956105232  0.7893991470336914  0.41031211614608765  1.0000
  Sn  Sn3       1.0  0.5560489296913147  0.3746258616447449  0.5727143883705139  1.0000
