data_image0
_chemical_formula_structural       FLi2Lu3O4S
_chemical_formula_sum              "F1 Li2 Lu3 O4 S1"
_cell_length_a       5.627744985371243
_cell_length_b       6.200802680234349
_cell_length_c       6.5305399894714355
_cell_angle_alpha    63.64006721087054
_cell_angle_beta     64.73908051181002
_cell_angle_gamma    63.741305449757846

_space_group_name_H-M_alt    "P 1"
_space_group_IT_number       1

loop_
  _space_group_symop_operation_xyz
  'x, y, z'

loop_
  _atom_site_type_symbol
  _atom_site_label
  _atom_site_symmetry_multiplicity
  _atom_site_fract_x
  _atom_site_fract_y
  _atom_site_fract_z
  _atom_site_occupancy
  F   F1        1.0  0.8818109035491943  0.3172541856765747  0.18801459670066833  1.0000
  Li  Li1       1.0  0.20496223866939545  0.4778823852539062  0.5934357643127441  1.0000
  Li  Li2       1.0  0.7838918566703796  0.016876287758350372  0.6064803600311279  1.0000
  Lu  Lu1       1.0  0.43239837884902954  0.47718542814254755  0.9128074645996094  1.0000
  Lu  Lu2       1.0  0.428457111120224  0.19274391233921048  0.21857543289661407  1.0000
  Lu  Lu3       1.0  0.8910384774208069  0.735463559627533  0.41590529680252075  1.0000
  O   O1        1.0  0.21648868918418884  0.06258943676948547  0.2078259438276291  1.0000
  O   O2        1.0  0.1890225112438202  0.5496466159820557  0.8927846550941467  1.0000
  O   O3        1.0  0.5941111445426941  0.9839820861816405  0.6706176996231079  1.0000
  O   O4        1.0  0.8876466155052185  0.2532210648059845  0.9120888710021973  1.0000
  S   S1        1.0  0.8771531581878662  0.04136192426085472  0.41616851091384877  1.0000
