data_image0
_chemical_formula_structural       FeLi3O6Pd
_chemical_formula_sum              "Fe1 Li3 O6 Pd1"
_cell_length_a       4.678245653065437
_cell_length_b       5.1575439783779204
_cell_length_c       7.092465877532959
_cell_angle_alpha    91.73715551676307
_cell_angle_beta     92.43589645017394
_cell_angle_gamma    93.76370854372027

_space_group_name_H-M_alt    "P 1"
_space_group_IT_number       1

loop_
  _space_group_symop_operation_xyz
  'x, y, z'

loop_
  _atom_site_type_symbol
  _atom_site_label
  _atom_site_symmetry_multiplicity
  _atom_site_fract_x
  _atom_site_fract_y
  _atom_site_fract_z
  _atom_site_occupancy
  Fe  Fe1       1.0  0.21677209436893463  0.4404085576534271  0.26900675892829895  1.0000
  Li  Li1       1.0  0.920986533164978  0.6254380345344543  0.6855448484420776  1.0000
  Li  Li2       1.0  0.5659975409507751  0.951488733291626  0.05824718251824379  1.0000
  Li  Li3       1.0  0.6728253960609436  0.0814216136932373  0.15668940544128418  1.0000
  O   O1        1.0  0.17955052852630615  0.4652712345123291  0.8470646739006042  1.0000
  O   O2        1.0  0.7535842061042786  0.2909785509109497  0.5187224745750427  1.0000
  O   O3        1.0  0.2596758306026459  0.2895761728286743  0.04289855435490608  1.0000
  O   O4        1.0  0.9312744736671448  0.6356822848320007  0.5713454484939575  1.0000
  O   O5        1.0  0.41527408361434937  0.6493237614631653  0.6510648131370544  1.0000
  O   O6        1.0  0.6851989030838013  0.012570961378514767  0.18528282642364502  1.0000
  Pd  Pd1       1.0  0.9591031670570374  0.06550469994544983  0.7867633700370789  1.0000
