data_image0
_chemical_formula_structural       FLi3O4S2Sc
_chemical_formula_sum              "F1 Li3 O4 S2 Sc1"
_cell_length_a       5.625280195101382
_cell_length_b       5.799214576151387
_cell_length_c       6.444980144500732
_cell_angle_alpha    70.65182771554261
_cell_angle_beta     67.70783957635298
_cell_angle_gamma    61.13542339040106

_space_group_name_H-M_alt    "P 1"
_space_group_IT_number       1

loop_
  _space_group_symop_operation_xyz
  'x, y, z'

loop_
  _atom_site_type_symbol
  _atom_site_label
  _atom_site_symmetry_multiplicity
  _atom_site_fract_x
  _atom_site_fract_y
  _atom_site_fract_z
  _atom_site_occupancy
  F   F1        1.0  0.4366757273674011  0.45034950971603394  0.8079744577407837  1.0000
  Li  Li1       1.0  0.40063121914863586  0.10920696705579758  0.9143596291542053  1.0000
  Li  Li2       1.0  0.8116952776908875  0.9430983662605286  0.025541912764310837  1.0000
  Li  Li3       1.0  0.7962632775306702  0.4671589136123657  0.4464191496372223  1.0000
  O   O1        1.0  0.18521739542484283  0.915795087814331  0.14199981093406677  1.0000
  O   O2        1.0  0.5994855761528015  0.934662401676178  0.8536388874053955  1.0000
  O   O3        1.0  0.6927470564842224  0.06330472230911255  0.13940158486366272  1.0000
  O   O4        1.0  0.08304798603057861  0.4419805407524109  0.4241085350513458  1.0000
  S   S1        1.0  0.8244088888168335  0.9494312405586243  0.6687893271446228  1.0000
  S   S2        1.0  0.33973732590675354  0.4338309168815613  0.6688193678855896  1.0000
  Sc  Sc1       1.0  0.9503946900367737  0.19551049172878265  0.9797704815864562  1.0000
