data_image0
_chemical_formula_structural       Ag2Ba7CaLa
_chemical_formula_sum              "Ag2 Ba7 Ca1 La1"
_cell_length_a       5.413333020090614
_cell_length_b       7.7536674239750285
_cell_length_c       10.306554794311523
_cell_angle_alpha    109.23093289084369
_cell_angle_beta     100.64400851750196
_cell_angle_gamma    89.42427080959415

_space_group_name_H-M_alt    "P 1"
_space_group_IT_number       1

loop_
  _space_group_symop_operation_xyz
  'x, y, z'

loop_
  _atom_site_type_symbol
  _atom_site_label
  _atom_site_symmetry_multiplicity
  _atom_site_fract_x
  _atom_site_fract_y
  _atom_site_fract_z
  _atom_site_occupancy
  Ag  Ag1       1.0  0.6116882562637329  0.06568347662687302  0.1630115956068039  1.0000
  Ag  Ag2       1.0  0.24221539497375488  0.8141245841979982  0.7399615049362183  1.0000
  Ba  Ba1       1.0  0.4888182580471039  0.891638219356537  0.07833322882652283  1.0000
  Ba  Ba2       1.0  0.425008624792099  0.058329679071903236  0.5385903120040894  1.0000
  Ba  Ba3       1.0  0.9401572942733765  0.552686333656311  0.9708690643310547  1.0000
  Ba  Ba4       1.0  0.965111255645752  0.3863953351974488  0.4895695149898529  1.0000
  Ba  Ba5       1.0  0.4707857072353363  0.5484352707862854  0.296993225812912  1.0000
  Ba  Ba6       1.0  0.8889488577842712  0.6815816760063172  0.7524183392524719  1.0000
  Ba  Ba7       1.0  0.45536303520202637  0.003637909889221192  0.47781381011009216  1.0000
  Ca  Ca1       1.0  0.42695972323417664  0.43032333254814154  0.9132711291313171  1.0000
  La  La1       1.0  0.6113383173942566  0.5616236329078674  0.2539384961128235  1.0000
