data_image0
_chemical_formula_structural       Ag3Ba6RhSi
_chemical_formula_sum              "Ag3 Ba6 Rh1 Si1"
_cell_length_a       5.579043490500519
_cell_length_b       6.891085442535119
_cell_length_c       9.069748878479004
_cell_angle_alpha    105.67712036971118
_cell_angle_beta     90.7676884240716
_cell_angle_gamma    107.16540618537739

_space_group_name_H-M_alt    "P 1"
_space_group_IT_number       1

loop_
  _space_group_symop_operation_xyz
  'x, y, z'

loop_
  _atom_site_type_symbol
  _atom_site_label
  _atom_site_symmetry_multiplicity
  _atom_site_fract_x
  _atom_site_fract_y
  _atom_site_fract_z
  _atom_site_occupancy
  Ag  Ag1       1.0  0.2042137235403061  0.8450931310653687  0.29550614953041077  1.0000
  Ag  Ag2       1.0  0.20256349444389343  0.6405385136604309  0.3297969400882721  1.0000
  Ag  Ag3       1.0  0.559044599533081  0.35734421014785767  0.629946231842041  1.0000
  Ba  Ba1       1.0  0.5474062561988831  0.581399142742157  0.927574098110199  1.0000
  Ba  Ba2       1.0  0.5774291157722473  0.8879075050354004  0.09204352647066116  1.0000
  Ba  Ba3       1.0  0.56458580493927  0.1810230314731598  0.9781960248947144  1.0000
  Ba  Ba4       1.0  0.0652150884270668  0.22489503026008606  0.7735061049461365  1.0000
  Ba  Ba5       1.0  0.5287359356880188  0.8638886213302612  0.48434576392173767  1.0000
  Ba  Ba6       1.0  0.8669746518135071  0.046952154487371445  0.557744562625885  1.0000
  Rh  Rh1       1.0  0.023854702711105347  0.4055134057998657  0.8987326622009277  1.0000
  Si  Si1       1.0  0.33901065587997437  0.25370365381240845  0.7196651697158813  1.0000
