data_image0
_chemical_formula_structural       Ag2Ba5LaNSi2
_chemical_formula_sum              "Ag2 Ba5 La1 N1 Si2"
_cell_length_a       5.122013711084345
_cell_length_b       8.40141620878684
_cell_length_c       8.860002517700195
_cell_angle_alpha    120.6191319114301
_cell_angle_beta     95.41259726956915
_cell_angle_gamma    86.50742933073275

_space_group_name_H-M_alt    "P 1"
_space_group_IT_number       1

loop_
  _space_group_symop_operation_xyz
  'x, y, z'

loop_
  _atom_site_type_symbol
  _atom_site_label
  _atom_site_symmetry_multiplicity
  _atom_site_fract_x
  _atom_site_fract_y
  _atom_site_fract_z
  _atom_site_occupancy
  Ag  Ag1       1.0  0.43066951632499695  0.8698078393936157  0.7512246966362  1.0000
  Ag  Ag2       1.0  0.4141921401023865  0.2041071057319641  0.9037250876426697  1.0000
  Ba  Ba1       1.0  0.4167044758796692  0.17195254564285278  0.7930187582969666  1.0000
  Ba  Ba2       1.0  0.4235832095146179  0.18517296016216278  0.21155941486358643  1.0000
  Ba  Ba3       1.0  0.4169355630874634  0.6721821427345276  0.8460522294044495  1.0000
  Ba  Ba4       1.0  0.9258872866630554  0.15369188785552979  0.48655650019645696  1.0000
  Ba  Ba5       1.0  0.9253831505775452  0.30828657746315  0.522625207901001  1.0000
  La  La1       1.0  0.9234765768051147  0.00046237822971306736  0.4971933066844941  1.0000
  N   N1        1.0  0.4248131811618805  0.8264675140380859  0.5475912094116211  1.0000
  Si  Si1       1.0  0.3187973201274872  0.7909587621688843  0.4268318712711334  1.0000
  Si  Si2       1.0  0.9088590741157532  0.552507758140564  0.8853544592857361  1.0000
