data_image0
_chemical_formula_structural       Ag7BaCa2Te
_chemical_formula_sum              "Ag7 Ba1 Ca2 Te1"
_cell_length_a       6.734770210216957
_cell_length_b       6.9678194089844805
_cell_length_c       8.29478645324707
_cell_angle_alpha    67.20409639480653
_cell_angle_beta     63.803741755644864
_cell_angle_gamma    61.43188477239637

_space_group_name_H-M_alt    "P 1"
_space_group_IT_number       1

loop_
  _space_group_symop_operation_xyz
  'x, y, z'

loop_
  _atom_site_type_symbol
  _atom_site_label
  _atom_site_symmetry_multiplicity
  _atom_site_fract_x
  _atom_site_fract_y
  _atom_site_fract_z
  _atom_site_occupancy
  Ag  Ag1       1.0  0.2524029314517975  0.8595301508903503  0.5299208164215088  1.0000
  Ag  Ag2       1.0  0.08807171136140823  0.7683277130126953  0.888653039932251  1.0000
  Ag  Ag3       1.0  0.8324413895606995  0.8307937979698181  0.7049943208694458  1.0000
  Ag  Ag4       1.0  0.26951920986175537  0.5073195099830627  0.5388068556785583  1.0000
  Ag  Ag5       1.0  0.7849438190460205  0.5074384212493896  0.042727734893560465  1.0000
  Ag  Ag6       1.0  0.6115943193435669  0.7481297850608826  0.885122537612915  1.0000
  Ag  Ag7       1.0  0.2843620777130127  0.011066915467381477  0.7956491708755493  1.0000
  Ba  Ba1       1.0  0.2501693665981293  0.24836698174476624  0.34641048312187195  1.0000
  Ca  Ca1       1.0  0.8524704575538635  0.2991357147693634  0.3350798189640045  1.0000
  Ca  Ca2       1.0  0.3475097417831421  0.32179737091064453  0.8548614978790283  1.0000
  Te  Te1       1.0  0.6032945513725281  0.7279239892959595  0.29404100775718695  1.0000
