data_image0
_chemical_formula_structural       Ag4AlBa6
_chemical_formula_sum              "Ag4 Al1 Ba6"
_cell_length_a       5.349498531053477
_cell_length_b       6.909802856084839
_cell_length_c       10.198748588562012
_cell_angle_alpha    109.24248074288285
_cell_angle_beta     101.17364730729167
_cell_angle_gamma    89.31261920872214

_space_group_name_H-M_alt    "P 1"
_space_group_IT_number       1

loop_
  _space_group_symop_operation_xyz
  'x, y, z'

loop_
  _atom_site_type_symbol
  _atom_site_label
  _atom_site_symmetry_multiplicity
  _atom_site_fract_x
  _atom_site_fract_y
  _atom_site_fract_z
  _atom_site_occupancy
  Ag  Ag1       1.0  0.586043655872345  0.9011244773864745  0.8055130243301392  1.0000
  Ag  Ag2       1.0  0.09133609384298323  0.8614987730979918  0.9785339832305908  1.0000
  Ag  Ag3       1.0  0.5900548696517944  0.38287931680679316  0.46797996759414673  1.0000
  Ag  Ag4       1.0  0.4188651144504547  0.3888834118843078  0.975470781326294  1.0000
  Al  Al1       1.0  0.4012705683708191  0.18742835521697995  0.5659012198448181  1.0000
  Ba  Ba1       1.0  0.11617875099182129  0.8628522157669066  0.5984574556350708  1.0000
  Ba  Ba2       1.0  0.5953962802886963  0.6811842322349547  0.24115842580795288  1.0000
  Ba  Ba3       1.0  0.0845876857638359  0.9221237897872924  0.8197437524795532  1.0000
  Ba  Ba4       1.0  0.7659807205200195  0.18212850391864774  0.6502805948257446  1.0000
  Ba  Ba5       1.0  0.11259888112545013  0.7907212376594542  0.2002301812171936  1.0000
  Ba  Ba6       1.0  0.029735151678323746  0.12736104428768158  0.9755402207374573  1.0000
