data_image0
_chemical_formula_structural       Ag7CaCeTe2
_chemical_formula_sum              "Ag7 Ca1 Ce1 Te2"
_cell_length_a       5.335396317116191
_cell_length_b       8.17313013701881
_cell_length_c       8.015225410461426
_cell_angle_alpha    123.57362839537544
_cell_angle_beta     90.87476596552709
_cell_angle_gamma    87.35286808522606

_space_group_name_H-M_alt    "P 1"
_space_group_IT_number       1

loop_
  _space_group_symop_operation_xyz
  'x, y, z'

loop_
  _atom_site_type_symbol
  _atom_site_label
  _atom_site_symmetry_multiplicity
  _atom_site_fract_x
  _atom_site_fract_y
  _atom_site_fract_z
  _atom_site_occupancy
  Ag  Ag1       1.0  0.1385040134191513  0.6159968972206116  0.3022673428058624  1.0000
  Ag  Ag2       1.0  0.6212823390960693  0.07140061259269714  0.9596906900405884  1.0000
  Ag  Ag3       1.0  0.6152103543281555  0.8157448172569275  0.17788514494895935  1.0000
  Ag  Ag4       1.0  0.12378472089767456  0.7638019323348999  0.6672288179397583  1.0000
  Ag  Ag5       1.0  0.8693546652793884  0.5424689054489136  0.7925407290458679  1.0000
  Ag  Ag6       1.0  0.6165169477462769  0.7872418165206909  0.5449478030204773  1.0000
  Ag  Ag7       1.0  0.1102224662899971  0.30835437774658203  0.11951986700296402  1.0000
  Ca  Ca1       1.0  0.13536834716796875  0.31009048223495483  0.7672845721244812  1.0000
  Ce  Ce1       1.0  0.6378639340400696  0.5367414951324463  0.52524334192276  1.0000
  Te  Te1       1.0  0.6258782744407654  0.11057687550783157  0.19401408731937408  1.0000
  Te  Te2       1.0  0.12123405933380127  0.8918914794921875  0.3821876049041748  1.0000
