data_image0
_chemical_formula_structural       DyINi5P2TiZr
_chemical_formula_sum              "Dy1 I1 Ni5 P2 Ti1 Zr1"
_cell_length_a       5.409295532031818
_cell_length_b       5.384276836703471
_cell_length_c       7.511045932769775
_cell_angle_alpha    111.32935578968963
_cell_angle_beta     93.03361083519734
_cell_angle_gamma    107.16175871945781

_space_group_name_H-M_alt    "P 1"
_space_group_IT_number       1

loop_
  _space_group_symop_operation_xyz
  'x, y, z'

loop_
  _atom_site_type_symbol
  _atom_site_label
  _atom_site_symmetry_multiplicity
  _atom_site_fract_x
  _atom_site_fract_y
  _atom_site_fract_z
  _atom_site_occupancy
  Dy  Dy1       1.0  0.9658592343330383  0.056767892092466354  0.5702509284019471  1.0000
  I   I1        1.0  0.4638776481151581  0.39630118012428284  0.9926632642745973  1.0000
  Ni  Ni1       1.0  0.95079505443573  0.6168190240859985  0.2569511830806732  1.0000
  Ni  Ni2       1.0  0.46365851163864136  0.6094104051589966  0.17115508019924167  1.0000
  Ni  Ni3       1.0  0.7084580063819885  0.4993768334388733  0.4966143667697907  1.0000
  Ni  Ni4       1.0  0.4629529118537903  0.5935657024383545  0.774607002735138  1.0000
  Ni  Ni5       1.0  0.9662572741508484  0.08544514328241348  0.8901486992836  1.0000
  P   P1        1.0  0.9679428339004517  0.22538480162620544  0.5763835906982423  1.0000
  P   P2        1.0  0.9495492577552795  0.37417072057724  0.8501654267311097  1.0000
  Ti  Ti1       1.0  0.4649050235748291  0.025982385501265526  0.03691589832305909  1.0000
  Zr  Zr1       1.0  0.4660351276397705  0.7040057182312012  0.177147850394249  1.0000
