data_image0
_chemical_formula_structural       BINi5PPtTiZn
_chemical_formula_sum              "B1 I1 Ni5 P1 Pt1 Ti1 Zn1"
_cell_length_a       5.588829397919114
_cell_length_b       5.441103947415213
_cell_length_c       6.983283996582031
_cell_angle_alpha    85.0488914605942
_cell_angle_beta     76.67971373665827
_cell_angle_gamma    70.16834233300872

_space_group_name_H-M_alt    "P 1"
_space_group_IT_number       1

loop_
  _space_group_symop_operation_xyz
  'x, y, z'

loop_
  _atom_site_type_symbol
  _atom_site_label
  _atom_site_symmetry_multiplicity
  _atom_site_fract_x
  _atom_site_fract_y
  _atom_site_fract_z
  _atom_site_occupancy
  B   B1        1.0  0.8941411375999451  0.9269274473190308  0.042568329721689196  1.0000
  I   I1        1.0  0.5174005627632141  0.18622788786888123  0.6229508519172668  1.0000
  Ni  Ni1       1.0  0.04453049227595329  0.28923529386520386  0.1338178664445877  1.0000
  Ni  Ni2       1.0  0.28279492259025574  0.763609766960144  0.4142566919326783  1.0000
  Ni  Ni3       1.0  0.7434383034706116  0.703125536441803  0.4858233332633973  1.0000
  Ni  Ni4       1.0  0.9372518658638  0.24364256858825684  0.746325194835663  1.0000
  Ni  Ni5       1.0  0.9351340532302856  0.5222313404083252  0.29656222462654114  1.0000
  P   P1        1.0  0.3081349730491638  0.16286242008209229  0.8977235555648805  1.0000
  Pt  Pt1       1.0  0.32369011640548706  0.8246425986289978  0.22894015908241275  1.0000
  Ti  Ti1       1.0  0.31936147809028625  0.3130814731121063  0.18598428368568423  1.0000
  Zn  Zn1       1.0  0.8147311210632324  0.5801165699958801  0.7854693531990052  1.0000
