data_image0
_chemical_formula_structural       BINi6PPbZn
_chemical_formula_sum              "B1 I1 Ni6 P1 Pb1 Zn1"
_cell_length_a       6.433304639145313
_cell_length_b       6.237322850460691
_cell_length_c       7.191187858581543
_cell_angle_alpha    105.32899939893508
_cell_angle_beta     102.92691528587974
_cell_angle_gamma    115.9386577868824

_space_group_name_H-M_alt    "P 1"
_space_group_IT_number       1

loop_
  _space_group_symop_operation_xyz
  'x, y, z'

loop_
  _atom_site_type_symbol
  _atom_site_label
  _atom_site_symmetry_multiplicity
  _atom_site_fract_x
  _atom_site_fract_y
  _atom_site_fract_z
  _atom_site_occupancy
  B   B1        1.0  0.8036160469055176  0.13777802884578705  0.3994503915309906  1.0000
  I   I1        1.0  0.5784175992012024  0.4155874252319336  0.8725039958953857  1.0000
  Ni  Ni1       1.0  0.09437132626771927  0.9910642504692078  0.49719780683517456  1.0000
  Ni  Ni2       1.0  0.7536299228668213  0.39739757776260376  0.42243677377700806  1.0000
  Ni  Ni3       1.0  0.5877577066421509  0.8207850456237793  0.9862231016159058  1.0000
  Ni  Ni4       1.0  0.0810253918170929  0.929559588432312  0.7512670159339905  1.0000
  Ni  Ni5       1.0  0.10064321756362915  0.7383744120597839  0.8644693493843079  1.0000
  Ni  Ni6       1.0  0.09693247079849243  0.682589054107666  0.05102318152785301  1.0000
  P   P1        1.0  0.759055495262146  0.309222012758255  0.8465081453323364  1.0000
  Pb  Pb1       1.0  0.10167770087718964  0.23658046126365662  0.024471484124660492  1.0000
  Zn  Zn1       1.0  0.1260412186384201  0.9302332997322083  0.0858059674501419  1.0000
