data_image0
_chemical_formula_structural       GaHNi7PZr
_chemical_formula_sum              "Ga1 H1 Ni7 P1 Zr1"
_cell_length_a       5.365362895662531
_cell_length_b       5.3866587464889095
_cell_length_c       5.716753005981445
_cell_angle_alpha    58.288098772224885
_cell_angle_beta     63.389039679049944
_cell_angle_gamma    59.8956348791526

_space_group_name_H-M_alt    "P 1"
_space_group_IT_number       1

loop_
  _space_group_symop_operation_xyz
  'x, y, z'

loop_
  _atom_site_type_symbol
  _atom_site_label
  _atom_site_symmetry_multiplicity
  _atom_site_fract_x
  _atom_site_fract_y
  _atom_site_fract_z
  _atom_site_occupancy
  Ga  Ga1       1.0  0.2758060395717621  0.4645254909992218  0.0013640864053741097  1.0000
  H   H1        1.0  0.7064724564552307  0.7606269121170044  0.5592578649520874  1.0000
  Ni  Ni1       1.0  0.0017763376235961914  0.7971823215484619  0.5327886939048767  1.0000
  Ni  Ni2       1.0  0.6930174231529236  0.27494290471076965  0.561152994632721  1.0000
  Ni  Ni3       1.0  0.7181101441383362  0.8643546104431152  0.5351552963256836  1.0000
  Ni  Ni4       1.0  0.21746143698692322  0.718187153339386  0.7512162327766418  1.0000
  Ni  Ni5       1.0  0.7191964387893677  0.046157654374837875  0.3674256503582001  1.0000
  Ni  Ni6       1.0  0.9219151735305786  0.19177205860614777  0.434156596660614  1.0000
  Ni  Ni7       1.0  0.19026269018650055  0.1378895789384842  0.3449675440788269  1.0000
  P   P1        1.0  0.6657969951629639  0.2685143053531647  0.7046119570732117  1.0000
  Zr  Zr1       1.0  0.17890183627605438  0.8667027354240417  0.1749606728553772  1.0000
