data_image0
_chemical_formula_structural       B3CaNi7
_chemical_formula_sum              "B3 Ca1 Ni7"
_cell_length_a       5.818984657996639
_cell_length_b       4.771147767309034
_cell_length_c       5.452038288116455
_cell_angle_alpha    61.334599809869864
_cell_angle_beta     59.08609286347282
_cell_angle_gamma    50.38854803335813

_space_group_name_H-M_alt    "P 1"
_space_group_IT_number       1

loop_
  _space_group_symop_operation_xyz
  'x, y, z'

loop_
  _atom_site_type_symbol
  _atom_site_label
  _atom_site_symmetry_multiplicity
  _atom_site_fract_x
  _atom_site_fract_y
  _atom_site_fract_z
  _atom_site_occupancy
  B   B1        1.0  0.5504708290100098  0.7053233981132507  0.42823055386543274  1.0000
  B   B2        1.0  0.3332710564136505  0.013611513189971447  0.24123619496822357  1.0000
  B   B3        1.0  0.9491639733314514  0.620695173740387  0.8236061930656433  1.0000
  Ca  Ca1       1.0  0.32988134026527405  0.29667928814888  0.14675024151802063  1.0000
  Ni  Ni1       1.0  0.8284564018249512  0.38335731625556946  0.013917253352701746  1.0000
  Ni  Ni2       1.0  0.8506588339805603  0.327515572309494  0.539101541042328  1.0000
  Ni  Ni3       1.0  0.99149489402771  0.28508955240249634  0.013277138583362103  1.0000
  Ni  Ni4       1.0  0.8440976738929749  0.7891973257064819  0.3620111048221588  1.0000
  Ni  Ni5       1.0  0.266827791929245  0.6922258734703064  0.13158980011940002  1.0000
  Ni  Ni6       1.0  0.9629655480384827  0.3126467764377594  0.45990139245986944  1.0000
  Ni  Ni7       1.0  0.348202645778656  0.3970000445842743  0.4713744521141052  1.0000
