data_image0
_chemical_formula_structural       B2Ni9
_chemical_formula_sum              "B2 Ni9"
_cell_length_a       5.192414040042394
_cell_length_b       5.4000472975913585
_cell_length_c       5.682318687438965
_cell_angle_alpha    85.6427625844573
_cell_angle_beta     78.87082073960538
_cell_angle_gamma    67.25933028978199

_space_group_name_H-M_alt    "P 1"
_space_group_IT_number       1

loop_
  _space_group_symop_operation_xyz
  'x, y, z'

loop_
  _atom_site_type_symbol
  _atom_site_label
  _atom_site_symmetry_multiplicity
  _atom_site_fract_x
  _atom_site_fract_y
  _atom_site_fract_z
  _atom_site_occupancy
  B   B1        1.0  0.4136844277381897  0.5528265237808228  0.9144805073738099  1.0000
  B   B2        1.0  0.9226779341697693  0.28027233481407166  0.2689521610736847  1.0000
  Ni  Ni1       1.0  0.9146237969398499  0.24322718381881714  0.01140036340802908  1.0000
  Ni  Ni2       1.0  0.9154754877090454  0.8334510922431946  0.961894989013672  1.0000
  Ni  Ni3       1.0  0.9214620590209961  0.9766618013381958  0.677742063999176  1.0000
  Ni  Ni4       1.0  0.42266330122947693  0.32489338517189026  0.1590709686279297  1.0000
  Ni  Ni5       1.0  0.4123392701148987  0.6793308258056641  0.629470944404602  1.0000
  Ni  Ni6       1.0  0.41790899634361267  0.8412951827049255  0.3823759257793427  1.0000
  Ni  Ni7       1.0  0.9138921499252319  0.08310481160879135  0.006770437117666007  1.0000
  Ni  Ni8       1.0  0.42259538173675537  0.9504927396774292  0.8996652364730836  1.0000
  Ni  Ni9       1.0  0.9133744239807129  0.6777940392494202  0.1125557199120522  1.0000
