data_image0
_chemical_formula_structural       CInNNiPb2PtSb
_chemical_formula_sum              "C1 In1 N1 Ni1 Pb2 Pt1 Sb1"
_cell_length_a       5.091155407721272
_cell_length_b       6.692264688302723
_cell_length_c       7.188900470733643
_cell_angle_alpha    124.18766104898918
_cell_angle_beta     89.91501302113149
_cell_angle_gamma    88.7058805504866

_space_group_name_H-M_alt    "P 1"
_space_group_IT_number       1

loop_
  _space_group_symop_operation_xyz
  'x, y, z'

loop_
  _atom_site_type_symbol
  _atom_site_label
  _atom_site_symmetry_multiplicity
  _atom_site_fract_x
  _atom_site_fract_y
  _atom_site_fract_z
  _atom_site_occupancy
  C   C1        1.0  0.9485794901847839  0.6320551633834839  0.5106694698333741  1.0000
  In  In1       1.0  0.9567800164222717  0.08502065390348434  0.7610526680946351  1.0000
  N   N1        1.0  0.9598777294158936  0.1816079020500183  0.23438946902751925  1.0000
  Ni  Ni1       1.0  0.45991984009742737  0.4345390200614929  0.4314544796943665  1.0000
  Pb  Pb1       1.0  0.46199488639831543  0.20626185834407806  0.09709776192903521  1.0000
  Pb  Pb2       1.0  0.45797717571258545  0.09082236886024475  0.3840948641300202  1.0000
  Pt  Pt1       1.0  0.4632062315940857  0.7258217334747314  0.013527316041290762  1.0000
  Sb  Sb1       1.0  0.4566592574119568  0.08998098224401474  0.15222209692001343  1.0000
