data_image0
_chemical_formula_structural       CoGeHNPb3Sb
_chemical_formula_sum              "Co1 Ge1 H1 N1 Pb3 Sb1"
_cell_length_a       5.798148737154044
_cell_length_b       5.998019821250019
_cell_length_c       6.135124206542969
_cell_angle_alpha    110.94829535031049
_cell_angle_beta     108.20368699026693
_cell_angle_gamma    102.4453498608946

_space_group_name_H-M_alt    "P 1"
_space_group_IT_number       1

loop_
  _space_group_symop_operation_xyz
  'x, y, z'

loop_
  _atom_site_type_symbol
  _atom_site_label
  _atom_site_symmetry_multiplicity
  _atom_site_fract_x
  _atom_site_fract_y
  _atom_site_fract_z
  _atom_site_occupancy
  Co  Co1       1.0  0.6531405448913574  0.9445029497146608  0.7400375604629517  1.0000
  Ge  Ge1       1.0  0.14130596816539773  0.9850640296936036  0.38418304920196533  1.0000
  H   H1        1.0  0.12273753434419632  0.2751850187778473  0.21299247443675995  1.0000
  N   N1        1.0  0.6578235626220703  0.12594851851463318  0.4480135440826416  1.0000
  Pb  Pb1       1.0  0.2206207662820816  0.2171480804681778  0.033678580075502375  1.0000
  Pb  Pb2       1.0  0.1417221873998642  0.8867462873458862  0.539631187915802  1.0000
  Pb  Pb3       1.0  0.6413824558258057  0.8655520081520081  0.6992416381835938  1.0000
  Sb  Sb1       1.0  0.6491454243659973  0.9529208540916444  0.9734503030776978  1.0000
