data_image0
_chemical_formula_structural       AsCaClHg4Se
_chemical_formula_sum              "As1 Ca1 Cl1 Hg4 Se1"
_cell_length_a       4.8593161174513355
_cell_length_b       6.461176472036513
_cell_length_c       6.87244987487793
_cell_angle_alpha    123.31323740799314
_cell_angle_beta     88.1430831649961
_cell_angle_gamma    92.41502691405343

_space_group_name_H-M_alt    "P 1"
_space_group_IT_number       1

loop_
  _space_group_symop_operation_xyz
  'x, y, z'

loop_
  _atom_site_type_symbol
  _atom_site_label
  _atom_site_symmetry_multiplicity
  _atom_site_fract_x
  _atom_site_fract_y
  _atom_site_fract_z
  _atom_site_occupancy
  As  As1       1.0  0.030156215652823448  0.436074435710907  0.512700080871582  1.0000
  Ca  Ca1       1.0  0.5310322642326355  0.28403323888778687  0.11970864236354828  1.0000
  Cl  Cl1       1.0  0.032412514090538025  0.43884560465812683  0.6715986728668213  1.0000
  Hg  Hg1       1.0  0.5294994115829468  0.14116081595420837  0.003575310576707133  1.0000
  Hg  Hg2       1.0  0.5295092463493347  0.18431109189987183  0.9778595566749573  1.0000
  Hg  Hg3       1.0  0.5293455719947815  0.24718321859836578  0.21088802814483643  1.0000
  Hg  Hg4       1.0  0.5288384556770325  0.16857923567295074  0.5348820090293884  1.0000
  Se  Se1       1.0  0.03775317221879959  0.46119990944862366  0.6865341067314148  1.0000
