data_image0
_chemical_formula_structural       GaPb2PtTcUV2
_chemical_formula_sum              "Ga1 Pb2 Pt1 Tc1 U1 V2"
_cell_length_a       4.757354949874502
_cell_length_b       5.086348404777502
_cell_length_c       7.639115810394287
_cell_angle_alpha    89.53211314889147
_cell_angle_beta     90.40920431490157
_cell_angle_gamma    91.04415273450007

_space_group_name_H-M_alt    "P 1"
_space_group_IT_number       1

loop_
  _space_group_symop_operation_xyz
  'x, y, z'

loop_
  _atom_site_type_symbol
  _atom_site_label
  _atom_site_symmetry_multiplicity
  _atom_site_fract_x
  _atom_site_fract_y
  _atom_site_fract_z
  _atom_site_occupancy
  Ga  Ga1       1.0  0.6711148619651794  0.9347181916236877  0.8817625641822815  1.0000
  Pb  Pb1       1.0  0.16656874120235443  0.458050400018692  0.6133518815040588  1.0000
  Pb  Pb2       1.0  0.6586675047874451  0.49074840545654297  0.13899700343608856  1.0000
  Pt  Pt1       1.0  0.16251592338085175  0.6308096051216125  0.05062180012464523  1.0000
  Tc  Tc1       1.0  0.13330814242362976  0.6728861927986145  0.7313860058784485  1.0000
  U   U1        1.0  0.43340399861335754  0.8974084854125977  0.0875464603304863  1.0000
  V   V1        1.0  0.19374367594718933  0.28877052664756775  0.4283190965652466  1.0000
  V   V2        1.0  0.15075752139091492  0.7778050899505615  0.11223109066486359  1.0000
