data_image0
_chemical_formula_structural       AlCs2HLi2O5Zn3
_chemical_formula_sum              "Al1 Cs2 H1 Li2 O5 Zn3"
_cell_length_a       4.707760736472159
_cell_length_b       7.155313654441577
_cell_length_c       8.211148262023926
_cell_angle_alpha    109.6671633780537
_cell_angle_beta     91.41151684559216
_cell_angle_gamma    88.6571079974994

_space_group_name_H-M_alt    "P 1"
_space_group_IT_number       1

loop_
  _space_group_symop_operation_xyz
  'x, y, z'

loop_
  _atom_site_type_symbol
  _atom_site_label
  _atom_site_symmetry_multiplicity
  _atom_site_fract_x
  _atom_site_fract_y
  _atom_site_fract_z
  _atom_site_occupancy
  Al  Al1       1.0  0.506169855594635  0.883690118789673  0.8502734303474426  1.0000
  Cs  Cs1       1.0  0.013850579038262366  0.91775780916214  0.547516405582428  1.0000
  Cs  Cs2       1.0  0.005301372613757849  0.12550295889377594  0.16580964624881744  1.0000
  H   H1        1.0  0.5325217843055725  0.16242974996566772  0.11048359423875809  1.0000
  Li  Li1       1.0  0.49596211314201355  0.4205212593078614  0.8463119864463806  1.0000
  Li  Li2       1.0  0.9836196899414062  0.647756040096283  0.21763651072978973  1.0000
  O   O1        1.0  0.6549022793769836  0.3993516862392426  0.35079479217529297  1.0000
  O   O2        1.0  0.49040332436561584  0.9997884035110475  0.8325632214546204  1.0000
  O   O3        1.0  0.9129856824874878  0.8641585707664491  0.2380782067775727  1.0000
  O   O4        1.0  0.5244276523590088  0.7168594598770142  0.5600332021713257  1.0000
  O   O5        1.0  0.15392139554023743  0.1742214411497116  0.7454143166542053  1.0000
  Zn  Zn1       1.0  0.7274539470672607  0.34883826971054077  0.3492918908596039  1.0000
  Zn  Zn2       1.0  0.5198103785514832  0.6309008598327637  0.5996771454811096  1.0000
  Zn  Zn3       1.0  0.5024324059486389  0.14996616542339325  0.5388612151145935  1.0000
