data_image0
_chemical_formula_structural       AlCs2Li3O4SiZn3
_chemical_formula_sum              "Al1 Cs2 Li3 O4 Si1 Zn3"
_cell_length_a       5.823840157870446
_cell_length_b       6.9318600138747355
_cell_length_c       6.892895221710205
_cell_angle_alpha    63.48225396814345
_cell_angle_beta     66.21021102217924
_cell_angle_gamma    64.39196188059734

_space_group_name_H-M_alt    "P 1"
_space_group_IT_number       1

loop_
  _space_group_symop_operation_xyz
  'x, y, z'

loop_
  _atom_site_type_symbol
  _atom_site_label
  _atom_site_symmetry_multiplicity
  _atom_site_fract_x
  _atom_site_fract_y
  _atom_site_fract_z
  _atom_site_occupancy
  Al  Al1       1.0  0.9474759697914124  0.2357477843761444  0.8112981915473938  1.0000
  Cs  Cs1       1.0  0.9279463887214661  0.710881769657135  0.9949195981025696  1.0000
  Cs  Cs2       1.0  0.4564189016819  0.1669185608625412  0.22959181666374207  1.0000
  Li  Li1       1.0  0.44912612438201904  0.7322131991386414  0.5662786960601807  1.0000
  Li  Li2       1.0  0.43630746006965637  0.5532276034355164  0.042251404374837875  1.0000
  Li  Li3       1.0  0.4479353725910187  0.24269978702068326  0.8389135003089905  1.0000
  O   O1        1.0  0.5263504981994629  0.6240833401679993  0.22923798859119415  1.0000
  O   O2        1.0  0.19265130162239075  0.6884318590164185  0.8312971591949463  1.0000
  O   O3        1.0  0.5758805274963379  0.15345342457294464  0.7166345119476318  1.0000
  O   O4        1.0  0.05660104751586914  0.3420046269893646  0.17226962745189667  1.0000
  Si  Si1       1.0  0.9651682376861572  0.763999342918396  0.0366203598678112  1.0000
  Zn  Zn1       1.0  0.7205730080604553  0.8900316953659058  0.31934261322021484  1.0000
  Zn  Zn2       1.0  0.0710863322019577  0.19999530911445618  0.6779728531837463  1.0000
  Zn  Zn3       1.0  0.7194468379020691  0.39777445793151855  0.5347520709037781  1.0000
