data_image0
_chemical_formula_structural       AlAs4Fe4LiMnO3
_chemical_formula_sum              "Al1 As4 Fe4 Li1 Mn1 O3"
_cell_length_a       3.7636308775613347
_cell_length_b       6.8502261037724415
_cell_length_c       7.164934158325195
_cell_angle_alpha    103.8678194967199
_cell_angle_beta     92.33686855859922
_cell_angle_gamma    89.30445158599716

_space_group_name_H-M_alt    "P 1"
_space_group_IT_number       1

loop_
  _space_group_symop_operation_xyz
  'x, y, z'

loop_
  _atom_site_type_symbol
  _atom_site_label
  _atom_site_symmetry_multiplicity
  _atom_site_fract_x
  _atom_site_fract_y
  _atom_site_fract_z
  _atom_site_occupancy
  Al  Al1       1.0  0.41787242889404297  0.4837100803852081  0.28289252519607544  1.0000
  As  As1       1.0  0.9499074220657349  0.15321563184261322  0.504819929599762  1.0000
  As  As2       1.0  0.9111510515213013  0.5453890562057495  0.70704185962677  1.0000
  As  As3       1.0  0.4081943929195404  0.21451026201248166  0.2668584883213043  1.0000
  As  As4       1.0  0.9124449491500854  0.20229861140251157  0.28826966881752014  1.0000
  Fe  Fe1       1.0  0.917370080947876  0.9305759072303771  0.7867599129676819  1.0000
  Fe  Fe2       1.0  0.40680474042892456  0.5147771239280701  0.9439948797225952  1.0000
  Fe  Fe3       1.0  0.9198907017707825  0.5421637296676636  0.9474743008613586  1.0000
  Fe  Fe4       1.0  0.42076072096824646  0.36616042256355286  0.4666960537433624  1.0000
  Li  Li1       1.0  0.43393442034721375  0.8659012913703917  0.034893438220024074  1.0000
  Mn  Mn1       1.0  0.9480426907539368  0.3918144404888153  0.6386977434158325  1.0000
  O   O1        1.0  0.8737754225730896  0.21226772665977475  0.15378183126449585  1.0000
  O   O2        1.0  0.41174295544624334  0.4412135481834411  0.9029252529144287  1.0000
  O   O3        1.0  0.4189673364162445  0.8913824558258056  0.4598117172718048  1.0000
