data_image0
_chemical_formula_structural       AlAs4Fe3HLi3O2
_chemical_formula_sum              "Al1 As4 Fe3 H1 Li3 O2"
_cell_length_a       3.524352063008382
_cell_length_b       5.339656424848068
_cell_length_c       8.635502815246582
_cell_angle_alpha    91.67822705847593
_cell_angle_beta     95.68285704502301
_cell_angle_gamma    89.34375712547856

_space_group_name_H-M_alt    "P 1"
_space_group_IT_number       1

loop_
  _space_group_symop_operation_xyz
  'x, y, z'

loop_
  _atom_site_type_symbol
  _atom_site_label
  _atom_site_symmetry_multiplicity
  _atom_site_fract_x
  _atom_site_fract_y
  _atom_site_fract_z
  _atom_site_occupancy
  Al  Al1       1.0  0.3353457450866699  0.7619482278823853  0.6684966087341309  1.0000
  As  As1       1.0  0.7952728271484375  0.8322240710258484  0.650800883769989  1.0000
  As  As2       1.0  0.2999097406864166  0.0022568702697753906  0.20503869652748108  1.0000
  As  As3       1.0  0.8379014730453491  0.5299066305160522  0.5245208144187927  1.0000
  As  As4       1.0  0.8254631161689758  0.604354739189148  0.05945764109492302  1.0000
  Fe  Fe1       1.0  0.32485315203666687  0.6603110432624817  0.43158918619155884  1.0000
  Fe  Fe2       1.0  0.8359546065330505  0.05762143433094025  0.6875227093696594  1.0000
  Fe  Fe3       1.0  0.32617437839508057  0.23442764580249786  0.1708654910326004  1.0000
  H   H1        1.0  0.303612619638443  0.33028340339660645  0.1918649822473526  1.0000
  Li  Li1       1.0  0.33783411979675293  0.022598451003432274  0.41535070538520813  1.0000
  Li  Li2       1.0  0.31041228771209717  0.8235705494880676  0.8699447512626648  1.0000
  Li  Li3       1.0  0.8175393342971802  0.006077681202441454  0.7945349812507629  1.0000
  O   O1        1.0  0.7920289635658264  0.8260350823402405  0.4579813480377197  1.0000
  O   O2        1.0  0.3613273799419403  0.2668359875679016  0.6202436685562134  1.0000
