data_image0
_chemical_formula_structural       AlCsLi4O5Zn3
_chemical_formula_sum              "Al1 Cs1 Li4 O5 Zn3"
_cell_length_a       4.665541674380252
_cell_length_b       5.567014523683924
_cell_length_c       8.537233352661133
_cell_angle_alpha    103.22638364010747
_cell_angle_beta     95.30196514175704
_cell_angle_gamma    88.75741805436137

_space_group_name_H-M_alt    "P 1"
_space_group_IT_number       1

loop_
  _space_group_symop_operation_xyz
  'x, y, z'

loop_
  _atom_site_type_symbol
  _atom_site_label
  _atom_site_symmetry_multiplicity
  _atom_site_fract_x
  _atom_site_fract_y
  _atom_site_fract_z
  _atom_site_occupancy
  Al  Al1       1.0  0.219125896692276  0.986115038394928  0.5584243535995483  1.0000
  Cs  Cs1       1.0  0.3005092144012451  0.26757240295410156  0.6520847082138062  1.0000
  Li  Li1       1.0  0.6043142676353455  0.7570004463195801  0.08274326473474503  1.0000
  Li  Li2       1.0  0.30512598156929016  0.76097172498703  0.738547146320343  1.0000
  Li  Li3       1.0  0.8120551705360413  0.4899692237377167  0.7220785617828369  1.0000
  Li  Li4       1.0  0.7875673174858093  0.6692922115325928  0.5632983446121216  1.0000
  O   O1        1.0  0.4278775453567505  0.9231059551239014  0.046296745538711576  1.0000
  O   O2        1.0  0.8844907283782959  0.9855669736862183  0.3952619731426239  1.0000
  O   O3        1.0  0.9536048769950867  0.9232073426246643  0.2416534274816513  1.0000
  O   O4        1.0  0.847106397151947  0.08541214466094971  0.9750585556030273  1.0000
  O   O5        1.0  0.25241708755493164  0.4666762053966522  0.46660542488098145  1.0000
  Zn  Zn1       1.0  0.048943307250738144  0.9987500905990601  0.7291876673698425  1.0000
  Zn  Zn2       1.0  0.16569679975509644  0.4733841121196747  0.024779541417956352  1.0000
  Zn  Zn3       1.0  0.5867919921875  0.30298325419425964  0.24993407726287842  1.0000
