data_image0
_chemical_formula_structural       AlCs2Li4O4SiZn2
_chemical_formula_sum              "Al1 Cs2 Li4 O4 Si1 Zn2"
_cell_length_a       5.473248093098647
_cell_length_b       6.600722923952528
_cell_length_c       6.887960910797119
_cell_angle_alpha    115.57651396317807
_cell_angle_beta     108.19553616513014
_cell_angle_gamma    98.39833653210945

_space_group_name_H-M_alt    "P 1"
_space_group_IT_number       1

loop_
  _space_group_symop_operation_xyz
  'x, y, z'

loop_
  _atom_site_type_symbol
  _atom_site_label
  _atom_site_symmetry_multiplicity
  _atom_site_fract_x
  _atom_site_fract_y
  _atom_site_fract_z
  _atom_site_occupancy
  Al  Al1       1.0  0.8668060302734375  0.6471349596977234  0.12188030779361719  1.0000
  Cs  Cs1       1.0  0.8605359792709351  0.4506405293941498  0.11992532014846802  1.0000
  Cs  Cs2       1.0  0.3720720112323761  0.07367650419473648  0.8549990057945251  1.0000
  Li  Li1       1.0  0.8724449872970581  0.17106245458126068  0.004917529877275196  1.0000
  Li  Li2       1.0  0.3657534718513489  0.4622769355773926  0.6136260628700256  1.0000
  Li  Li3       1.0  0.864305853843689  0.5744373202323914  0.9477546215057373  1.0000
  Li  Li4       1.0  0.40150216221809387  0.6437489986419678  0.3637738525867462  1.0000
  O   O1        1.0  0.7198208570480347  0.8035776019096375  0.42852100729942316  1.0000
  O   O2        1.0  0.07340241968631744  0.13312853872776031  0.3718414902687073  1.0000
  O   O3        1.0  0.09065143018960953  0.14010247588157654  0.3768954277038574  1.0000
  O   O4        1.0  0.647071123123169  0.7593680620193481  0.834697961807251  1.0000
  Si  Si1       1.0  0.8806374073028564  0.6442119479179382  0.7705441117286682  1.0000
  Zn  Zn1       1.0  0.35511815547943115  0.9264727830886841  0.7720335721969604  1.0000
  Zn  Zn2       1.0  0.8951814770698547  0.12886226177215576  0.8720448613166809  1.0000
