data_image0
_chemical_formula_structural       GaLuPSnZnZr6
_chemical_formula_sum              "Ga1 Lu1 P1 Sn1 Zn1 Zr6"
_cell_length_a       4.975203239553676
_cell_length_b       7.945538208580177
_cell_length_c       8.19146728515625
_cell_angle_alpha    120.8742143506254
_cell_angle_beta     89.14878564341447
_cell_angle_gamma    89.78453222133199

_space_group_name_H-M_alt    "P 1"
_space_group_IT_number       1

loop_
  _space_group_symop_operation_xyz
  'x, y, z'

loop_
  _atom_site_type_symbol
  _atom_site_label
  _atom_site_symmetry_multiplicity
  _atom_site_fract_x
  _atom_site_fract_y
  _atom_site_fract_z
  _atom_site_occupancy
  Ga  Ga1       1.0  0.06491764634847641  0.17506743967533112  0.04074125736951828  1.0000
  Lu  Lu1       1.0  0.5666592717170715  0.3403642773628235  0.7229284644126892  1.0000
  P   P1        1.0  0.5675129294395447  0.39442023634910583  0.13800035417079926  1.0000
  Sn  Sn1       1.0  0.06517411023378372  0.6000427603721619  0.314190149307251  1.0000
  Zn  Zn1       1.0  0.565371572971344  0.8610464334487915  0.31266698241233826  1.0000
  Zr  Zr1       1.0  0.06565223634243011  0.08326666802167892  0.12302662432193756  1.0000
  Zr  Zr2       1.0  0.06537613272666931  0.3743901252746582  0.5008758306503296  1.0000
  Zr  Zr3       1.0  0.5638589262962341  0.9163169860839844  0.5422494411468506  1.0000
  Zr  Zr4       1.0  0.5665034055709839  0.8439281582832336  0.14711959660053253  1.0000
  Zr  Zr5       1.0  0.5639509558677673  0.8854554891586304  0.47238361835479736  1.0000
  Zr  Zr6       1.0  0.0658058226108551  0.41637423634529114  0.6824992895126343  1.0000
