data_image0
_chemical_formula_structural       GaSn3ZnZr6
_chemical_formula_sum              "Ga1 Sn3 Zn1 Zr6"
_cell_length_a       4.77697855074204
_cell_length_b       8.429704713042925
_cell_length_c       8.505147933959961
_cell_angle_alpha    122.33829896806107
_cell_angle_beta     88.50367808849073
_cell_angle_gamma    89.96347683469075

_space_group_name_H-M_alt    "P 1"
_space_group_IT_number       1

loop_
  _space_group_symop_operation_xyz
  'x, y, z'

loop_
  _atom_site_type_symbol
  _atom_site_label
  _atom_site_symmetry_multiplicity
  _atom_site_fract_x
  _atom_site_fract_y
  _atom_site_fract_z
  _atom_site_occupancy
  Ga  Ga1       1.0  0.24009941518306735  0.6715991497039795  0.6988705992698669  1.0000
  Sn  Sn1       1.0  0.7446479797363281  0.9134640097618104  0.5177121758461  1.0000
  Sn  Sn2       1.0  0.7438563108444214  0.15431515872478485  0.35962218046188354  1.0000
  Sn  Sn3       1.0  0.7426143288612366  0.10233695060014726  0.45021912455558777  1.0000
  Zn  Zn1       1.0  0.24380987882614139  0.030469061806797985  0.23103204369544983  1.0000
  Zr  Zr1       1.0  0.24232678115367892  0.4104315638542176  0.8998234272003174  1.0000
  Zr  Zr2       1.0  0.7413435578346252  0.6548059582710266  0.7469332218170166  1.0000
  Zr  Zr3       1.0  0.7433040738105774  0.9350739717483522  0.9899963140487671  1.0000
  Zr  Zr4       1.0  0.743266761302948  0.38098651170730596  0.0014865398406982682  1.0000
  Zr  Zr5       1.0  0.24412004649639132  0.6945528984069824  0.3837821483612061  1.0000
  Zr  Zr6       1.0  0.24206604063510898  0.36785528063774114  0.19888620078563693  1.0000
