data_image0
_chemical_formula_structural       Sn4Zr7
_chemical_formula_sum              "Sn4 Zr7"
_cell_length_a       4.333833006313948
_cell_length_b       7.921640405849893
_cell_length_c       8.076478004455566
_cell_angle_alpha    122.34728359424705
_cell_angle_beta     86.5569175235062
_cell_angle_gamma    89.7314909686505

_space_group_name_H-M_alt    "P 1"
_space_group_IT_number       1

loop_
  _space_group_symop_operation_xyz
  'x, y, z'

loop_
  _atom_site_type_symbol
  _atom_site_label
  _atom_site_symmetry_multiplicity
  _atom_site_fract_x
  _atom_site_fract_y
  _atom_site_fract_z
  _atom_site_occupancy
  Sn  Sn1       1.0  0.21385672688484192  0.25984281301498413  0.7584554553031921  1.0000
  Sn  Sn2       1.0  0.2153734415769577  0.7799160480499268  0.533268928527832  1.0000
  Sn  Sn3       1.0  0.2131902426481247  0.7112213969230652  0.21060693264007574  1.0000
  Sn  Sn4       1.0  0.212985560297966  0.7398650646209717  0.545266330242157  1.0000
  Zr  Zr1       1.0  0.7149115800857544  0.403713583946228  0.7483062148094177  1.0000
  Zr  Zr2       1.0  0.7180812358856201  0.2720611095428467  0.6058613657951355  1.0000
  Zr  Zr3       1.0  0.716560959815979  0.7600835561752319  0.13386197388172155  1.0000
  Zr  Zr4       1.0  0.21764253079891205  0.0030399858951568604  0.3715527057647705  1.0000
  Zr  Zr5       1.0  0.7153574824333191  0.9405948519706727  0.9374749064445496  1.0000
  Zr  Zr6       1.0  0.7128421664237976  0.2664039433002472  0.06709572672843934  1.0000
  Zr  Zr7       1.0  0.714634358882904  0.033144570887088776  0.7247224450111389  1.0000
