data_image0
_chemical_formula_structural       BaGaSn3Zr6
_chemical_formula_sum              "Ba1 Ga1 Sn3 Zr6"
_cell_length_a       4.4904474609268945
_cell_length_b       7.8970153877740605
_cell_length_c       7.956662178039551
_cell_angle_alpha    121.28398978530201
_cell_angle_beta     88.2290806810863
_cell_angle_gamma    90.18338789051283

_space_group_name_H-M_alt    "P 1"
_space_group_IT_number       1

loop_
  _space_group_symop_operation_xyz
  'x, y, z'

loop_
  _atom_site_type_symbol
  _atom_site_label
  _atom_site_symmetry_multiplicity
  _atom_site_fract_x
  _atom_site_fract_y
  _atom_site_fract_z
  _atom_site_occupancy
  Ba  Ba1       1.0  0.14998561143875122  0.9163856506347656  0.9884228706359863  1.0000
  Ga  Ga1       1.0  0.6362055540084839  0.1669539213180542  0.49996399879455566  1.0000
  Sn  Sn1       1.0  0.6470533013343811  0.4612587094306946  0.5906553268432617  1.0000
  Sn  Sn2       1.0  0.13305862247943878  0.5891759395599365  0.27241641283035284  1.0000
  Sn  Sn3       1.0  0.134071946144104  0.6114661693572998  0.2786798179149627  1.0000
  Zr  Zr1       1.0  0.14751680195331573  0.07685933262109756  0.7584121227264404  1.0000
  Zr  Zr2       1.0  0.14256060123443604  0.5286548137664795  0.9628132581710815  1.0000
  Zr  Zr3       1.0  0.6340969800949097  0.41694924235343933  0.5049096941947937  1.0000
  Zr  Zr4       1.0  0.14407451450824738  0.2867046594619751  0.9459309577941895  1.0000
  Zr  Zr5       1.0  0.6465146541595459  0.784645676612854  0.08352365344762797  1.0000
  Zr  Zr6       1.0  0.6510723829269409  0.3598687946796417  0.740309476852417  1.0000
