data_image0
_chemical_formula_structural       Ga2SnZr8
_chemical_formula_sum              "Ga2 Sn1 Zr8"
_cell_length_a       4.673317809569819
_cell_length_b       7.846715879842445
_cell_length_c       8.041598320007324
_cell_angle_alpha    123.15941537578024
_cell_angle_beta     88.83187109590183
_cell_angle_gamma    88.71482401009818

_space_group_name_H-M_alt    "P 1"
_space_group_IT_number       1

loop_
  _space_group_symop_operation_xyz
  'x, y, z'

loop_
  _atom_site_type_symbol
  _atom_site_label
  _atom_site_symmetry_multiplicity
  _atom_site_fract_x
  _atom_site_fract_y
  _atom_site_fract_z
  _atom_site_occupancy
  Ga  Ga1       1.0  0.44318991899490356  0.7989722490310669  0.663447380065918  1.0000
  Ga  Ga2       1.0  0.4363194406032562  0.6526233553886414  0.04038658365607262  1.0000
  Sn  Sn1       1.0  0.43460994958877563  0.6028074622154236  0.9355695843696594  1.0000
  Zr  Zr1       1.0  0.9351961612701416  0.2582431435585022  0.22228597104549408  1.0000
  Zr  Zr2       1.0  0.435658723115921  0.8271787166595459  0.2144445776939392  1.0000
  Zr  Zr3       1.0  0.9344555139541626  0.4926305413246155  0.2289067804813385  1.0000
  Zr  Zr4       1.0  0.43453696370124817  0.17588593065738678  0.6505280137062073  1.0000
  Zr  Zr5       1.0  0.9360906481742859  0.8091414570808411  0.7298880219459534  1.0000
  Zr  Zr6       1.0  0.4351522624492645  0.30970731377601624  0.8143125176429749  1.0000
  Zr  Zr7       1.0  0.934447169303894  0.1179652288556099  0.4230833947658539  1.0000
  Zr  Zr8       1.0  0.4326787292957306  0.1409534364938736  0.5089697241783142  1.0000
