data_image0
_chemical_formula_structural       ClSn2ZnZr7
_chemical_formula_sum              "Cl1 Sn2 Zn1 Zr7"
_cell_length_a       4.416524746734775
_cell_length_b       7.785945898274466
_cell_length_c       7.9756388664245605
_cell_angle_alpha    121.69903462475993
_cell_angle_beta     87.80310484439737
_cell_angle_gamma    89.41817707248657

_space_group_name_H-M_alt    "P 1"
_space_group_IT_number       1

loop_
  _space_group_symop_operation_xyz
  'x, y, z'

loop_
  _atom_site_type_symbol
  _atom_site_label
  _atom_site_symmetry_multiplicity
  _atom_site_fract_x
  _atom_site_fract_y
  _atom_site_fract_z
  _atom_site_occupancy
  Cl  Cl1       1.0  0.8565142750740051  0.6894182562828064  0.7115745544433594  1.0000
  Sn  Sn1       1.0  0.35270553827285767  0.9460533857345581  0.8989117741584778  1.0000
  Sn  Sn2       1.0  0.8460630178451538  0.398395299911499  0.3242218494415283  1.0000
  Zn  Zn1       1.0  0.34929126501083374  0.21956868469715118  0.2960270345211029  1.0000
  Zr  Zr1       1.0  0.34943604469299316  0.20482975244522095  0.030789529904723167  1.0000
  Zr  Zr2       1.0  0.3491532504558563  0.49028444290161133  0.2051794528961182  1.0000
  Zr  Zr3       1.0  0.8512161374092102  0.5220016241073608  0.3762591481208801  1.0000
  Zr  Zr4       1.0  0.3483997881412506  0.7229781150817871  0.7149728536605835  1.0000
  Zr  Zr5       1.0  0.8528718948364258  0.7144841551780701  0.09650587290525436  1.0000
  Zr  Zr6       1.0  0.8512135148048401  0.5101625919342041  0.7589764595031738  1.0000
  Zr  Zr7       1.0  0.8522140979766846  0.5241650342941284  0.47783738374710083  1.0000
