data_image0
_chemical_formula_structural       CoI2Ni3SbUZnZr2
_chemical_formula_sum              "Co1 I2 Ni3 Sb1 U1 Zn1 Zr2"
_cell_length_a       5.246668210527848
_cell_length_b       5.590289189152922
_cell_length_c       8.021549224853516
_cell_angle_alpha    94.16831221719522
_cell_angle_beta     90.36456249269091
_cell_angle_gamma    89.72562845425055

_space_group_name_H-M_alt    "P 1"
_space_group_IT_number       1

loop_
  _space_group_symop_operation_xyz
  'x, y, z'

loop_
  _atom_site_type_symbol
  _atom_site_label
  _atom_site_symmetry_multiplicity
  _atom_site_fract_x
  _atom_site_fract_y
  _atom_site_fract_z
  _atom_site_occupancy
  Co  Co1       1.0  0.7103731036186218  0.6568164825439453  0.5089483261108398  1.0000
  I   I1        1.0  0.7032861113548279  0.6930437088012695  0.7105823159217834  1.0000
  I   I2        1.0  0.21108371019363403  0.9903922677040101  0.16164426505565643  1.0000
  Ni  Ni1       1.0  0.7162981629371643  0.21225824952125552  0.7462254762649536  1.0000
  Ni  Ni2       1.0  0.7078021168708801  0.7197365760803223  0.6701871156692505  1.0000
  Ni  Ni3       1.0  0.21681278944015503  0.5249115228652954  0.5423457622528076  1.0000
  Sb  Sb1       1.0  0.2165454477071762  0.4909948408603669  0.2547461688518524  1.0000
  U   U1        1.0  0.22257839143276215  0.7584100365638733  0.9897453188896179  1.0000
  Zn  Zn1       1.0  0.21338622272014618  0.0676141157746315  0.9297834038734436  1.0000
  Zr  Zr1       1.0  0.728092074394226  0.9498662352561952  0.756240963935852  1.0000
  Zr  Zr2       1.0  0.7168545126914978  0.47724887728691107  0.34989482164382935  1.0000
