data_image0
_chemical_formula_structural       Ce2HLaNi2OPbTb2Yb
_chemical_formula_sum              "Ce2 H1 La1 Ni2 O1 Pb1 Tb2 Yb1"
_cell_length_a       4.832780171079962
_cell_length_b       3.992751586838333
_cell_length_c       3.2402539253234863
_cell_angle_alpha    64.75089016268932
_cell_angle_beta     95.24265690732881
_cell_angle_gamma    97.05466159977671

_space_group_name_H-M_alt    "P 1"
_space_group_IT_number       1

loop_
  _space_group_symop_operation_xyz
  'x, y, z'

loop_
  _atom_site_type_symbol
  _atom_site_label
  _atom_site_symmetry_multiplicity
  _atom_site_fract_x
  _atom_site_fract_y
  _atom_site_fract_z
  _atom_site_occupancy
  Ce  Ce1       1.0  0.42194509506225586  0.6343735456466675  0.8704480528831483  1.0000
  Ce  Ce2       1.0  0.9665668606758118  0.057691313326358795  0.7742432951927186  1.0000
  H   H1        1.0  0.3964749276638031  0.09218169003725052  0.10776226967573167  1.0000
  La  La1       1.0  0.5027303695678711  0.5489434599876404  0.45711168646812445  1.0000
  Ni  Ni1       1.0  0.8811746835708618  0.8851840496063232  0.8670189976692201  1.0000
  Ni  Ni2       1.0  0.3850778341293335  0.12617218494415283  0.5990456938743591  1.0000
  O   O1        1.0  0.9409446120262146  0.14913825690746307  0.6811440587043762  1.0000
  Pb  Pb1       1.0  0.9907762408256531  0.20281140506267548  0.674607515335083  1.0000
  Tb  Tb1       1.0  0.06706998497247696  0.7665920257568359  0.6033122539520264  1.0000
  Tb  Tb2       1.0  0.8999588489532471  0.3516972064971924  0.09820517897605897  1.0000
  Yb  Yb1       1.0  0.9642890095710754  0.9833478927612306  0.8381479382514955  1.0000
