data_image0
_chemical_formula_structural       CeNi6Si4
_chemical_formula_sum              "Ce1 Ni6 Si4"
_cell_length_a       5.598388977652792
_cell_length_b       5.483385060115026
_cell_length_c       5.807501792907715
_cell_angle_alpha    90.70200992192322
_cell_angle_beta     89.12449774938452
_cell_angle_gamma    89.85261446017411

_space_group_name_H-M_alt    "P 1"
_space_group_IT_number       1

loop_
  _space_group_symop_operation_xyz
  'x, y, z'

loop_
  _atom_site_type_symbol
  _atom_site_label
  _atom_site_symmetry_multiplicity
  _atom_site_fract_x
  _atom_site_fract_y
  _atom_site_fract_z
  _atom_site_occupancy
  Ce  Ce1       1.0  0.8703131675720215  0.7295185327529907  0.3697755038738251  1.0000
  Ni  Ni1       1.0  0.6061281561851501  0.32999372482299805  0.2727833390235901  1.0000
  Ni  Ni2       1.0  0.3739592432975769  0.8533447980880737  0.2767988443374634  1.0000
  Ni  Ni3       1.0  0.37621235847473145  0.3687877058982849  0.37036898732185364  1.0000
  Ni  Ni4       1.0  0.8673305511474609  0.6607012748718262  0.8251621127128601  1.0000
  Ni  Ni5       1.0  0.37058308720588684  0.13717985153198242  0.9396129846572876  1.0000
  Ni  Ni6       1.0  0.868278443813324  0.31853359937667847  0.7699254155158997  1.0000
  Si  Si1       1.0  0.37069523334503174  0.5223427414894104  0.8792034983634949  1.0000
  Si  Si2       1.0  0.8745855093002319  0.7995997071266174  0.3365558981895447  1.0000
  Si  Si3       1.0  0.886638879776001  0.8287615776062012  0.9663733243942261  1.0000
  Si  Si4       1.0  0.3751172721385956  0.3743402361869812  0.5516830086708069  1.0000
