data_image0
_chemical_formula_structural       AlCeErI2Ni3PtRuZr
_chemical_formula_sum              "Al1 Ce1 Er1 I2 Ni3 Pt1 Ru1 Zr1"
_cell_length_a       5.363581807811662
_cell_length_b       6.447175363405295
_cell_length_c       7.051619529724121
_cell_angle_alpha    108.04418101333526
_cell_angle_beta     104.73302312426756
_cell_angle_gamma    91.30630122446654

_space_group_name_H-M_alt    "P 1"
_space_group_IT_number       1

loop_
  _space_group_symop_operation_xyz
  'x, y, z'

loop_
  _atom_site_type_symbol
  _atom_site_label
  _atom_site_symmetry_multiplicity
  _atom_site_fract_x
  _atom_site_fract_y
  _atom_site_fract_z
  _atom_site_occupancy
  Al  Al1       1.0  0.7782655954360962  0.17854523658752441  0.3153880834579468  1.0000
  Ce  Ce1       1.0  0.7683650255203247  0.020679092034697533  0.12709452211856842  1.0000
  Er  Er1       1.0  0.05033132806420326  0.7038096785545349  0.6843611598014832  1.0000
  I   I1        1.0  0.2685065269470215  0.6630845069885254  0.5249506235122681  1.0000
  I   I2        1.0  0.25630155205726624  0.3261108100414276  0.3196977376937866  1.0000
  Ni  Ni1       1.0  0.2625932991504669  0.7749663591384888  0.16877761483192444  1.0000
  Ni  Ni2       1.0  0.7654122114181519  0.708053708076477  0.5188692808151245  1.0000
  Ni  Ni3       1.0  0.26605525612831116  0.5227688550949097  0.20214344561100006  1.0000
  Pt  Pt1       1.0  0.7705904841423035  0.30997028946876526  0.02366400882601738  1.0000
  Ru  Ru1       1.0  0.7144917845726013  0.4375082552433014  0.30442166328430176  1.0000
  Zr  Zr1       1.0  0.7536846995353699  0.7977800965309143  0.2392633259296417  1.0000
