data_image0
_chemical_formula_structural       BrCCeCoINi4PrRu
_chemical_formula_sum              "Br1 C1 Ce1 Co1 I1 Ni4 Pr1 Ru1"
_cell_length_a       5.7390103931231415
_cell_length_b       6.158254704935175
_cell_length_c       6.340723037719727
_cell_angle_alpha    121.19478377305097
_cell_angle_beta     90.6349872906175
_cell_angle_gamma    90.00088759698937

_space_group_name_H-M_alt    "P 1"
_space_group_IT_number       1

loop_
  _space_group_symop_operation_xyz
  'x, y, z'

loop_
  _atom_site_type_symbol
  _atom_site_label
  _atom_site_symmetry_multiplicity
  _atom_site_fract_x
  _atom_site_fract_y
  _atom_site_fract_z
  _atom_site_occupancy
  Br  Br1       1.0  0.19700917601585388  0.844722330570221  0.39697465300560003  1.0000
  C   C1        1.0  0.9478405117988586  0.3125334084033966  0.6322252750396729  1.0000
  Ce  Ce1       1.0  0.7081642150878906  0.9408999085426331  0.003153862664476037  1.0000
  Co  Co1       1.0  0.20882150530815125  0.1828938126564026  0.6688335537910461  1.0000
  I   I1        1.0  0.4493297338485718  0.01703949086368084  0.32281941175460815  1.0000
  Ni  Ni1       1.0  0.20875297486782074  0.5771761536598206  0.08327504247426994  1.0000
  Ni  Ni2       1.0  0.6945607662200928  0.2746359407901764  0.7112674117088318  1.0000
  Ni  Ni3       1.0  0.21410013735294342  0.7044800519943237  0.8663954138755798  1.0000
  Ni  Ni4       1.0  0.6966848373413086  0.5954693555831909  0.9286802411079407  1.0000
  Pr  Pr1       1.0  0.6977466940879822  0.9216712117195129  0.5243234634399414  1.0000
  Ru  Ru1       1.0  0.9516291618347168  0.4382631480693817  0.873781681060791  1.0000
