data_image0
_chemical_formula_structural       CeMoNi6Si3
_chemical_formula_sum              "Ce1 Mo1 Ni6 Si3"
_cell_length_a       4.175182112907792
_cell_length_b       5.588648480127477
_cell_length_c       5.6871490478515625
_cell_angle_alpha    115.71359732345542
_cell_angle_beta     91.26752374924114
_cell_angle_gamma    93.1606750152091

_space_group_name_H-M_alt    "P 1"
_space_group_IT_number       1

loop_
  _space_group_symop_operation_xyz
  'x, y, z'

loop_
  _atom_site_type_symbol
  _atom_site_label
  _atom_site_symmetry_multiplicity
  _atom_site_fract_x
  _atom_site_fract_y
  _atom_site_fract_z
  _atom_site_occupancy
  Ce  Ce1       1.0  0.8004230856895447  0.7484204173088074  0.6757363080978394  1.0000
  Mo  Mo1       1.0  0.2984668016433716  0.8003217577934265  0.8611731529235841  1.0000
  Ni  Ni1       1.0  0.2870052754878998  0.2405946999788284  0.6753029823303223  1.0000
  Ni  Ni2       1.0  0.27639731764793396  0.9182544946670532  0.9216958880424501  1.0000
  Ni  Ni3       1.0  0.2911904752254486  0.9409649968147277  0.916552484035492  1.0000
  Ni  Ni4       1.0  0.2970624268054962  0.5861659049987793  0.9310390949249269  1.0000
  Ni  Ni5       1.0  0.784697413444519  0.26280155777931213  0.43399408459663397  1.0000
  Ni  Ni6       1.0  0.29629072546958923  0.2794577479362488  0.5361455082893372  1.0000
  Si  Si1       1.0  0.7970454096794128  0.4214535653591156  0.5289055705070496  1.0000
  Si  Si2       1.0  0.7827903628349304  0.38879358768463135  0.45379468798637396  1.0000
  Si  Si3       1.0  0.8020994663238525  0.9802308082580565  0.750239908695221  1.0000
