data_image0
_chemical_formula_structural       ClCo3Sn3
_chemical_formula_sum              "Cl1 Co3 Sn3"
_cell_length_a       4.445325034564062
_cell_length_b       4.507924894799635
_cell_length_c       7.456361293792725
_cell_angle_alpha    95.1117782768779
_cell_angle_beta     95.65893270237729
_cell_angle_gamma    87.1797518643463

_space_group_name_H-M_alt    "P 1"
_space_group_IT_number       1

loop_
  _space_group_symop_operation_xyz
  'x, y, z'

loop_
  _atom_site_type_symbol
  _atom_site_label
  _atom_site_symmetry_multiplicity
  _atom_site_fract_x
  _atom_site_fract_y
  _atom_site_fract_z
  _atom_site_occupancy
  Cl  Cl1       1.0  0.37416744232177734  0.21790769696235657  0.5612359046936035  1.0000
  Co  Co1       1.0  0.600060224533081  0.7251064777374268  0.5359772443771362  1.0000
  Co  Co2       1.0  0.3002159297466278  0.7524120211601257  0.570946455001831  1.0000
  Co  Co3       1.0  0.6389895081520081  0.9861900210380554  0.8488640785217285  1.0000
  Sn  Sn1       1.0  0.865535318851471  0.7261855006217957  0.5662336349487305  1.0000
  Sn  Sn2       1.0  0.7442837357521057  0.44793692231178284  0.9712372422218323  1.0000
  Sn  Sn3       1.0  0.22247467935085297  0.706160843372345  0.7505290508270264  1.0000
