data_image0
_chemical_formula_structural       Co2Sn5
_chemical_formula_sum              "Co2 Sn5"
_cell_length_a       5.170571638780546
_cell_length_b       5.032999823827535
_cell_length_c       5.01216983795166
_cell_angle_alpha    90.0536586517952
_cell_angle_beta     91.11837903651089
_cell_angle_gamma    87.75484531763735

_space_group_name_H-M_alt    "P 1"
_space_group_IT_number       1

loop_
  _space_group_symop_operation_xyz
  'x, y, z'

loop_
  _atom_site_type_symbol
  _atom_site_label
  _atom_site_symmetry_multiplicity
  _atom_site_fract_x
  _atom_site_fract_y
  _atom_site_fract_z
  _atom_site_occupancy
  Co  Co1       1.0  0.2681790590286255  0.25297030806541443  0.7047538757324219  1.0000
  Co  Co2       1.0  0.8326278924942017  0.2459407299757004  0.4616148769855499  1.0000
  Sn  Sn1       1.0  0.8436867594718933  0.12658652663230896  0.27950096130371094  1.0000
  Sn  Sn2       1.0  0.273688942193985  0.7613884806632996  0.7661141157150269  1.0000
  Sn  Sn3       1.0  0.5340152978897095  0.40032386779785156  0.2604653835296631  1.0000
  Sn  Sn4       1.0  0.7821334004402161  0.06947527080774307  0.771856427192688  1.0000
  Sn  Sn5       1.0  0.2606460452079773  0.3001011312007904  0.9754843711853027  1.0000
