data_image0
_chemical_formula_structural       Co2Sn5
_chemical_formula_sum              "Co2 Sn5"
_cell_length_a       4.764762806366068
_cell_length_b       3.8766905032180716
_cell_length_c       5.431463718414307
_cell_angle_alpha    94.79358716674474
_cell_angle_beta     93.4087337125092
_cell_angle_gamma    86.26651357413998

_space_group_name_H-M_alt    "P 1"
_space_group_IT_number       1

loop_
  _space_group_symop_operation_xyz
  'x, y, z'

loop_
  _atom_site_type_symbol
  _atom_site_label
  _atom_site_symmetry_multiplicity
  _atom_site_fract_x
  _atom_site_fract_y
  _atom_site_fract_z
  _atom_site_occupancy
  Co  Co1       1.0  0.6209219694137573  0.5938820838928223  0.766876757144928  1.0000
  Co  Co2       1.0  0.16959601640701294  0.5625869631767273  0.9588231444358826  1.0000
  Sn  Sn1       1.0  0.21026255190372467  0.9692031145095825  0.20423546433448792  1.0000
  Sn  Sn2       1.0  0.7738463282585144  0.9869599938392639  0.2104162871837616  1.0000
  Sn  Sn3       1.0  0.5710300207138062  0.2671003043651581  0.3974645137786865  1.0000
  Sn  Sn4       1.0  0.18305768072605133  0.6111472845077515  0.4993384778499603  1.0000
  Sn  Sn5       1.0  0.7868666052818298  0.25424259901046753  0.6535276174545288  1.0000
