data_image0
_chemical_formula_structural       AsGa2IK2PrSTaTiV2Zr
_chemical_formula_sum              "As1 Ga2 I1 K2 Pr1 S1 Ta1 Ti1 V2 Zr1"
_cell_length_a       6.459563020967925
_cell_length_b       7.364473341955707
_cell_length_c       7.60664176940918
_cell_angle_alpha    120.76464699076408
_cell_angle_beta     91.35221671913615
_cell_angle_gamma    92.64244955137694

_space_group_name_H-M_alt    "P 1"
_space_group_IT_number       1

loop_
  _space_group_symop_operation_xyz
  'x, y, z'

loop_
  _atom_site_type_symbol
  _atom_site_label
  _atom_site_symmetry_multiplicity
  _atom_site_fract_x
  _atom_site_fract_y
  _atom_site_fract_z
  _atom_site_occupancy
  As  As1       1.0  0.8822499513626099  0.9985701441764832  0.7307996153831483  1.0000
  Ga  Ga1       1.0  0.42719125747680664  0.9759921431541443  0.9554575085639955  1.0000
  Ga  Ga2       1.0  0.6543349027633667  0.7052211761474609  0.5968639850616456  1.0000
  I   I1        1.0  0.4071072041988373  0.4137389063835144  0.4634133875370026  1.0000
  K   K1        1.0  0.6800076961517334  0.3952731192111969  0.9864554405212403  1.0000
  K   K2        1.0  0.681309700012207  0.7473793029785156  0.7853017449378968  1.0000
  Pr  Pr1       1.0  0.17803232371807098  0.8665573000907898  0.49078112840652477  1.0000
  S   S1        1.0  0.9419255256652832  0.8356409072875977  0.8257529139518739  1.0000
  Ta  Ta1       1.0  0.1696692705154419  0.679743230342865  0.24089738726615914  1.0000
  Ti  Ti1       1.0  0.07585670053958893  0.7244271636009216  0.6641690135002137  1.0000
  V   V1        1.0  0.173134446144104  0.10807593166828156  0.6026676893234254  1.0000
  V   V2        1.0  0.6262853741645813  0.5798714756965637  0.5964570045471193  1.0000
  Zr  Zr1       1.0  0.14557433128356934  0.5956200957298279  0.21387542784214023  1.0000
