data_image0
_chemical_formula_structural       CaGa5K2PbSTbV2
_chemical_formula_sum              "Ca1 Ga5 K2 Pb1 S1 Tb1 V2"
_cell_length_a       6.9202480009117435
_cell_length_b       6.706293365468683
_cell_length_c       9.280933380126953
_cell_angle_alpha    89.21453392921693
_cell_angle_beta     90.49697428634573
_cell_angle_gamma    114.23624260568725

_space_group_name_H-M_alt    "P 1"
_space_group_IT_number       1

loop_
  _space_group_symop_operation_xyz
  'x, y, z'

loop_
  _atom_site_type_symbol
  _atom_site_label
  _atom_site_symmetry_multiplicity
  _atom_site_fract_x
  _atom_site_fract_y
  _atom_site_fract_z
  _atom_site_occupancy
  Ca  Ca1       1.0  0.42754754424095154  0.034570708870887756  0.832329511642456  1.0000
  Ga  Ga1       1.0  0.8444598317146301  0.8749716281890869  0.5493040084838867  1.0000
  Ga  Ga2       1.0  0.7302123308181763  0.8753571510314941  0.4830766022205353  1.0000
  Ga  Ga3       1.0  0.6425947546958923  0.2592090666294098  0.21844016015529633  1.0000
  Ga  Ga4       1.0  0.7688413858413696  0.22449851036071777  0.9419629573822021  1.0000
  Ga  Ga5       1.0  0.8580264449119568  0.9084768295288086  0.4935445487499237  1.0000
  K   K1        1.0  0.8113486766815186  0.49199986457824707  0.9646847248077393  1.0000
  K   K2        1.0  0.23534466326236725  0.3307444453239441  0.45589587092399597  1.0000
  Pb  Pb1       1.0  0.9841440320014954  0.8586317300796509  0.02039477229118347  1.0000
  S   S1        1.0  0.9934182167053223  0.5795073509216309  0.7769555449485779  1.0000
  Tb  Tb1       1.0  0.434291809797287  0.5837278962135315  0.03386591374874115  1.0000
  V   V1        1.0  0.9390605092048645  0.6809939742088318  0.42977914214134216  1.0000
  V   V2        1.0  0.4951690435409546  0.18452711403369904  0.8622319102287292  1.0000
