data_image0
_chemical_formula_structural       Ag2K8SeTaZr
_chemical_formula_sum              "Ag2 K8 Se1 Ta1 Zr1"
_cell_length_a       6.8174578141888125
_cell_length_b       7.398834322939679
_cell_length_c       8.004926681518555
_cell_angle_alpha    119.41955004544204
_cell_angle_beta     92.02496812761255
_cell_angle_gamma    103.33682611256144

_space_group_name_H-M_alt    "P 1"
_space_group_IT_number       1

loop_
  _space_group_symop_operation_xyz
  'x, y, z'

loop_
  _atom_site_type_symbol
  _atom_site_label
  _atom_site_symmetry_multiplicity
  _atom_site_fract_x
  _atom_site_fract_y
  _atom_site_fract_z
  _atom_site_occupancy
  Ag  Ag1       1.0  0.5007745623588562  0.958716869354248  0.2704733312129974  1.0000
  Ag  Ag2       1.0  0.7219772338867189  0.3235322833061218  0.800825834274292  1.0000
  K   K1        1.0  0.4861136376857758  0.48285168409347534  0.1637968271970749  1.0000
  K   K2        1.0  0.9658591747283937  0.06274770945310593  0.11397098749876022  1.0000
  K   K3        1.0  0.6962045431137086  0.7094421982765198  0.8441000580787659  1.0000
  K   K4        1.0  0.9813702702522279  0.44169068336486816  0.6689261794090271  1.0000
  K   K5        1.0  0.4806527197360993  0.4021754860877991  0.78025221824646  1.0000
  K   K6        1.0  0.5017176866531372  0.8624222874641418  0.15004795789718622  1.0000
  K   K7        1.0  0.0109839104115963  0.030564723536372185  0.8098922371864319  1.0000
  K   K8        1.0  0.15348972380161285  0.5978586077690125  0.7092381715774536  1.0000
  Se  Se1       1.0  0.15951628983020785  0.6843307614326477  0.2889809906482696  1.0000
  Ta  Ta1       1.0  0.1675563752651215  0.3451154828071594  0.20750674605369565  1.0000
  Zr  Zr1       1.0  0.6988123059272767  0.7128304839134216  0.8658772706985474  1.0000
