data_image0
_chemical_formula_structural       Ag5K5MoSTa
_chemical_formula_sum              "Ag5 K5 Mo1 S1 Ta1"
_cell_length_a       6.3792898202275
_cell_length_b       7.925827385320208
_cell_length_c       8.04707145690918
_cell_angle_alpha    122.29050420941024
_cell_angle_beta     95.67533083424725
_cell_angle_gamma    98.28777445978947

_space_group_name_H-M_alt    "P 1"
_space_group_IT_number       1

loop_
  _space_group_symop_operation_xyz
  'x, y, z'

loop_
  _atom_site_type_symbol
  _atom_site_label
  _atom_site_symmetry_multiplicity
  _atom_site_fract_x
  _atom_site_fract_y
  _atom_site_fract_z
  _atom_site_occupancy
  Ag  Ag1       1.0  0.28097808361053467  0.536423921585083  0.9871989488601685  1.0000
  Ag  Ag2       1.0  0.2697810232639313  0.11042622476816177  0.5559353232383728  1.0000
  Ag  Ag3       1.0  0.7977786660194397  0.9510422348976135  0.5795422196388245  1.0000
  Ag  Ag4       1.0  0.5978580117225647  0.9519065022468567  0.4190388023853302  1.0000
  Ag  Ag5       1.0  0.7759912610054016  0.6387708783149719  0.6776864528656006  1.0000
  K   K1        1.0  0.28866127133369446  0.4500694274902344  0.4113354980945587  1.0000
  K   K2        1.0  0.2753545641899109  0.4067869186401367  0.35716477036476135  1.0000
  K   K3        1.0  0.8225350975990295  0.7038567662239075  0.32521575689315796  1.0000
  K   K4        1.0  0.2933585047721863  0.2128225713968277  0.5715306997299194  1.0000
  K   K5        1.0  0.7605786323547363  0.03188379108905792  0.9862145185470581  1.0000
  Mo  Mo1       1.0  0.7652696371078491  0.09102793782949448  0.9521867036819458  1.0000
  S   S1        1.0  0.8974925279617308  0.8057764172554016  0.47581714391708374  1.0000
  Ta  Ta1       1.0  0.27323633432388306  0.907248318195343  0.901216447353363  1.0000
