data_image0
_chemical_formula_structural       Ga2IKMoPPbS3SbTiV
_chemical_formula_sum              "Ga2 I1 K1 Mo1 P1 Pb1 S3 Sb1 Ti1 V1"
_cell_length_a       5.4745448357749815
_cell_length_b       5.138861824667659
_cell_length_c       10.31166934967041
_cell_angle_alpha    91.48480799678912
_cell_angle_beta     91.10644133921554
_cell_angle_gamma    122.70205198354179

_space_group_name_H-M_alt    "P 1"
_space_group_IT_number       1

loop_
  _space_group_symop_operation_xyz
  'x, y, z'

loop_
  _atom_site_type_symbol
  _atom_site_label
  _atom_site_symmetry_multiplicity
  _atom_site_fract_x
  _atom_site_fract_y
  _atom_site_fract_z
  _atom_site_occupancy
  Ga  Ga1       1.0  0.607672929763794  0.9210303425788879  0.32396942377090454  1.0000
  Ga  Ga2       1.0  0.8357590436935425  0.7723074555397034  0.862490177154541  1.0000
  I   I1        1.0  0.6803385019302368  0.9598759412765503  0.3272812068462372  1.0000
  K   K1        1.0  0.25175291299819946  0.7469432950019836  0.9587087631225586  1.0000
  Mo  Mo1       1.0  0.21684421598911285  0.7244991064071655  0.30420622229576116  1.0000
  P   P1        1.0  0.10267341136932373  0.32775789499282837  0.18862593173980713  1.0000
  Pb  Pb1       1.0  0.10395696014165878  0.21279612183570862  0.6284052729606628  1.0000
  S   S1        1.0  0.6436852216720581  0.9268877506256104  0.13497501611709595  1.0000
  S   S2        1.0  0.6759518384933472  0.744357168674469  0.9055487513542175  1.0000
  S   S3        1.0  0.15411114692687988  0.6785668134689331  0.2572137117385864  1.0000
  Sb  Sb1       1.0  0.7894241213798523  0.9346769452095032  0.7169955968856812  1.0000
  Ti  Ti1       1.0  0.3092159926891327  0.3599424362182617  0.550140917301178  1.0000
  V   V1        1.0  0.3602583408355713  0.3456127643585205  0.07985758781433105  1.0000
