data_image0
_chemical_formula_structural       GaI3KP2S3V3
_chemical_formula_sum              "Ga1 I3 K1 P2 S3 V3"
_cell_length_a       6.91615469544937
_cell_length_b       6.914556473219312
_cell_length_c       9.333925247192383
_cell_angle_alpha    93.5620931647396
_cell_angle_beta     89.95411146730396
_cell_angle_gamma    89.13126878753471

_space_group_name_H-M_alt    "P 1"
_space_group_IT_number       1

loop_
  _space_group_symop_operation_xyz
  'x, y, z'

loop_
  _atom_site_type_symbol
  _atom_site_label
  _atom_site_symmetry_multiplicity
  _atom_site_fract_x
  _atom_site_fract_y
  _atom_site_fract_z
  _atom_site_occupancy
  Ga  Ga1       1.0  0.1098174899816513  0.6985929012298584  0.40966132283210754  1.0000
  I   I1        1.0  0.9882377982139587  0.2910444438457489  0.7768121957778931  1.0000
  I   I2        1.0  0.5083760023117065  0.9765264987945557  0.32556426525115967  1.0000
  I   I3        1.0  0.2740004062652588  0.22382506728172302  0.1650042086839676  1.0000
  K   K1        1.0  0.36781466007232666  0.42882534861564636  0.38676929473876953  1.0000
  P   P1        1.0  0.4958591163158417  0.11413036286830902  0.4057661294937134  1.0000
  P   P2        1.0  0.9697961807250977  0.759070098400116  0.2307465374469757  1.0000
  S   S1        1.0  0.6514855623245239  0.5300280451774597  0.7219231724739075  1.0000
  S   S2        1.0  0.929274320602417  0.8127185702323914  0.27594199776649475  1.0000
  S   S3        1.0  0.7548700571060181  0.3892116844654083  0.7972236275672913  1.0000
  V   V1        1.0  0.3440406918525696  0.9212580919265747  0.6402349472045898  1.0000
  V   V2        1.0  0.005312194582074881  0.57545405626297  0.039173759520053864  1.0000
  V   V3        1.0  0.988758385181427  0.8238011598587036  0.8412166833877563  1.0000
