data_image0
_chemical_formula_structural       Eu4FZn2
_chemical_formula_sum              "Eu4 F1 Zn2"
_cell_length_a       5.125234924432097
_cell_length_b       5.746208828362385
_cell_length_c       6.943028450012207
_cell_angle_alpha    63.22133135532775
_cell_angle_beta     73.36109995943396
_cell_angle_gamma    87.17071382220878

_space_group_name_H-M_alt    "P 1"
_space_group_IT_number       1

loop_
  _space_group_symop_operation_xyz
  'x, y, z'

loop_
  _atom_site_type_symbol
  _atom_site_label
  _atom_site_symmetry_multiplicity
  _atom_site_fract_x
  _atom_site_fract_y
  _atom_site_fract_z
  _atom_site_occupancy
  Eu  Eu1       1.0  0.6782887578010559  0.4982225298881531  0.1137925162911415  1.0000
  Eu  Eu2       1.0  0.1658337265253067  0.4002041518688202  0.8215172290802001  1.0000
  Eu  Eu3       1.0  0.6737567782402039  0.9919666647911072  0.1553206592798233  1.0000
  Eu  Eu4       1.0  0.6636128425598145  0.7640386819839478  0.8133937120437621  1.0000
  F   F1        1.0  0.1645084023475647  0.7187494039535522  0.6277434229850769  1.0000
  Zn  Zn1       1.0  0.16093750298023224  0.2969484329223633  0.47039866447448725  1.0000
  Zn  Zn2       1.0  0.16924260556697845  0.5908607244491577  0.16672199964523315  1.0000
