data_image0
_chemical_formula_structural       NiSbSc4SeSiTl
_chemical_formula_sum              "Ni1 Sb1 Sc4 Se1 Si1 Tl1"
_cell_length_a       5.10416410963642
_cell_length_b       8.12003369505215
_cell_length_c       8.353482246398926
_cell_angle_alpha    111.47387973772078
_cell_angle_beta     106.74115690142702
_cell_angle_gamma    90.02054479813526

_space_group_name_H-M_alt    "P 1"
_space_group_IT_number       1

loop_
  _space_group_symop_operation_xyz
  'x, y, z'

loop_
  _atom_site_type_symbol
  _atom_site_label
  _atom_site_symmetry_multiplicity
  _atom_site_fract_x
  _atom_site_fract_y
  _atom_site_fract_z
  _atom_site_occupancy
  Ni  Ni1       1.0  0.5939022898674011  0.32531625032424927  0.6260740160942078  1.0000
  Sb  Sb1       1.0  0.8102424740791321  0.3645502030849457  0.9214773178100586  1.0000
  Sc  Sc1       1.0  0.5322889089584351  0.8637761473655701  0.41610500216484064  1.0000
  Sc  Sc2       1.0  0.29884055256843567  0.5870716571807861  0.21579362452030182  1.0000
  Sc  Sc3       1.0  0.4837125837802887  0.3273666501045227  0.8160693049430847  1.0000
  Sc  Sc4       1.0  0.44556063413619995  0.8180217146873474  0.6295241117477417  1.0000
  Se  Se1       1.0  0.5130255222320557  0.868926465511322  0.4407683312892914  1.0000
  Si  Si1       1.0  0.5147899985313416  0.08463060855865479  0.24461688101291656  1.0000
  Tl  Tl1       1.0  0.006639585364609957  0.07537959516048431  0.21800927817821503  1.0000
