data_image0
_chemical_formula_structural       SbSc4SeSi2Tl
_chemical_formula_sum              "Sb1 Sc4 Se1 Si2 Tl1"
_cell_length_a       6.025742054480945
_cell_length_b       6.6472605091061965
_cell_length_c       7.899139881134033
_cell_angle_alpha    113.72049946832796
_cell_angle_beta     111.87556793140004
_cell_angle_gamma    89.45352408375945

_space_group_name_H-M_alt    "P 1"
_space_group_IT_number       1

loop_
  _space_group_symop_operation_xyz
  'x, y, z'

loop_
  _atom_site_type_symbol
  _atom_site_label
  _atom_site_symmetry_multiplicity
  _atom_site_fract_x
  _atom_site_fract_y
  _atom_site_fract_z
  _atom_site_occupancy
  Sb  Sb1       1.0  0.6098434925079346  0.8867607712745667  0.8015003800392151  1.0000
  Sc  Sc1       1.0  0.8487372398376465  0.6272590160369873  0.3513589799404145  1.0000
  Sc  Sc2       1.0  0.09849511831998825  0.605612576007843  0.22289608418941498  1.0000
  Sc  Sc3       1.0  0.1895144134759903  0.3451813757419586  0.6282288432121277  1.0000
  Sc  Sc4       1.0  0.8939552903175354  0.9334130883216858  0.34513646364212036  1.0000
  Se  Se1       1.0  0.6207372546195984  0.4094409942626953  0.5015316009521484  1.0000
  Si  Si1       1.0  0.37664440274238586  0.2449425458908081  0.2832973301410675  1.0000
  Si  Si2       1.0  0.9000846147537231  0.10694708675146103  0.9973510503768921  1.0000
  Tl  Tl1       1.0  0.41992196440696716  0.65662682056427  0.24482727050781256  1.0000
