data_image0
_chemical_formula_structural       Sc4SeSi2Tl2
_chemical_formula_sum              "Sc4 Se1 Si2 Tl2"
_cell_length_a       6.316973585648116
_cell_length_b       6.786929965655389
_cell_length_c       7.293729305267334
_cell_angle_alpha    113.47252541591936
_cell_angle_beta     111.6531121725342
_cell_angle_gamma    90.87966378274528

_space_group_name_H-M_alt    "P 1"
_space_group_IT_number       1

loop_
  _space_group_symop_operation_xyz
  'x, y, z'

loop_
  _atom_site_type_symbol
  _atom_site_label
  _atom_site_symmetry_multiplicity
  _atom_site_fract_x
  _atom_site_fract_y
  _atom_site_fract_z
  _atom_site_occupancy
  Sc  Sc1       1.0  0.890450656414032  0.7415590882301331  0.6443195939064026  1.0000
  Sc  Sc2       1.0  0.07868335396051407  0.4259079396724701  0.41143158078193665  1.0000
  Sc  Sc3       1.0  0.9473035335540771  0.04854504391551018  0.8964556455612183  1.0000
  Sc  Sc4       1.0  0.4572700262069702  0.1452435702085495  0.9059312343597412  1.0000
  Se  Se1       1.0  0.715885579586029  0.7085122466087341  0.049924757331609726  1.0000
  Si  Si1       1.0  0.7670203447341919  0.8026231527328491  0.8595119118690491  1.0000
  Si  Si2       1.0  0.5450974106788635  0.8232853412628174  0.4084088504314422  1.0000
  Tl  Tl1       1.0  0.06555092334747314  0.551376223564148  0.4317832589149475  1.0000
  Tl  Tl2       1.0  0.4679875075817108  0.42544203996658325  0.9166331887245178  1.0000
