data_image0
_chemical_formula_structural       Sc2Se3TbTl3
_chemical_formula_sum              "Sc2 Se3 Tb1 Tl3"
_cell_length_a       6.2647663550163175
_cell_length_b       7.638726586847605
_cell_length_c       7.740383625030518
_cell_angle_alpha    119.30699579737464
_cell_angle_beta     107.55401176826803
_cell_angle_gamma    90.2065053073862

_space_group_name_H-M_alt    "P 1"
_space_group_IT_number       1

loop_
  _space_group_symop_operation_xyz
  'x, y, z'

loop_
  _atom_site_type_symbol
  _atom_site_label
  _atom_site_symmetry_multiplicity
  _atom_site_fract_x
  _atom_site_fract_y
  _atom_site_fract_z
  _atom_site_occupancy
  Sc  Sc1       1.0  0.6260935068130493  0.1398066133260727  0.603498637676239  1.0000
  Sc  Sc2       1.0  0.10027634352445602  0.6685078144073486  0.5193025469779968  1.0000
  Se  Se1       1.0  0.37784481048583984  0.12690095603466034  0.24722750484943387  1.0000
  Se  Se2       1.0  0.08066622167825699  0.13739793002605438  0.4085806906223297  1.0000
  Se  Se3       1.0  0.10728432238101959  0.11313935369253159  0.9433221220970153  1.0000
  Tb  Tb1       1.0  0.6183295845985413  0.12157630175352097  0.6944087147712708  1.0000
  Tl  Tl1       1.0  0.3444848358631134  0.6451923251152039  0.9018501639366149  1.0000
  Tl  Tl2       1.0  0.8528188467025757  0.8517763614654541  0.6774412393569946  1.0000
  Tl  Tl3       1.0  0.8259609937667847  0.6415240168571472  0.38661453127861023  1.0000
