data_image0
_chemical_formula_structural       AsIPZr6
_chemical_formula_sum              "As1 I1 P1 Zr6"
_cell_length_a       4.931261531797751
_cell_length_b       6.030069184244722
_cell_length_c       6.7112555503845215
_cell_angle_alpha    98.9714499317932
_cell_angle_beta     89.54646946953515
_cell_angle_gamma    89.92058344768036

_space_group_name_H-M_alt    "P 1"
_space_group_IT_number       1

loop_
  _space_group_symop_operation_xyz
  'x, y, z'

loop_
  _atom_site_type_symbol
  _atom_site_label
  _atom_site_symmetry_multiplicity
  _atom_site_fract_x
  _atom_site_fract_y
  _atom_site_fract_z
  _atom_site_occupancy
  As  As1       1.0  0.8745180368423462  0.2732647657394409  0.49911630153656  1.0000
  I   I1        1.0  0.35957255959510803  0.39111384749412537  0.6244097948074341  1.0000
  P   P1        1.0  0.5854976773262024  0.2216656655073166  0.5489717721939087  1.0000
  Zr  Zr1       1.0  0.35539567470550537  0.7374384999275208  0.5446654558181763  1.0000
  Zr  Zr2       1.0  0.8789066076278687  0.2775146961212158  0.9921494722366334  1.0000
  Zr  Zr3       1.0  0.8697580695152283  0.3451080918312073  0.8294869065284729  1.0000
  Zr  Zr4       1.0  0.3890637755393982  0.040542881935834885  0.9652973413467406  1.0000
  Zr  Zr5       1.0  0.37661218643188477  0.9451894164085388  0.4557265937328338  1.0000
  Zr  Zr6       1.0  0.3911517262458801  0.8292351365089417  0.1960362046957016  1.0000
