data_image0
_chemical_formula_structural       Zr9
_chemical_formula_sum              "Zr9"
_cell_length_a       6.241524250015461
_cell_length_b       7.349616218644126
_cell_length_c       7.7562575340271
_cell_angle_alpha    120.3508858149663
_cell_angle_beta     90.31199694049698
_cell_angle_gamma    90.12701739322581

_space_group_name_H-M_alt    "P 1"
_space_group_IT_number       1

loop_
  _space_group_symop_operation_xyz
  'x, y, z'

loop_
  _atom_site_type_symbol
  _atom_site_label
  _atom_site_symmetry_multiplicity
  _atom_site_fract_x
  _atom_site_fract_y
  _atom_site_fract_z
  _atom_site_occupancy
  Zr  Zr1       1.0  0.7437654733657837  0.2812565267086029  0.4006886184215546  1.0000
  Zr  Zr2       1.0  0.7450213432312012  0.6393357515335083  0.27918404340744024  1.0000
  Zr  Zr3       1.0  0.7437960505485535  0.10414087772369385  0.8037832379341127  1.0000
  Zr  Zr4       1.0  0.24416339397430417  0.820574939250946  0.6418384313583375  1.0000
  Zr  Zr5       1.0  0.7446407079696655  0.6816211938858032  0.3568546175956727  1.0000
  Zr  Zr6       1.0  0.24345663189887998  0.6755836009979248  0.8135483264923097  1.0000
  Zr  Zr7       1.0  0.24343991279602048  0.1128426268696785  0.5191599726676941  1.0000
  Zr  Zr8       1.0  0.7414818406105042  0.02701963670551777  0.8768909573554994  1.0000
  Zr  Zr9       1.0  0.24516673386096952  0.27128225564956665  0.08942652493715288  1.0000
