data_image0
_chemical_formula_structural       Zr9
_chemical_formula_sum              "Zr9"
_cell_length_a       4.524008261964969
_cell_length_b       6.2973753501491085
_cell_length_c       6.5821757316589355
_cell_angle_alpha    133.47050671067652
_cell_angle_beta     87.98424159339797
_cell_angle_gamma    87.63699476259511

_space_group_name_H-M_alt    "P 1"
_space_group_IT_number       1

loop_
  _space_group_symop_operation_xyz
  'x, y, z'

loop_
  _atom_site_type_symbol
  _atom_site_label
  _atom_site_symmetry_multiplicity
  _atom_site_fract_x
  _atom_site_fract_y
  _atom_site_fract_z
  _atom_site_occupancy
  Zr  Zr1       1.0  0.8941674828529358  0.9312531352043152  0.7441112399101257  1.0000
  Zr  Zr2       1.0  0.39193716645240784  0.9760581254959106  0.13640394806861877  1.0000
  Zr  Zr3       1.0  0.8927164673805237  0.3960516154766083  0.8759506344795227  1.0000
  Zr  Zr4       1.0  0.39334556460380554  0.38279852271080017  0.01802346296608448  1.0000
  Zr  Zr5       1.0  0.3923313319683075  0.4560653567314148  0.5230337381362915  1.0000
  Zr  Zr6       1.0  0.8932149410247803  0.6638877987861633  0.554567277431488  1.0000
  Zr  Zr7       1.0  0.39391225576400757  0.12032455205917358  0.697408139705658  1.0000
  Zr  Zr8       1.0  0.8938878178596497  0.12265341728925705  0.7816880941390991  1.0000
  Zr  Zr9       1.0  0.3946714699268341  0.0928555503487587  0.8440365791320801  1.0000
