data_image0
_chemical_formula_structural       F3GaH4NiP4Zn
_chemical_formula_sum              "F3 Ga1 H4 Ni1 P4 Zn1"
_cell_length_a       4.6763864229811105
_cell_length_b       5.022928554790496
_cell_length_c       8.265181541442871
_cell_angle_alpha    106.80752811468822
_cell_angle_beta     99.64630604716798
_cell_angle_gamma    134.8922848551938

_space_group_name_H-M_alt    "P 1"
_space_group_IT_number       1

loop_
  _space_group_symop_operation_xyz
  'x, y, z'

loop_
  _atom_site_type_symbol
  _atom_site_label
  _atom_site_symmetry_multiplicity
  _atom_site_fract_x
  _atom_site_fract_y
  _atom_site_fract_z
  _atom_site_occupancy
  F   F1        1.0  0.3632779121398926  0.01221104711294174  0.840928852558136  1.0000
  F   F2        1.0  0.009210417047142982  0.007311596069484948  0.7689721584320068  1.0000
  F   F3        1.0  0.4028164148330688  0.7940103411674498  0.6858108639717102  1.0000
  Ga  Ga1       1.0  0.9557651281356812  0.39957678318023676  0.8531243205070496  1.0000
  H   H1        1.0  0.040963616222143125  0.47042113542556757  0.5393561720848083  1.0000
  H   H2        1.0  0.27171212434768677  0.3266966938972473  0.32231175899505615  1.0000
  H   H3        1.0  0.7614752650260925  0.01253225654363632  0.3932208716869354  1.0000
  H   H4        1.0  0.7781100869178772  0.714970052242279  0.8684298992156982  1.0000
  Ni  Ni1       1.0  0.5376856923103333  0.10561705380678175  0.6449705958366394  1.0000
  P   P1        1.0  0.37512052059173584  0.3128121495246887  0.6481389403343201  1.0000
  P   P2        1.0  0.29888859391212463  0.01680939272046089  0.13349834084510803  1.0000
  P   P3        1.0  0.5565537810325623  0.15520144999027252  0.4460609257221222  1.0000
  P   P4        1.0  0.29866325855255127  0.2629436254501343  0.7922150492668152  1.0000
  Zn  Zn1       1.0  0.7962531447410582  0.9842486977577208  0.24547608196735382  1.0000
