data_image0
_chemical_formula_structural       F3GaHHoNiP4UZn2
_chemical_formula_sum              "F3 Ga1 H1 Ho1 Ni1 P4 U1 Zn2"
_cell_length_a       5.619649938157121
_cell_length_b       5.083642567299136
_cell_length_c       7.374664783477783
_cell_angle_alpha    118.30662556554789
_cell_angle_beta     107.20977906542757
_cell_angle_gamma    132.76084716375237

_space_group_name_H-M_alt    "P 1"
_space_group_IT_number       1

loop_
  _space_group_symop_operation_xyz
  'x, y, z'

loop_
  _atom_site_type_symbol
  _atom_site_label
  _atom_site_symmetry_multiplicity
  _atom_site_fract_x
  _atom_site_fract_y
  _atom_site_fract_z
  _atom_site_occupancy
  F   F1        1.0  0.27436602115631087  0.39173516631126387  0.5345642566680907  1.0000
  F   F2        1.0  0.7409699559211729  0.87944620847702  0.395997256040573  1.0000
  F   F3        1.0  0.44959667325019825  0.44043752551078785  0.2849441468715667  1.0000
  Ga  Ga1       1.0  0.062352586537599564  0.4501804709434509  0.2740260064601898  1.0000
  H   H1        1.0  0.2988093197345732  0.7813218235969541  0.6762996315956115  1.0000
  Ho  Ho1       1.0  0.5374577045440672  0.6229968070983884  0.8863065838813781  1.0000
  Ni  Ni1       1.0  0.26940035820007313  0.39014017581939686  0.9572310447692871  1.0000
  P   P1        1.0  0.526622414588928  0.9220431447029112  0.4935137927532195  1.0000
  P   P2        1.0  0.14742088317871072  0.07547041773796058  0.5318725109100341  1.0000
  P   P3        1.0  0.95428466796875  0.5147936940193176  0.05318433418869966  1.0000
  P   P4        1.0  0.4816874861717223  0.33261048793792714  0.4876090288162231  1.0000
  U   U1        1.0  0.07931260764598846  0.8454676866531372  0.07971266657114022  1.0000
  Zn  Zn1       1.0  0.008182738907635254  0.39545077085495  0.7887040376663209  1.0000
  Zn  Zn2       1.0  0.6835488677024841  0.6631189584732056  0.5998420119285583  1.0000
