data_image0
_chemical_formula_structural       F3GaH4NP5
_chemical_formula_sum              "F3 Ga1 H4 N1 P5"
_cell_length_a       4.654423879949652
_cell_length_b       5.645477535377167
_cell_length_c       6.594969272613525
_cell_angle_alpha    61.4453955808789
_cell_angle_beta     81.46536890366409
_cell_angle_gamma    77.1309059168931

_space_group_name_H-M_alt    "P 1"
_space_group_IT_number       1

loop_
  _space_group_symop_operation_xyz
  'x, y, z'

loop_
  _atom_site_type_symbol
  _atom_site_label
  _atom_site_symmetry_multiplicity
  _atom_site_fract_x
  _atom_site_fract_y
  _atom_site_fract_z
  _atom_site_occupancy
  F   F1        1.0  0.21603192389011383  0.4611859917640686  0.9386184215545654  1.0000
  F   F2        1.0  0.23244090378284454  0.8983673453330994  0.3180887401103973  1.0000
  F   F3        1.0  0.19641026854515076  0.5037649273872375  0.10236134380102155  1.0000
  Ga  Ga1       1.0  0.40653812885284424  0.7449739575386047  0.07990847527980798  1.0000
  H   H1        1.0  0.1731937825679779  0.13166993856430054  0.7638199925422668  1.0000
  H   H2        1.0  0.79150390625  0.4388566017150879  0.062272101640701294  1.0000
  H   H3        1.0  0.42062294483184814  0.9610874056816101  0.7026203274726868  1.0000
  H   H4        1.0  0.19343075156211853  0.7315520644187927  0.3357196152210235  1.0000
  N   N1        1.0  0.7844461798667908  0.2642037272453308  0.40433624386787415  1.0000
  P   P1        1.0  0.2521090805530548  0.12130847573280334  0.15211595594882965  1.0000
  P   P2        1.0  0.6831066012382507  0.5084264278411865  0.4243983030319214  1.0000
  P   P3        1.0  0.6586686968803406  0.11468429118394852  0.7275495529174805  1.0000
  P   P4        1.0  0.6717061996459961  0.24748188257217407  0.05739860236644745  1.0000
  P   P5        1.0  0.7128891348838806  0.6016393899917603  0.11275559663772583  1.0000
