data_image0
_chemical_formula_structural       F2GaH3NP3PbZn2Zr
_chemical_formula_sum              "F2 Ga1 H3 N1 P3 Pb1 Zn2 Zr1"
_cell_length_a       4.348134035629491
_cell_length_b       6.268832303831285
_cell_length_c       8.66563606262207
_cell_angle_alpha    90.78055654244982
_cell_angle_beta     90.04639173445658
_cell_angle_gamma    96.78596218024123

_space_group_name_H-M_alt    "P 1"
_space_group_IT_number       1

loop_
  _space_group_symop_operation_xyz
  'x, y, z'

loop_
  _atom_site_type_symbol
  _atom_site_label
  _atom_site_symmetry_multiplicity
  _atom_site_fract_x
  _atom_site_fract_y
  _atom_site_fract_z
  _atom_site_occupancy
  F   F1        1.0  0.6295101046562195  0.6265721917152405  0.6372264623641968  1.0000
  F   F2        1.0  0.2420220673084259  0.15681244432926178  0.6635479927062988  1.0000
  Ga  Ga1       1.0  0.1945955455303192  0.9708251357078552  0.9084133505821228  1.0000
  H   H1        1.0  0.7436061501502991  0.4323247969150543  0.8195780515670776  1.0000
  H   H2        1.0  0.2566140592098236  0.7009617686271667  0.13543465733528137  1.0000
  H   H3        1.0  0.6664990186691284  0.8193785548210144  0.08712175488471985  1.0000
  N   N1        1.0  0.258078932762146  0.8995943665504456  0.019664758816361427  1.0000
  P   P1        1.0  0.19079360365867615  0.800806999206543  0.24091631174087524  1.0000
  P   P2        1.0  0.8307351469993591  0.34410837292671204  0.1538827270269394  1.0000
  P   P3        1.0  0.7561677694320679  0.4246169626712799  0.8594874739646912  1.0000
  Pb  Pb1       1.0  0.7387101650238037  0.9894242882728577  0.8188552260398865  1.0000
  Zn  Zn1       1.0  0.6664862036705017  0.8688423037528992  0.4355756938457489  1.0000
  Zn  Zn2       1.0  0.17813687026500702  0.14366960525512695  0.7855827808380127  1.0000
  Zr  Zr1       1.0  0.18365277349948883  0.13801410794258118  0.7981197237968445  1.0000
