data_image0
_chemical_formula_structural       F4H3P7
_chemical_formula_sum              "F4 H3 P7"
_cell_length_a       4.601964183818298
_cell_length_b       4.954657234868224
_cell_length_c       9.161581993103027
_cell_angle_alpha    90.29175680275176
_cell_angle_beta     89.50006067729373
_cell_angle_gamma    109.45812588255106

_space_group_name_H-M_alt    "P 1"
_space_group_IT_number       1

loop_
  _space_group_symop_operation_xyz
  'x, y, z'

loop_
  _atom_site_type_symbol
  _atom_site_label
  _atom_site_symmetry_multiplicity
  _atom_site_fract_x
  _atom_site_fract_y
  _atom_site_fract_z
  _atom_site_occupancy
  F   F1        1.0  0.8864918351173401  0.3316667973995209  0.15995605289936066  1.0000
  F   F2        1.0  0.3673897683620453  0.03262991085648537  0.8977075815200806  1.0000
  F   F3        1.0  0.8585372567176819  0.13394492864608765  0.3549630045890808  1.0000
  F   F4        1.0  0.5167393684387207  0.8561606407165527  0.18026480078697205  1.0000
  H   H1        1.0  0.8530454039573669  0.09880903363227844  0.3489628732204437  1.0000
  H   H2        1.0  0.4031202495098114  0.12326819449663162  0.4431341588497162  1.0000
  H   H3        1.0  0.8564541935920715  0.0701797753572464  0.16708818078041077  1.0000
  P   P1        1.0  0.4235799312591553  0.2634970247745514  0.8353180885314941  1.0000
  P   P2        1.0  0.11491712182760239  0.8633115887641907  0.7950132489204407  1.0000
  P   P3        1.0  0.49679744243621826  0.3948749005794525  0.633053183555603  1.0000
  P   P4        1.0  0.36268895864486694  0.18812790513038635  0.05972345545887947  1.0000
  P   P5        1.0  0.8728749752044678  0.6661311984062195  0.20600946247577667  1.0000
  P   P6        1.0  0.8514768481254578  0.7731436491012573  0.5416236519813538  1.0000
  P   P7        1.0  0.690946102142334  0.6675941348075867  0.1759975701570511  1.0000
