data_image0
_chemical_formula_structural       F2Ga2H3NbNdNiP4
_chemical_formula_sum              "F2 Ga2 H3 Nb1 Nd1 Ni1 P4"
_cell_length_a       5.181254669696151
_cell_length_b       5.0843368087210346
_cell_length_c       7.776933193206787
_cell_angle_alpha    93.2444355723869
_cell_angle_beta     92.5550841110322
_cell_angle_gamma    104.45699405501203

_space_group_name_H-M_alt    "P 1"
_space_group_IT_number       1

loop_
  _space_group_symop_operation_xyz
  'x, y, z'

loop_
  _atom_site_type_symbol
  _atom_site_label
  _atom_site_symmetry_multiplicity
  _atom_site_fract_x
  _atom_site_fract_y
  _atom_site_fract_z
  _atom_site_occupancy
  F   F1        1.0  0.16730843484401703  0.0051545994356274605  0.8137890696525575  1.0000
  F   F2        1.0  0.6781205534934998  0.569577157497406  0.5852735042572023  1.0000
  Ga  Ga1       1.0  0.6692039966583252  0.384183794260025  0.69075745344162  1.0000
  Ga  Ga2       1.0  0.6725524663925171  0.122953861951828  0.34470745921134954  1.0000
  H   H1        1.0  0.6581586599349976  0.9463756680488586  0.5328712463378906  1.0000
  H   H2        1.0  0.17161841690540314  0.2623768448829651  0.8104372024536134  1.0000
  H   H3        1.0  0.16066697239875793  0.878982663154602  0.5832303762435914  1.0000
  Nb  Nb1       1.0  0.2854883372783661  0.9461599588394165  0.4897384941577912  1.0000
  Nd  Nd1       1.0  0.1710006445646286  0.4451124966144562  0.8577625155448915  1.0000
  Ni  Ni1       1.0  0.6736364960670471  0.11580170691013336  0.4085081815719605  1.0000
  P   P1        1.0  0.1668265014886856  0.2080359309911728  0.06516236811876297  1.0000
  P   P2        1.0  0.672737181186676  0.19355508685112  0.8314608335494996  1.0000
  P   P3        1.0  0.16074025630950928  0.6883814334869385  0.23160316050052646  1.0000
  P   P4        1.0  0.6785706281661987  0.7116736173629761  0.18290130794048312  1.0000
