data_image0
_chemical_formula_structural       LaNb4Sb3Ti
_chemical_formula_sum              "La1 Nb4 Sb3 Ti1"
_cell_length_a       4.529453085628023
_cell_length_b       6.167460297787422
_cell_length_c       8.143786430358887
_cell_angle_alpha    103.85289196708858
_cell_angle_beta     107.1018170904838
_cell_angle_gamma    89.596471198055

_space_group_name_H-M_alt    "P 1"
_space_group_IT_number       1

loop_
  _space_group_symop_operation_xyz
  'x, y, z'

loop_
  _atom_site_type_symbol
  _atom_site_label
  _atom_site_symmetry_multiplicity
  _atom_site_fract_x
  _atom_site_fract_y
  _atom_site_fract_z
  _atom_site_occupancy
  La  La1       1.0  0.5534616112709045  0.4744159579277038  0.2805691361427307  1.0000
  Nb  Nb1       1.0  0.9946000576019287  0.4692873656749725  0.6445902585983276  1.0000
  Nb  Nb2       1.0  0.790704607963562  0.191989466547966  0.9954364895820618  1.0000
  Nb  Nb3       1.0  0.2944241166114807  0.7179040908813477  0.42924633622169495  1.0000
  Nb  Nb4       1.0  0.9671106338500977  0.6697804927825928  0.3778505027294159  1.0000
  Sb  Sb1       1.0  0.13653995096683502  0.9296311140060424  0.2650739848613739  1.0000
  Sb  Sb2       1.0  0.5028847455978394  0.44207176566123957  0.9861596822738647  1.0000
  Sb  Sb3       1.0  0.76646488904953  0.931427240371704  0.9407878518104553  1.0000
  Ti  Ti1       1.0  0.5846293568611145  0.7436613440513611  0.26150962710380554  1.0000
