data_image0
_chemical_formula_structural       Nb3PSb3TiTl
_chemical_formula_sum              "Nb3 P1 Sb3 Ti1 Tl1"
_cell_length_a       5.352086710447586
_cell_length_b       6.363563649883746
_cell_length_c       7.213404655456543
_cell_angle_alpha    101.3360286660724
_cell_angle_beta     90.53611470901676
_cell_angle_gamma    88.97194035357346

_space_group_name_H-M_alt    "P 1"
_space_group_IT_number       1

loop_
  _space_group_symop_operation_xyz
  'x, y, z'

loop_
  _atom_site_type_symbol
  _atom_site_label
  _atom_site_symmetry_multiplicity
  _atom_site_fract_x
  _atom_site_fract_y
  _atom_site_fract_z
  _atom_site_occupancy
  Nb  Nb1       1.0  0.734824538230896  0.25192102789878845  0.7010073661804199  1.0000
  Nb  Nb2       1.0  0.7258257269859314  0.9673244953155518  0.7044855356216431  1.0000
  Nb  Nb3       1.0  0.24746881425380707  0.9164252877235413  0.8732544183731079  1.0000
  P   P1        1.0  0.7239112257957458  0.7417174577713013  0.5253681540489197  1.0000
  Sb  Sb1       1.0  0.24650287628173828  0.7478041648864746  0.4669281840324402  1.0000
  Sb  Sb2       1.0  0.95769202709198  0.24450746178627014  0.14353175461292267  1.0000
  Sb  Sb3       1.0  0.4444212317466736  0.5871908068656921  0.9962025284767151  1.0000
  Ti  Ti1       1.0  0.20800252258777618  0.25964394211769104  0.5203016996383667  1.0000
  Tl  Tl1       1.0  0.44378894567489624  0.25734978914260864  0.0055466447956860065  1.0000
