data_image0
_chemical_formula_structural       Nb3PSb3Ti2
_chemical_formula_sum              "Nb3 P1 Sb3 Ti2"
_cell_length_a       5.471263044965425
_cell_length_b       6.082275142912764
_cell_length_c       6.540663719177246
_cell_angle_alpha    107.20691526734248
_cell_angle_beta     107.02147153059208
_cell_angle_gamma    111.8222018775845

_space_group_name_H-M_alt    "P 1"
_space_group_IT_number       1

loop_
  _space_group_symop_operation_xyz
  'x, y, z'

loop_
  _atom_site_type_symbol
  _atom_site_label
  _atom_site_symmetry_multiplicity
  _atom_site_fract_x
  _atom_site_fract_y
  _atom_site_fract_z
  _atom_site_occupancy
  Nb  Nb1       1.0  0.5792580842971802  0.1759253442287445  0.16449443995952606  1.0000
  Nb  Nb2       1.0  0.9199416041374207  0.39055320620536804  0.4268026053905487  1.0000
  Nb  Nb3       1.0  0.9278669357299805  0.6992081999778748  0.8442302346229553  1.0000
  P   P1        1.0  0.9637241959571838  0.9441571235656738  0.661925196647644  1.0000
  Sb  Sb1       1.0  0.2232249230146408  0.3661404252052307  0.6744275689125061  1.0000
  Sb  Sb2       1.0  0.22120897471904755  0.37670567631721497  0.1506672352552414  1.0000
  Sb  Sb3       1.0  0.46483302116394043  0.7413521409034729  0.9089972972869873  1.0000
  Ti  Ti1       1.0  0.23119664192199707  0.3938252329826355  0.910515546798706  1.0000
  Ti  Ti2       1.0  0.9004960060119629  0.6906314492225647  0.17394676804542536  1.0000
