data_image0
_chemical_formula_structural       NPb3RbSbSr3
_chemical_formula_sum              "N1 Pb3 Rb1 Sb1 Sr3"
_cell_length_a       4.27955848899332
_cell_length_b       5.160009615751198
_cell_length_c       7.224843978881836
_cell_angle_alpha    88.78254674854668
_cell_angle_beta     85.84236879246198
_cell_angle_gamma    83.39893947419824

_space_group_name_H-M_alt    "P 1"
_space_group_IT_number       1

loop_
  _space_group_symop_operation_xyz
  'x, y, z'

loop_
  _atom_site_type_symbol
  _atom_site_label
  _atom_site_symmetry_multiplicity
  _atom_site_fract_x
  _atom_site_fract_y
  _atom_site_fract_z
  _atom_site_occupancy
  N   N1        1.0  0.029482780024409294  0.014641878195106983  0.2556250989437103  1.0000
  Pb  Pb1       1.0  0.03891030699014664  0.7075603008270264  0.018390575423836708  1.0000
  Pb  Pb2       1.0  0.5278509855270386  0.6686841249465942  0.31983983516693115  1.0000
  Pb  Pb3       1.0  0.024754997342824936  0.9089531898498535  0.6277146339416504  1.0000
  Rb  Rb1       1.0  0.5302558541297913  0.40227949619293213  0.7455427050590515  1.0000
  Sb  Sb1       1.0  0.5422361493110657  0.4510704576969147  0.3823835551738739  1.0000
  Sr  Sr1       1.0  0.030934849753975868  0.5525619387626648  0.8765841722488403  1.0000
  Sr  Sr2       1.0  0.026928400620818138  0.02406967058777809  0.2512442469596862  1.0000
  Sr  Sr3       1.0  0.5269536375999451  0.9146609306335449  0.02521621622145176  1.0000
