data_image0
_chemical_formula_structural       Nb2P2SSb3Ti
_chemical_formula_sum              "Nb2 P2 S1 Sb3 Ti1"
_cell_length_a       6.33710426492612
_cell_length_b       6.536175454466469
_cell_length_c       6.486525058746338
_cell_angle_alpha    108.31670173039961
_cell_angle_beta     105.52157558489428
_cell_angle_gamma    111.87816973148675

_space_group_name_H-M_alt    "P 1"
_space_group_IT_number       1

loop_
  _space_group_symop_operation_xyz
  'x, y, z'

loop_
  _atom_site_type_symbol
  _atom_site_label
  _atom_site_symmetry_multiplicity
  _atom_site_fract_x
  _atom_site_fract_y
  _atom_site_fract_z
  _atom_site_occupancy
  Nb  Nb1       1.0  0.5377281308174133  0.8558745384216309  0.7186129093170166  1.0000
  Nb  Nb2       1.0  0.6883944869041443  0.1475675106048584  0.23902566730976102  1.0000
  P   P1        1.0  0.217049241065979  0.023574208840727806  0.2196686863899231  1.0000
  P   P2        1.0  0.9901160597801208  0.3378978371620178  0.5742426514625549  1.0000
  S   S1        1.0  0.5544682145118713  0.8529059290885925  0.7488888502120972  1.0000
  Sb  Sb1       1.0  0.968299925327301  0.7830432653427124  0.6030876040458679  1.0000
  Sb  Sb2       1.0  0.2062976062297821  0.09944376349449158  0.10274375975131989  1.0000
  Sb  Sb3       1.0  0.7093029022216797  0.6111053824424744  0.10401362925767892  1.0000
  Ti  Ti1       1.0  0.21747732162475586  0.6083300113677979  0.10322824120521543  1.0000
