data_image0
_chemical_formula_structural       CdClGeLuOPtRuZn2
_chemical_formula_sum              "Cd1 Cl1 Ge1 Lu1 O1 Pt1 Ru1 Zn2"
_cell_length_a       4.688136565326413
_cell_length_b       6.122159238070352
_cell_length_c       7.108388423919678
_cell_angle_alpha    108.77708630248033
_cell_angle_beta     96.38674932180577
_cell_angle_gamma    95.64978613852165

_space_group_name_H-M_alt    "P 1"
_space_group_IT_number       1

loop_
  _space_group_symop_operation_xyz
  'x, y, z'

loop_
  _atom_site_type_symbol
  _atom_site_label
  _atom_site_symmetry_multiplicity
  _atom_site_fract_x
  _atom_site_fract_y
  _atom_site_fract_z
  _atom_site_occupancy
  Cd  Cd1       1.0  0.7402443289756775  0.43083691596984863  0.03027145937085152  1.0000
  Cl  Cl1       1.0  0.7973687648773193  0.36012527346611023  0.3215008080005646  1.0000
  Ge  Ge1       1.0  0.04248727858066559  0.659593403339386  0.967715620994568  1.0000
  Lu  Lu1       1.0  0.24539817869663239  0.2573752701282501  0.48474681377410894  1.0000
  O   O1        1.0  0.06387341767549515  0.6197373270988464  0.6278591156005859  1.0000
  Pt  Pt1       1.0  0.5058975219726562  0.145623117685318  0.4753237962722779  1.0000
  Ru  Ru1       1.0  0.5552317500114441  0.8058011531829834  0.824684500694275  1.0000
  Zn  Zn1       1.0  0.2200072556734085  0.9987494945526123  0.1104671433568001  1.0000
  Zn  Zn2       1.0  0.21139729022979736  0.45981448888778687  0.9251657724380494  1.0000
