data_image0
_chemical_formula_structural       Cl3CoGeILuPtZn
_chemical_formula_sum              "Cl3 Co1 Ge1 I1 Lu1 Pt1 Zn1"
_cell_length_a       5.534965857390253
_cell_length_b       6.407294837686654
_cell_length_c       7.280022144317627
_cell_angle_alpha    94.55443754218015
_cell_angle_beta     81.38214202493874
_cell_angle_gamma    64.01874482696343

_space_group_name_H-M_alt    "P 1"
_space_group_IT_number       1

loop_
  _space_group_symop_operation_xyz
  'x, y, z'

loop_
  _atom_site_type_symbol
  _atom_site_label
  _atom_site_symmetry_multiplicity
  _atom_site_fract_x
  _atom_site_fract_y
  _atom_site_fract_z
  _atom_site_occupancy
  Cl  Cl1       1.0  0.350899338722229  0.30771583318710327  0.3866792917251587  1.0000
  Cl  Cl2       1.0  0.9756432175636292  0.7062024474143982  0.2217526137828827  1.0000
  Cl  Cl3       1.0  0.34600362181663513  0.18013495206832886  0.8834079504013062  1.0000
  Co  Co1       1.0  0.8446083068847656  0.38426050543785095  0.019517118111252785  1.0000
  Ge  Ge1       1.0  0.3450476825237274  0.391634076833725  0.580004096031189  1.0000
  I   I1        1.0  0.8414584398269653  0.6153820157051086  0.4058522582054138  1.0000
  Lu  Lu1       1.0  0.34649527072906494  0.37127411365509033  0.3795778751373291  1.0000
  Pt  Pt1       1.0  0.6564616560935974  0.011595368385314941  0.6485840678215027  1.0000
  Zn  Zn1       1.0  0.3440113365650177  0.8591366410255432  0.3755662143230438  1.0000
