data_image0
_chemical_formula_structural       Cl3CrPtRu2SeZn
_chemical_formula_sum              "Cl3 Cr1 Pt1 Ru2 Se1 Zn1"
_cell_length_a       5.218540692643713
_cell_length_b       6.630157453181012
_cell_length_c       8.036700248718262
_cell_angle_alpha    108.08488271378015
_cell_angle_beta     90.4679785142633
_cell_angle_gamma    91.2489299682591

_space_group_name_H-M_alt    "P 1"
_space_group_IT_number       1

loop_
  _space_group_symop_operation_xyz
  'x, y, z'

loop_
  _atom_site_type_symbol
  _atom_site_label
  _atom_site_symmetry_multiplicity
  _atom_site_fract_x
  _atom_site_fract_y
  _atom_site_fract_z
  _atom_site_occupancy
  Cl  Cl1       1.0  0.820472240447998  0.8462548851966858  0.8901423215866089  1.0000
  Cl  Cl2       1.0  0.307877779006958  0.28040724992752075  0.2572217881679535  1.0000
  Cl  Cl3       1.0  0.8073601126670837  0.0480213388800621  0.936290442943573  1.0000
  Cr  Cr1       1.0  0.31353873014450073  0.24379175901412964  0.22703175246715546  1.0000
  Pt  Pt1       1.0  0.3222159743309021  0.06869415193796158  0.283534973859787  1.0000
  Ru  Ru1       1.0  0.8190485835075378  0.08705727756023407  0.04145658388733864  1.0000
  Ru  Ru2       1.0  0.8095453381538391  0.492085337638855  0.5623233318328857  1.0000
  Se  Se1       1.0  0.31822648644447327  0.8441876173019409  0.5982038974761963  1.0000
  Zn  Zn1       1.0  0.8164196014404297  0.302662193775177  0.013572899624705329  1.0000
