data_image0
_chemical_formula_structural       Cd3Cl4Ru2
_chemical_formula_sum              "Cd3 Cl4 Ru2"
_cell_length_a       4.647461717457939
_cell_length_b       4.8105779967752875
_cell_length_c       7.541187286376953
_cell_angle_alpha    90.58508889580061
_cell_angle_beta     89.73324013133217
_cell_angle_gamma    92.73078167134247

_space_group_name_H-M_alt    "P 1"
_space_group_IT_number       1

loop_
  _space_group_symop_operation_xyz
  'x, y, z'

loop_
  _atom_site_type_symbol
  _atom_site_label
  _atom_site_symmetry_multiplicity
  _atom_site_fract_x
  _atom_site_fract_y
  _atom_site_fract_z
  _atom_site_occupancy
  Cd  Cd1       1.0  0.6948320269584656  0.2598813474178314  0.10516341030597688  1.0000
  Cd  Cd2       1.0  0.19231919944286346  0.83723384141922  0.043199308216571815  1.0000
  Cd  Cd3       1.0  0.6919593214988708  0.8469159603118896  0.9431482553482057  1.0000
  Cl  Cl1       1.0  0.1914951503276825  0.13790413737297058  0.7060736417770387  1.0000
  Cl  Cl2       1.0  0.696925938129425  0.7509401440620422  0.5852987766265869  1.0000
  Cl  Cl3       1.0  0.193376362323761  0.25024324655532837  0.5745022296905518  1.0000
  Cl  Cl4       1.0  0.4476330876350403  0.21083126962184906  0.4773534238338471  1.0000
  Ru  Ru1       1.0  0.1904018521308899  0.20593103766441345  0.3161529302597046  1.0000
  Ru  Ru2       1.0  0.19338513910770416  0.9234611392021179  0.06995081156492233  1.0000
