data_image0
_chemical_formula_structural       Cd2Cl4Ru3
_chemical_formula_sum              "Cd2 Cl4 Ru3"
_cell_length_a       5.001727760262726
_cell_length_b       5.673975377509363
_cell_length_c       7.13215970993042
_cell_angle_alpha    107.37669223474339
_cell_angle_beta     90.16666190613114
_cell_angle_gamma    94.5244556758705

_space_group_name_H-M_alt    "P 1"
_space_group_IT_number       1

loop_
  _space_group_symop_operation_xyz
  'x, y, z'

loop_
  _atom_site_type_symbol
  _atom_site_label
  _atom_site_symmetry_multiplicity
  _atom_site_fract_x
  _atom_site_fract_y
  _atom_site_fract_z
  _atom_site_occupancy
  Cd  Cd1       1.0  0.07331547141075134  0.0036013778299093246  0.2564883828163147  1.0000
  Cd  Cd2       1.0  0.5815118551254272  0.8695070743560791  0.6978086829185486  1.0000
  Cl  Cl1       1.0  0.5800260901451111  0.34499672055244446  0.1421840786933899  1.0000
  Cl  Cl2       1.0  0.08779416233301163  0.8012524247169495  0.3971206545829773  1.0000
  Cl  Cl3       1.0  0.3267955183982849  0.5770727396011353  0.5498853325843811  1.0000
  Cl  Cl4       1.0  0.564702570438385  0.43283727765083313  0.9212793707847595  1.0000
  Ru  Ru1       1.0  0.07527653872966766  0.3923899829387665  0.6939672231674194  1.0000
  Ru  Ru2       1.0  0.07583913207054138  0.030711054801940918  0.16325819492340088  1.0000
  Ru  Ru3       1.0  0.5801133513450623  0.0956636369228363  0.5319333672523499  1.0000
