data_image0
_chemical_formula_structural       NbO2PtSb7TbTiTl
_chemical_formula_sum              "Nb1 O2 Pt1 Sb7 Tb1 Ti1 Tl1"
_cell_length_a       8.956198197671418
_cell_length_b       8.825074102576991
_cell_length_c       8.946510314941406
_cell_angle_alpha    60.510676598712045
_cell_angle_beta     60.663867407484986
_cell_angle_gamma    60.910480539007395

_space_group_name_H-M_alt    "P 1"
_space_group_IT_number       1

loop_
  _space_group_symop_operation_xyz
  'x, y, z'

loop_
  _atom_site_type_symbol
  _atom_site_label
  _atom_site_symmetry_multiplicity
  _atom_site_fract_x
  _atom_site_fract_y
  _atom_site_fract_z
  _atom_site_occupancy
  Nb  Nb1       1.0  0.8656868338584901  0.3652089536190033  0.662683367729187  1.0000
  O   O1        1.0  0.8643639087677003  0.5586580038070679  0.7169092893600464  1.0000
  O   O2        1.0  0.36869186162948614  0.897658109664917  0.1329580694437027  1.0000
  Pt  Pt1       1.0  0.9980761408805848  0.9058157801628113  0.5160189270973206  1.0000
  Sb  Sb1       1.0  0.3484244644641877  0.39107444882392883  0.10143688321113586  1.0000
  Sb  Sb2       1.0  0.8620215058326722  0.9210317134857178  0.17953605949878693  1.0000
  Sb  Sb3       1.0  0.8551870584487916  0.5477023720741272  0.009927532635629177  1.0000
  Sb  Sb4       1.0  0.6577242016792297  0.3705787658691406  0.33666643500328064  1.0000
  Sb  Sb5       1.0  0.16762495040893555  0.8880584239959717  0.2382107824087143  1.0000
  Sb  Sb6       1.0  0.2775972783565521  0.5487080216407776  0.614866316318512  1.0000
  Sb  Sb7       1.0  0.8606092333793641  0.38619938492774963  0.012127451598644158  1.0000
  Tb  Tb1       1.0  0.5235623121261597  0.012059921398758888  0.9410040378570557  1.0000
  Ti  Ti1       1.0  0.8606356382369996  0.3911646604537964  0.7608725428581238  1.0000
  Tl  Tl1       1.0  0.48959937691688543  0.19109797477722168  0.497644305229187  1.0000
