data_image0
_chemical_formula_structural       Nb3O3PSb6Tl
_chemical_formula_sum              "Nb3 O3 P1 Sb6 Tl1"
_cell_length_a       7.192265964447159
_cell_length_b       7.428652455782734
_cell_length_c       7.809370040893555
_cell_angle_alpha    62.42707804014061
_cell_angle_beta     60.76054220663078
_cell_angle_gamma    57.724693200440676

_space_group_name_H-M_alt    "P 1"
_space_group_IT_number       1

loop_
  _space_group_symop_operation_xyz
  'x, y, z'

loop_
  _atom_site_type_symbol
  _atom_site_label
  _atom_site_symmetry_multiplicity
  _atom_site_fract_x
  _atom_site_fract_y
  _atom_site_fract_z
  _atom_site_occupancy
  Nb  Nb1       1.0  0.307552695274353  0.3123331069946289  0.5589072704315186  1.0000
  Nb  Nb2       1.0  0.317097932100296  0.08448360115289688  0.8938699960708619  1.0000
  Nb  Nb3       1.0  0.8060469627380371  0.3472043573856354  0.1921466439962387  1.0000
  O   O1        1.0  0.0915079489350319  0.2390450984239578  0.8072606325149536  1.0000
  O   O2        1.0  0.34132862091064453  0.13146306574344635  0.09645874053239827  1.0000
  O   O3        1.0  0.589532732963562  0.004801097325980663  0.4401415884494782  1.0000
  P   P1        1.0  0.5990856885910034  0.9757257103919982  0.20399975776672363  1.0000
  Sb  Sb1       1.0  0.9855831265449524  0.011127696372568607  0.4315232932567598  1.0000
  Sb  Sb2       1.0  0.21368712186813354  0.5229023098945618  0.8871793746948243  1.0000
  Sb  Sb3       1.0  0.5000395774841309  0.31239303946495056  0.021933235228061735  1.0000
  Sb  Sb4       1.0  0.26917824149131775  0.8102233409881592  0.4229572415351868  1.0000
  Sb  Sb5       1.0  0.34093138575553894  0.9022347927093506  0.16140010952949524  1.0000
  Sb  Sb6       1.0  0.5092455744743347  0.5459659099578857  0.43721553683280956  1.0000
  Tl  Tl1       1.0  0.972058892250061  0.6429516673088074  0.6050698757171631  1.0000
