data_image0
_chemical_formula_structural       ClNb2O3Sb7Tb
_chemical_formula_sum              "Cl1 Nb2 O3 Sb7 Tb1"
_cell_length_a       7.191679054538277
_cell_length_b       7.7457152371613
_cell_length_c       7.9548115730285645
_cell_angle_alpha    63.30269399623347
_cell_angle_beta     61.64882810127884
_cell_angle_gamma    61.737224925255894

_space_group_name_H-M_alt    "P 1"
_space_group_IT_number       1

loop_
  _space_group_symop_operation_xyz
  'x, y, z'

loop_
  _atom_site_type_symbol
  _atom_site_label
  _atom_site_symmetry_multiplicity
  _atom_site_fract_x
  _atom_site_fract_y
  _atom_site_fract_z
  _atom_site_occupancy
  Cl  Cl1       1.0  0.24088145792484283  0.34918415546417236  0.3476691842079163  1.0000
  Nb  Nb1       1.0  0.7106310725212097  0.33543890714645386  0.04566029086709023  1.0000
  Nb  Nb2       1.0  0.19840967655181885  0.8395589590072632  0.7344632744789125  1.0000
  O   O1        1.0  0.7611948251724243  0.85884028673172  0.3800458908081055  1.0000
  O   O2        1.0  0.7169739603996277  0.35895854234695435  0.42105129361152654  1.0000
  O   O3        1.0  0.8155598640441895  0.8649119734764099  0.7308101654052735  1.0000
  Sb  Sb1       1.0  0.5394022464752197  0.8662031292915344  0.5833650231361389  1.0000
  Sb  Sb2       1.0  0.542306125164032  0.35180696845054626  0.6544271111488342  1.0000
  Sb  Sb3       1.0  0.9094206094741821  0.8449933528900146  0.2444545775651932  1.0000
  Sb  Sb4       1.0  0.5559528470039368  0.020136428996920586  0.7414372563362122  1.0000
  Sb  Sb5       1.0  0.5487191081047058  0.02488616853952408  0.5867583751678467  1.0000
  Sb  Sb6       1.0  0.25777682662010193  0.3484483063220978  0.13507242500782013  1.0000
  Sb  Sb7       1.0  0.5181860327720642  0.8519258499145508  0.3809192776679993  1.0000
  Tb  Tb1       1.0  0.1911981850862503  0.319346159696579  0.6934329271316529  1.0000
