data_image0
_chemical_formula_structural       CeMoNbOSb8Te2
_chemical_formula_sum              "Ce1 Mo1 Nb1 O1 Sb8 Te2"
_cell_length_a       6.645907425678876
_cell_length_b       7.926678698761779
_cell_length_c       7.874443054199219
_cell_angle_alpha    77.99092323881658
_cell_angle_beta     67.15706963123432
_cell_angle_gamma    64.461417736029

_space_group_name_H-M_alt    "P 1"
_space_group_IT_number       1

loop_
  _space_group_symop_operation_xyz
  'x, y, z'

loop_
  _atom_site_type_symbol
  _atom_site_label
  _atom_site_symmetry_multiplicity
  _atom_site_fract_x
  _atom_site_fract_y
  _atom_site_fract_z
  _atom_site_occupancy
  Ce  Ce1       1.0  0.3792891502380371  0.4737078249454499  0.4696156084537506  1.0000
  Mo  Mo1       1.0  0.7062550187110901  0.6854978799819946  0.14732737839221954  1.0000
  Nb  Nb1       1.0  0.06821197271347046  0.7059962749481201  0.9775573015213013  1.0000
  O   O1        1.0  0.45023542642593384  0.1898873746395111  0.15097001194953918  1.0000
  Sb  Sb1       1.0  0.04264278709888456  0.20791497826576236  0.4214678108692169  1.0000
  Sb  Sb2       1.0  0.058991651982069016  0.6687831878662109  0.10914441198110578  1.0000
  Sb  Sb3       1.0  0.6166172027587891  0.6558148264884949  0.8791760802268982  1.0000
  Sb  Sb4       1.0  0.5459439158439636  0.2759536802768707  0.8945997953414917  1.0000
  Sb  Sb5       1.0  0.5197477340698242  0.038914065808057785  0.8277976512908936  1.0000
  Sb  Sb6       1.0  0.03838877379894249  0.975781798362732  0.6295313239097595  1.0000
  Sb  Sb7       1.0  0.6358424425125122  0.2052019685506821  0.927807629108429  1.0000
  Sb  Sb8       1.0  0.3231753706932068  0.782830536365509  0.8516524434089661  1.0000
  Te  Te1       1.0  0.07116177678108215  0.3110595941543579  0.7034398317337036  1.0000
  Te  Te2       1.0  0.45269787311553955  0.19005243480205536  0.646659791469574  1.0000
