data_image0
_chemical_formula_structural       ClNbO3PdPtSb7
_chemical_formula_sum              "Cl1 Nb1 O3 Pd1 Pt1 Sb7"
_cell_length_a       7.358892409128858
_cell_length_b       7.697814570567557
_cell_length_c       7.503471851348877
_cell_angle_alpha    63.43508954912274
_cell_angle_beta     61.26356493406735
_cell_angle_gamma    61.69141693826071

_space_group_name_H-M_alt    "P 1"
_space_group_IT_number       1

loop_
  _space_group_symop_operation_xyz
  'x, y, z'

loop_
  _atom_site_type_symbol
  _atom_site_label
  _atom_site_symmetry_multiplicity
  _atom_site_fract_x
  _atom_site_fract_y
  _atom_site_fract_z
  _atom_site_occupancy
  Cl  Cl1       1.0  0.6416978836059571  0.9718508124351501  0.8751858472824098  1.0000
  Nb  Nb1       1.0  0.00685898493975401  0.9866045713424683  0.42266178131103516  1.0000
  O   O1        1.0  0.5902199745178223  0.5765402317047119  0.4692503213882447  1.0000
  O   O2        1.0  0.7138812541961671  0.540156900882721  0.17794825136661532  1.0000
  O   O3        1.0  0.3688688278198243  0.9489912390708923  0.6271485686302186  1.0000
  Pd  Pd1       1.0  0.7851514220237733  0.7771575450897217  0.7381466031074525  1.0000
  Pt  Pt1       1.0  0.5213743448257446  0.6416275501251221  0.3691753745079041  1.0000
  Sb  Sb1       1.0  0.9892789125442506  0.9648312330245972  0.8996824622154237  1.0000
  Sb  Sb2       1.0  0.9902756810188295  0.49644967913627625  0.2004000097513199  1.0000
  Sb  Sb3       1.0  0.9865265488624574  0.44036319851875305  0.7102110385894777  1.0000
  Sb  Sb4       1.0  0.0008778240298852326  0.3028365969657898  0.8863278627395631  1.0000
  Sb  Sb5       1.0  0.3272223770618439  0.13584496080875397  0.3817798793315888  1.0000
  Sb  Sb6       1.0  0.48829245567321783  0.03561410680413246  0.7150360941886903  1.0000
  Sb  Sb7       1.0  0.3166719973087311  0.6337829232215881  0.7479388117790223  1.0000
