data_image0
_chemical_formula_structural       Ag2CeOSb7Te2Tl
_chemical_formula_sum              "Ag2 Ce1 O1 Sb7 Te2 Tl1"
_cell_length_a       7.789743811305406
_cell_length_b       8.610176953933895
_cell_length_c       8.854060173034668
_cell_angle_alpha    74.91608144903033
_cell_angle_beta     65.43191098110202
_cell_angle_gamma    61.588604550772395

_space_group_name_H-M_alt    "P 1"
_space_group_IT_number       1

loop_
  _space_group_symop_operation_xyz
  'x, y, z'

loop_
  _atom_site_type_symbol
  _atom_site_label
  _atom_site_symmetry_multiplicity
  _atom_site_fract_x
  _atom_site_fract_y
  _atom_site_fract_z
  _atom_site_occupancy
  Ag  Ag1       1.0  0.6016378998756409  0.221238374710083  0.12633119523525238  1.0000
  Ag  Ag2       1.0  0.7797143459320068  0.44010570645332336  0.12087692320346832  1.0000
  Ce  Ce1       1.0  0.5590587854385376  0.29657840728759766  0.964551568031311  1.0000
  O   O1        1.0  0.4500184655189514  0.30384930968284607  0.005983259063214064  1.0000
  Sb  Sb1       1.0  0.18764802813529968  0.36838918924331665  0.9532139301300049  1.0000
  Sb  Sb2       1.0  0.6898854374885559  0.8537938594818115  0.016136981546878815  1.0000
  Sb  Sb3       1.0  0.837582528591156  0.9949901700019836  0.9220296740531921  1.0000
  Sb  Sb4       1.0  0.1862931251525879  0.8595004677772522  0.05426664650440216  1.0000
  Sb  Sb5       1.0  0.5591719150543213  0.197816863656044  0.2827592194080353  1.0000
  Sb  Sb6       1.0  0.5924201607704163  0.7039573192596436  0.3005555272102356  1.0000
  Sb  Sb7       1.0  0.6803176999092102  0.8369073271751404  0.5306082367897034  1.0000
  Te  Te1       1.0  0.040698010474443436  0.18137694895267487  0.4669235646724701  1.0000
  Te  Te2       1.0  0.8357216715812683  0.7020330429077148  0.8048890233039856  1.0000
  Tl  Tl1       1.0  0.2272288203239441  0.20187507569789886  0.40184032917022705  1.0000
