data_image0
_chemical_formula_structural       Se2U7
_chemical_formula_sum              "Se2 U7"
_cell_length_a       5.3264717146790765
_cell_length_b       5.519164998406722
_cell_length_c       6.064333915710449
_cell_angle_alpha    119.08670481346252
_cell_angle_beta     104.01512118985089
_cell_angle_gamma    93.72726601714866

_space_group_name_H-M_alt    "P 1"
_space_group_IT_number       1

loop_
  _space_group_symop_operation_xyz
  'x, y, z'

loop_
  _atom_site_type_symbol
  _atom_site_label
  _atom_site_symmetry_multiplicity
  _atom_site_fract_x
  _atom_site_fract_y
  _atom_site_fract_z
  _atom_site_occupancy
  Se  Se1       1.0  0.16359694302082062  0.7533314824104309  0.3462581932544708  1.0000
  Se  Se2       1.0  0.6627020239830017  0.9341914653778076  0.044230774044990616  1.0000
  U   U1        1.0  0.6361111402511597  0.04349670931696892  0.5424094200134277  1.0000
  U   U2        1.0  0.6561005115509033  0.7601618766784668  0.40069991350173956  1.0000
  U   U3        1.0  0.14571666717529297  0.9763736724853516  0.8682096004486084  1.0000
  U   U4        1.0  0.5995743870735168  0.5597510933876038  0.6676805019378662  1.0000
  U   U5        1.0  0.6802575588226318  0.6705918908119202  0.14166104793548592  1.0000
  U   U6        1.0  0.17681509256362915  0.6508722901344299  0.853597104549408  1.0000
  U   U7        1.0  0.17773427069187164  0.22949719429016113  0.9438267350196838  1.0000
