data_image0
_chemical_formula_structural       GeSe2U5V
_chemical_formula_sum              "Ge1 Se2 U5 V1"
_cell_length_a       5.267041318803285
_cell_length_b       5.65733432751479
_cell_length_c       7.988840579986572
_cell_angle_alpha    112.53870352540197
_cell_angle_beta     111.32725955073428
_cell_angle_gamma    106.14128312636063

_space_group_name_H-M_alt    "P 1"
_space_group_IT_number       1

loop_
  _space_group_symop_operation_xyz
  'x, y, z'

loop_
  _atom_site_type_symbol
  _atom_site_label
  _atom_site_symmetry_multiplicity
  _atom_site_fract_x
  _atom_site_fract_y
  _atom_site_fract_z
  _atom_site_occupancy
  Ge  Ge1       1.0  0.22425545752048492  0.7243428230285645  0.8236134648323059  1.0000
  Se  Se1       1.0  0.7569143772125244  0.18717138469219208  0.5452321767807007  1.0000
  Se  Se2       1.0  0.9380768537521362  0.04994680732488632  0.21039073169231415  1.0000
  U   U1        1.0  0.2899159789085388  0.2962961494922638  0.69126957654953  1.0000
  U   U2        1.0  0.26994529366493225  0.8781642913818359  0.6742897033691406  1.0000
  U   U3        1.0  0.7054348587989807  0.9122592210769653  0.5988034605979919  1.0000
  U   U4        1.0  0.4759121239185333  0.6960490942001343  0.7873772978782654  1.0000
  U   U5        1.0  0.9833447933197021  0.3484618663787842  0.7336352467536926  1.0000
  V   V1        1.0  0.712898313999176  0.16620545089244843  0.8728446364402771  1.0000
