data_image0
_chemical_formula_structural       U9
_chemical_formula_sum              "U9"
_cell_length_a       4.963246365105825
_cell_length_b       4.96394920429188
_cell_length_c       6.544753074645996
_cell_angle_alpha    114.2096113089085
_cell_angle_beta     118.26766765890983
_cell_angle_gamma    88.8899421822909

_space_group_name_H-M_alt    "P 1"
_space_group_IT_number       1

loop_
  _space_group_symop_operation_xyz
  'x, y, z'

loop_
  _atom_site_type_symbol
  _atom_site_label
  _atom_site_symmetry_multiplicity
  _atom_site_fract_x
  _atom_site_fract_y
  _atom_site_fract_z
  _atom_site_occupancy
  U   U1        1.0  0.6873341798782349  0.8912069201469421  0.24329867959022525  1.0000
  U   U2        1.0  0.2744499146938324  0.03523694723844528  0.6059415340423584  1.0000
  U   U3        1.0  0.4460393786430359  0.6137052774429321  0.9239436984062196  1.0000
  U   U4        1.0  0.14465507864952087  0.7279418706893921  0.4341405034065247  1.0000
  U   U5        1.0  0.9633479714393616  0.23390984535217285  0.8779327869415284  1.0000
  U   U6        1.0  0.7327845692634583  0.5601792335510254  0.5772973299026489  1.0000
  U   U7        1.0  0.735966682434082  0.808680534362793  0.6592373251914978  1.0000
  U   U8        1.0  0.3721214234828949  0.15821395814418793  0.28201672434806824  1.0000
  U   U9        1.0  0.006009745877236128  0.9742622971534729  0.13324394822120675  1.0000
