data_image0
_chemical_formula_structural       ISeU7
_chemical_formula_sum              "I1 Se1 U7"
_cell_length_a       5.11066262626018
_cell_length_b       5.901290682739866
_cell_length_c       10.394307136535645
_cell_angle_alpha    92.38845830341398
_cell_angle_beta     90.99538540179485
_cell_angle_gamma    108.28284210244226

_space_group_name_H-M_alt    "P 1"
_space_group_IT_number       1

loop_
  _space_group_symop_operation_xyz
  'x, y, z'

loop_
  _atom_site_type_symbol
  _atom_site_label
  _atom_site_symmetry_multiplicity
  _atom_site_fract_x
  _atom_site_fract_y
  _atom_site_fract_z
  _atom_site_occupancy
  I   I1        1.0  0.9992843270301819  0.6947460174560547  0.36876004934310913  1.0000
  Se  Se1       1.0  0.5188475847244263  0.20015664398670197  0.2928127348423004  1.0000
  U   U1        1.0  0.4447043538093567  0.8985607028007506  0.8779540061950684  1.0000
  U   U2        1.0  0.5184606313705444  0.5502176880836487  0.46954503655433655  1.0000
  U   U3        1.0  0.035080671310424784  0.4116217494010925  0.5018991231918335  1.0000
  U   U4        1.0  0.9544996619224548  0.05753629282116889  0.0063868178986012936  1.0000
  U   U5        1.0  0.6062371730804443  0.6839300394058228  0.7505390644073486  1.0000
  U   U6        1.0  0.5329552888870239  0.8459913730621337  0.49858558177948  1.0000
  U   U7        1.0  0.5560985803604126  0.07666457444429398  0.5314537286758423  1.0000
