data_image0
_chemical_formula_structural       B2NiRuU3Zr2
_chemical_formula_sum              "B2 Ni1 Ru1 U3 Zr2"
_cell_length_a       5.533402531544583
_cell_length_b       5.789353820232212
_cell_length_c       5.527861595153809
_cell_angle_alpha    62.06297479923834
_cell_angle_beta     59.43656837091366
_cell_angle_gamma    61.13084112059137

_space_group_name_H-M_alt    "P 1"
_space_group_IT_number       1

loop_
  _space_group_symop_operation_xyz
  'x, y, z'

loop_
  _atom_site_type_symbol
  _atom_site_label
  _atom_site_symmetry_multiplicity
  _atom_site_fract_x
  _atom_site_fract_y
  _atom_site_fract_z
  _atom_site_occupancy
  B   B1        1.0  0.8667773604393005  0.32898563146591187  0.22760546207427979  1.0000
  B   B2        1.0  0.3435056805610657  0.8435592651367188  0.9881405830383301  1.0000
  Ni  Ni1       1.0  0.08350115269422531  0.2912631034851074  0.08132749795913696  1.0000
  Ru  Ru1       1.0  0.4729737341403961  0.8103768229484558  0.6069759726524353  1.0000
  U   U1        1.0  0.4826774001121521  0.333673357963562  0.7795969843864441  1.0000
  U   U2        1.0  0.4634524881839752  0.08813904225826263  0.6819735765457153  1.0000
  U   U3        1.0  0.09422013908624649  0.5540298223495483  0.3673846125602722  1.0000
  Zr  Zr1       1.0  0.8569865226745605  0.08088622242212296  0.8397670388221741  1.0000
  Zr  Zr2       1.0  0.12751848995685577  0.8106552362442017  0.2776362895965576  1.0000
