data_image0
_chemical_formula_structural       B3Cr3FeRuU
_chemical_formula_sum              "B3 Cr3 Fe1 Ru1 U1"
_cell_length_a       4.225677281632453
_cell_length_b       4.346038180985298
_cell_length_c       4.74510383605957
_cell_angle_alpha    50.71251712138015
_cell_angle_beta     43.3512446362784
_cell_angle_gamma    74.052497592303

_space_group_name_H-M_alt    "P 1"
_space_group_IT_number       1

loop_
  _space_group_symop_operation_xyz
  'x, y, z'

loop_
  _atom_site_type_symbol
  _atom_site_label
  _atom_site_symmetry_multiplicity
  _atom_site_fract_x
  _atom_site_fract_y
  _atom_site_fract_z
  _atom_site_occupancy
  B   B1        1.0  0.8353587388992308  0.3081064224243164  0.09898564964532863  1.0000
  B   B2        1.0  0.34458220005035395  0.31471866369247437  0.01683719456195837  1.0000
  B   B3        1.0  0.3560071587562561  0.7988874316215515  0.30350461602211  1.0000
  Cr  Cr1       1.0  0.8486480116844176  0.8113394379615783  0.06101293861866011  1.0000
  Cr  Cr2       1.0  0.858596444129944  0.8051790595054626  0.21962247788906103  1.0000
  Cr  Cr3       1.0  0.3483356237411496  0.3078430891036987  0.9657698869705201  1.0000
  Fe  Fe1       1.0  0.343654930591583  0.31364962458610546  0.7935588955879213  1.0000
  Ru  Ru1       1.0  0.845276355743408  0.3083534836769105  0.5535715818405152  1.0000
  U   U1        1.0  0.3596406877040862  0.7981307506561279  0.5570614933967591  1.0000
