data_image0
_chemical_formula_structural       B3U4YZr
_chemical_formula_sum              "B3 U4 Y1 Zr1"
_cell_length_a       5.569292810923805
_cell_length_b       5.749002989072905
_cell_length_c       5.749996185302734
_cell_angle_alpha    60.50027824676455
_cell_angle_beta     61.48273893611484
_cell_angle_gamma    60.427164424224955

_space_group_name_H-M_alt    "P 1"
_space_group_IT_number       1

loop_
  _space_group_symop_operation_xyz
  'x, y, z'

loop_
  _atom_site_type_symbol
  _atom_site_label
  _atom_site_symmetry_multiplicity
  _atom_site_fract_x
  _atom_site_fract_y
  _atom_site_fract_z
  _atom_site_occupancy
  B   B1        1.0  0.029354028403759003  0.2821519076824188  0.210783451795578  1.0000
  B   B2        1.0  0.5062381029129028  0.25716647505760193  0.7808253169059753  1.0000
  B   B3        1.0  0.31513848900794983  0.8755808472633362  0.45618024468421936  1.0000
  U   U1        1.0  0.3490382730960846  0.38355550169944763  0.14960025250911713  1.0000
  U   U2        1.0  0.9642738103866577  0.9087472558021545  0.7715727090835572  1.0000
  U   U3        1.0  0.7933948636054993  0.3480576276779175  0.9514324069023132  1.0000
  U   U4        1.0  0.34252992272377014  0.8580317497253418  0.8992143273353577  1.0000
  Y   Y1        1.0  0.7529433965682983  0.8947403430938721  0.31775692105293274  1.0000
  Zr  Zr1       1.0  0.9855867028236389  0.6376798152923584  0.07948244363069534  1.0000
