data_image0
_chemical_formula_structural       B3Fe2Ru2U2
_chemical_formula_sum              "B3 Fe2 Ru2 U2"
_cell_length_a       4.245553720354079
_cell_length_b       4.825414432213417
_cell_length_c       5.232141494750977
_cell_angle_alpha    87.65110446235587
_cell_angle_beta     85.5989562827515
_cell_angle_gamma    87.06419299717956

_space_group_name_H-M_alt    "P 1"
_space_group_IT_number       1

loop_
  _space_group_symop_operation_xyz
  'x, y, z'

loop_
  _atom_site_type_symbol
  _atom_site_label
  _atom_site_symmetry_multiplicity
  _atom_site_fract_x
  _atom_site_fract_y
  _atom_site_fract_z
  _atom_site_occupancy
  B   B1        1.0  0.05601303651928902  0.8400142192840576  0.48728686571121216  1.0000
  B   B2        1.0  0.6389572620391846  0.6294985413551331  0.30266115069389343  1.0000
  B   B3        1.0  0.05904875695705414  0.37225744128227234  0.7984352707862854  1.0000
  Fe  Fe1       1.0  0.5861109495162964  0.9777741432189941  0.48206761479377747  1.0000
  Fe  Fe2       1.0  0.34554752707481384  0.48407813906669617  0.9846312403678894  1.0000
  Ru  Ru1       1.0  0.13311438262462616  0.14029231667518616  0.3733483552932739  1.0000
  Ru  Ru2       1.0  0.09876161068677902  0.4688107669353485  0.7916790246963501  1.0000
  U   U1        1.0  0.6311532258987427  0.11916541308164597  0.22149249911308289  1.0000
  U   U2        1.0  0.05184265971183777  0.8778111934661865  0.9864677786827087  1.0000
