data_image0
_chemical_formula_structural       CoI5MoNiP2
_chemical_formula_sum              "Co1 I5 Mo1 Ni1 P2"
_cell_length_a       4.215986727177867
_cell_length_b       4.653948800627872
_cell_length_c       12.897025108337402
_cell_angle_alpha    95.31941647522011
_cell_angle_beta     96.29062658164183
_cell_angle_gamma    103.65451842821551

_space_group_name_H-M_alt    "P 1"
_space_group_IT_number       1

loop_
  _space_group_symop_operation_xyz
  'x, y, z'

loop_
  _atom_site_type_symbol
  _atom_site_label
  _atom_site_symmetry_multiplicity
  _atom_site_fract_x
  _atom_site_fract_y
  _atom_site_fract_z
  _atom_site_occupancy
  Co  Co1       1.0  0.7359073758125305  0.0370648019015789  0.6275753378868103  1.0000
  I   I1        1.0  0.28872793912887573  0.5436411499977112  0.2249775379896164  1.0000
  I   I2        1.0  0.2662299871444702  0.0617494136095047  0.72536301612854  1.0000
  I   I3        1.0  0.706025242805481  0.7859890460968018  0.9892314672470093  1.0000
  I   I4        1.0  0.2804192006587982  0.9180898070335388  0.34886884689331055  1.0000
  I   I5        1.0  0.8390642404556274  0.4531971514225006  0.0509524866938591  1.0000
  Mo  Mo1       1.0  0.7461866140365601  0.648353099822998  0.043592117726802826  1.0000
  Ni  Ni1       1.0  0.27717602252960205  0.6229550242424011  0.06117852404713631  1.0000
  P   P1        1.0  0.7465642690658569  0.7096761465072632  0.13255517184734344  1.0000
  P   P2        1.0  0.8734517097473145  0.03568504378199577  0.2507419288158417  1.0000
