data_image0
_chemical_formula_structural       CeEuI3NiP4
_chemical_formula_sum              "Ce1 Eu1 I3 Ni1 P4"
_cell_length_a       5.0507752218809845
_cell_length_b       5.782594470677856
_cell_length_c       7.151693344116211
_cell_angle_alpha    115.42011403929426
_cell_angle_beta     108.8282846269598
_cell_angle_gamma    111.17398984456106

_space_group_name_H-M_alt    "P 1"
_space_group_IT_number       1

loop_
  _space_group_symop_operation_xyz
  'x, y, z'

loop_
  _atom_site_type_symbol
  _atom_site_label
  _atom_site_symmetry_multiplicity
  _atom_site_fract_x
  _atom_site_fract_y
  _atom_site_fract_z
  _atom_site_occupancy
  Ce  Ce1       1.0  0.3462483286857605  0.11380913853645325  0.058254081755876534  1.0000
  Eu  Eu1       1.0  0.7600584030151367  0.3860163390636444  0.36951264739036555  1.0000
  I   I1        1.0  0.7925521731376648  0.4444577395915985  0.04027669131755828  1.0000
  I   I2        1.0  0.30850282311439514  0.45960837602615356  0.9657157063484191  1.0000
  I   I3        1.0  0.2933367192745209  0.8981578350067139  0.33306434750556935  1.0000
  Ni  Ni1       1.0  0.30315104126930237  0.002161811338737607  0.03363923355937005  1.0000
  P   P1        1.0  0.7823049426078796  0.35077786445617676  0.2602051794528961  1.0000
  P   P2        1.0  0.24945400655269626  0.08195160329341888  0.47342962026596064  1.0000
  P   P3        1.0  0.7840978503227234  0.770165741443634  0.7394352555274962  1.0000
  P   P4        1.0  0.9256979227066041  0.06640360504388809  0.3044982552528381  1.0000
