data_image0
_chemical_formula_structural       Ce3I2MoP4
_chemical_formula_sum              "Ce3 I2 Mo1 P4"
_cell_length_a       3.93290638355709
_cell_length_b       6.634003183121371
_cell_length_c       7.537359714508057
_cell_angle_alpha    83.21240855552637
_cell_angle_beta     78.37761256813056
_cell_angle_gamma    77.82656179563145

_space_group_name_H-M_alt    "P 1"
_space_group_IT_number       1

loop_
  _space_group_symop_operation_xyz
  'x, y, z'

loop_
  _atom_site_type_symbol
  _atom_site_label
  _atom_site_symmetry_multiplicity
  _atom_site_fract_x
  _atom_site_fract_y
  _atom_site_fract_z
  _atom_site_occupancy
  Ce  Ce1       1.0  0.9777410626411437  0.35658714175224304  0.7754691243171692  1.0000
  Ce  Ce2       1.0  0.6795917153358458  0.4086419343948364  0.20575009286403656  1.0000
  Ce  Ce3       1.0  0.1722024083137512  0.9437518119812012  0.2425423115491867  1.0000
  I   I1        1.0  0.1768684387207031  0.8118832111358643  0.20732049643993378  1.0000
  I   I2        1.0  0.4838444590568542  0.26262083649635315  0.21588227152824402  1.0000
  Mo  Mo1       1.0  0.25696510076522827  0.38890284299850464  0.05819172039628029  1.0000
  P   P1        1.0  0.687711477279663  0.4139120280742645  0.4145531952381134  1.0000
  P   P2        1.0  0.9252560138702391  0.6132283806800842  0.7925821542739868  1.0000
  P   P3        1.0  0.7309892773628234  0.7340345978736877  0.03609681501984596  1.0000
  P   P4        1.0  0.6547303199768065  0.5474661588668823  0.36652007699012756  1.0000
