data_image0
_chemical_formula_structural       Au3Ce4P3
_chemical_formula_sum              "Au3 Ce4 P3"
_cell_length_a       4.837770246599169
_cell_length_b       4.847754605845099
_cell_length_c       8.61745834350586
_cell_angle_alpha    102.48622621361385
_cell_angle_beta     93.98170398571632
_cell_angle_gamma    87.09589312773946

_space_group_name_H-M_alt    "P 1"
_space_group_IT_number       1

loop_
  _space_group_symop_operation_xyz
  'x, y, z'

loop_
  _atom_site_type_symbol
  _atom_site_label
  _atom_site_symmetry_multiplicity
  _atom_site_fract_x
  _atom_site_fract_y
  _atom_site_fract_z
  _atom_site_occupancy
  Au  Au1       1.0  0.21319180727005005  0.210484579205513  0.506810188293457  1.0000
  Au  Au2       1.0  0.7251716256141663  0.974700391292572  0.03983824700117111  1.0000
  Au  Au3       1.0  0.7354841232299805  0.43126630783081055  0.4066087305545807  1.0000
  Ce  Ce1       1.0  0.7308579683303833  0.9908140301704407  0.4573573172092438  1.0000
  Ce  Ce2       1.0  0.2284388393163681  0.39952215552330017  0.09025540202856064  1.0000
  Ce  Ce3       1.0  0.2045482099056244  0.962605357170105  0.8000164031982422  1.0000
  Ce  Ce4       1.0  0.9790073037147522  0.06792189925909042  0.6307985186576843  1.0000
  P   P1        1.0  0.24077318608760834  0.16163000464439392  0.39672738313674927  1.0000
  P   P2        1.0  0.45596855878829956  0.9520396590232849  0.4419311285018921  1.0000
  P   P3        1.0  0.7311483025550842  0.17264620959758759  0.7247797250747681  1.0000
