data_image0
_chemical_formula_structural       Au3Ce4P3
_chemical_formula_sum              "Au3 Ce4 P3"
_cell_length_a       5.087856974366522
_cell_length_b       5.370138247837758
_cell_length_c       8.595998764038086
_cell_angle_alpha    90.60057263131414
_cell_angle_beta     89.89350918605949
_cell_angle_gamma    89.4858213870369

_space_group_name_H-M_alt    "P 1"
_space_group_IT_number       1

loop_
  _space_group_symop_operation_xyz
  'x, y, z'

loop_
  _atom_site_type_symbol
  _atom_site_label
  _atom_site_symmetry_multiplicity
  _atom_site_fract_x
  _atom_site_fract_y
  _atom_site_fract_z
  _atom_site_occupancy
  Au  Au1       1.0  0.7677528262138367  0.6711257100105286  0.840707004070282  1.0000
  Au  Au2       1.0  0.7583940029144287  0.959365725517273  0.1764860898256302  1.0000
  Au  Au3       1.0  0.8736971020698547  0.07921245694160461  0.5188269019126892  1.0000
  Ce  Ce1       1.0  0.2703087627887726  0.6360829472541809  0.3349841833114624  1.0000
  Ce  Ce2       1.0  0.5258674621582031  0.6925240755081177  0.3141968250274658  1.0000
  Ce  Ce3       1.0  0.3758094310760498  0.21956565976142883  0.4312065541744232  1.0000
  Ce  Ce4       1.0  0.38272207975387573  0.25689229369163513  0.2749688923358917  1.0000
  P   P1        1.0  0.8770983815193176  0.4701135754585266  0.6947851181030273  1.0000
  P   P2        1.0  0.3737080693244934  0.9834851026535034  0.8734350204467773  1.0000
  P   P3        1.0  0.8780040144920349  0.7248907685279846  0.5840944051742554  1.0000
