data_image0
_chemical_formula_structural       Ce2I3P5
_chemical_formula_sum              "Ce2 I3 P5"
_cell_length_a       4.234669827435152
_cell_length_b       6.344176461331811
_cell_length_c       8.484551429748535
_cell_angle_alpha    112.77200675296544
_cell_angle_beta     92.18134047022815
_cell_angle_gamma    93.18534429787611

_space_group_name_H-M_alt    "P 1"
_space_group_IT_number       1

loop_
  _space_group_symop_operation_xyz
  'x, y, z'

loop_
  _atom_site_type_symbol
  _atom_site_label
  _atom_site_symmetry_multiplicity
  _atom_site_fract_x
  _atom_site_fract_y
  _atom_site_fract_z
  _atom_site_occupancy
  Ce  Ce1       1.0  0.8721473813056946  0.7922659516334534  0.08778171241283417  1.0000
  Ce  Ce2       1.0  0.37132343649864197  0.6939294934272766  0.42725783586502075  1.0000
  I   I1        1.0  0.09664417058229446  0.37268978357315063  0.5674937963485718  1.0000
  I   I2        1.0  0.8998093008995056  0.47683364152908325  0.3621099293231964  1.0000
  I   I3        1.0  0.09832119941711426  0.833379328250885  0.5043793320655823  1.0000
  P   P1        1.0  0.11443652212619781  0.2520265579223633  0.576635479927063  1.0000
  P   P2        1.0  0.5937363505363464  0.3101744055747986  0.09078041464090349  1.0000
  P   P3        1.0  0.09181217104196548  0.973297119140625  0.2745159268379212  1.0000
  P   P4        1.0  0.41800153255462646  0.058453790843486786  0.6632788181304932  1.0000
  P   P5        1.0  0.46587392687797546  0.9549595713615417  0.9262697696685791  1.0000
