data_image0
_chemical_formula_structural       CaGe3HLiPb2SiSmTi
_chemical_formula_sum              "Ca1 Ge3 H1 Li1 Pb2 Si1 Sm1 Ti1"
_cell_length_a       5.569413659769005
_cell_length_b       7.23836693012474
_cell_length_c       7.352573871612549
_cell_angle_alpha    117.34395199752132
_cell_angle_beta     105.41553988795927
_cell_angle_gamma    94.28063679654369

_space_group_name_H-M_alt    "P 1"
_space_group_IT_number       1

loop_
  _space_group_symop_operation_xyz
  'x, y, z'

loop_
  _atom_site_type_symbol
  _atom_site_label
  _atom_site_symmetry_multiplicity
  _atom_site_fract_x
  _atom_site_fract_y
  _atom_site_fract_z
  _atom_site_occupancy
  Ca  Ca1       1.0  0.5850805044174194  0.14066116511821747  0.15003286302089694  1.0000
  Ge  Ge1       1.0  0.0859330147504807  0.7810223698616029  0.35606935620307933  1.0000
  Ge  Ge2       1.0  0.08262930810451508  0.13795331120491028  0.643471658229828  1.0000
  Ge  Ge3       1.0  0.08061769604682927  0.7949947118759156  0.35905793309211737  1.0000
  H   H1        1.0  0.58548504114151  0.6058688163757324  0.8666850924491883  1.0000
  Li  Li1       1.0  0.5905250906944275  0.9302766919136048  0.7843745946884156  1.0000
  Pb  Pb1       1.0  0.09287098050117497  0.8473744988441468  0.09776809811592109  1.0000
  Pb  Pb2       1.0  0.08404497057199481  0.47420564293861395  0.8473258614540101  1.0000
  Si  Si1       1.0  0.5961318016052246  0.9782031178474427  0.9969130754470826  1.0000
  Sm  Sm1       1.0  0.5901308059692383  0.19473619759082797  0.052617345005273826  1.0000
  Ti  Ti1       1.0  0.5861020684242249  0.33324605226516724  0.6587191820144654  1.0000
