data_image0
_chemical_formula_structural       AsCo2GaGeHPb2PtScZr
_chemical_formula_sum              "As1 Co2 Ga1 Ge1 H1 Pb2 Pt1 Sc1 Zr1"
_cell_length_a       5.312546912124998
_cell_length_b       6.746426897781467
_cell_length_c       7.392186164855957
_cell_angle_alpha    117.48059415973226
_cell_angle_beta     91.47095027666442
_cell_angle_gamma    88.41222743516867

_space_group_name_H-M_alt    "P 1"
_space_group_IT_number       1

loop_
  _space_group_symop_operation_xyz
  'x, y, z'

loop_
  _atom_site_type_symbol
  _atom_site_label
  _atom_site_symmetry_multiplicity
  _atom_site_fract_x
  _atom_site_fract_y
  _atom_site_fract_z
  _atom_site_occupancy
  As  As1       1.0  0.4458824694156647  0.7629946470260621  0.969557762145996  1.0000
  Co  Co1       1.0  0.9299164414405823  0.28180810809135437  0.38882273435592646  1.0000
  Co  Co2       1.0  0.9429144263267517  0.675293505191803  0.8719227910041808  1.0000
  Ga  Ga1       1.0  0.4357229471206665  0.7871141433715821  0.5446408987045288  1.0000
  Ge  Ge1       1.0  0.4361891746520996  0.9070202112197877  0.14599308371543882  1.0000
  H   H1        1.0  0.4198921322822571  0.8061969876289369  0.33957412838935846  1.0000
  Pb  Pb1       1.0  0.9389883279800415  0.9377778172492982  0.3372380137443542  1.0000
  Pb  Pb2       1.0  0.9529302716255188  0.14200487732887268  0.23511257767677304  1.0000
  Pt  Pt1       1.0  0.3684743046760559  0.019669584929943085  0.7968642115592955  1.0000
  Sc  Sc1       1.0  0.9296512603759766  0.40478590130805975  0.6320602893829345  1.0000
  Zr  Zr1       1.0  0.4423273801803589  0.605431079864502  0.3129324913024902  1.0000
