data_image0
_chemical_formula_structural       AlClCoGe2LaNiSi2Sm2
_chemical_formula_sum              "Al1 Cl1 Co1 Ge2 La1 Ni1 Si2 Sm2"
_cell_length_a       6.641783012776557
_cell_length_b       6.379445254147515
_cell_length_c       7.93143367767334
_cell_angle_alpha    111.02884212211355
_cell_angle_beta     108.4488100684525
_cell_angle_gamma    113.91108771996625

_space_group_name_H-M_alt    "P 1"
_space_group_IT_number       1

loop_
  _space_group_symop_operation_xyz
  'x, y, z'

loop_
  _atom_site_type_symbol
  _atom_site_label
  _atom_site_symmetry_multiplicity
  _atom_site_fract_x
  _atom_site_fract_y
  _atom_site_fract_z
  _atom_site_occupancy
  Al  Al1       1.0  0.32968044281005865  0.5099525451660156  0.590125560760498  1.0000
  Cl  Cl1       1.0  0.12309094518423082  0.0620582289993763  0.3240380883216858  1.0000
  Co  Co1       1.0  0.015216828323900701  0.1863163858652115  0.7796655893325806  1.0000
  Ge  Ge1       1.0  0.562638521194458  0.26282384991645813  0.5058659315109253  1.0000
  Ge  Ge2       1.0  0.8653072714805604  0.7158868908882141  0.5181228518486023  1.0000
  La  La1       1.0  0.8878675103187562  0.8747838735580444  0.12431646883487701  1.0000
  Ni  Ni1       1.0  0.5375701189041138  0.9832839369773865  0.2686980366706848  1.0000
  Si  Si1       1.0  0.5725359916687012  0.269126296043396  0.31236881017684937  1.0000
  Si  Si2       1.0  0.3978135287761689  0.3767678141593933  0.3890255391597748  1.0000
  Sm  Sm1       1.0  0.025469167158007625  0.39166587591171265  0.8300385475158691  1.0000
  Sm  Sm2       1.0  0.8633739352226258  0.14882352948188782  0.8952254056930542  1.0000
