data_image0
_chemical_formula_structural       La2NiSi3Sm5
_chemical_formula_sum              "La2 Ni1 Si3 Sm5"
_cell_length_a       5.39546182469467
_cell_length_b       5.879659015939919
_cell_length_c       6.290988445281982
_cell_angle_alpha    87.28662029807289
_cell_angle_beta     89.40918905882258
_cell_angle_gamma    90.71331498926192

_space_group_name_H-M_alt    "P 1"
_space_group_IT_number       1

loop_
  _space_group_symop_operation_xyz
  'x, y, z'

loop_
  _atom_site_type_symbol
  _atom_site_label
  _atom_site_symmetry_multiplicity
  _atom_site_fract_x
  _atom_site_fract_y
  _atom_site_fract_z
  _atom_site_occupancy
  La  La1       1.0  0.8099095225334169  0.8923925757408142  0.2154905796051025  1.0000
  La  La2       1.0  0.30733099579811096  0.06322131305932999  0.5447831749916077  1.0000
  Ni  Ni1       1.0  0.806971848011017  0.9631198644638062  0.9440981745719909  1.0000
  Si  Si1       1.0  0.07347511500120163  0.08856716006994247  0.2626766562461853  1.0000
  Si  Si2       1.0  0.9763574600219728  0.7860729694366455  0.060609553009271615  1.0000
  Si  Si3       1.0  0.8121221661567689  0.03846912086009979  0.2192568480968475  1.0000
  Sm  Sm1       1.0  0.3063226342201233  0.924954891204834  0.5457370281219482  1.0000
  Sm  Sm2       1.0  0.8107066154479982  0.5476490259170532  0.8544685840606688  1.0000
  Sm  Sm3       1.0  0.3142125606536865  0.9988698959350586  0.2636337876319885  1.0000
  Sm  Sm4       1.0  0.3127638101577759  0.08935058116912842  0.34860527515411377  1.0000
  Sm  Sm5       1.0  0.3147701323032379  0.5247679352760315  0.7398116588592528  1.0000
