data_image0
_chemical_formula_structural       AlCoGaGe3HSbSiSm2
_chemical_formula_sum              "Al1 Co1 Ga1 Ge3 H1 Sb1 Si1 Sm2"
_cell_length_a       6.285512548178437
_cell_length_b       6.256602316524089
_cell_length_c       6.690101623535156
_cell_angle_alpha    111.7391297989817
_cell_angle_beta     111.69674093265675
_cell_angle_gamma    115.1702960256777

_space_group_name_H-M_alt    "P 1"
_space_group_IT_number       1

loop_
  _space_group_symop_operation_xyz
  'x, y, z'

loop_
  _atom_site_type_symbol
  _atom_site_label
  _atom_site_symmetry_multiplicity
  _atom_site_fract_x
  _atom_site_fract_y
  _atom_site_fract_z
  _atom_site_occupancy
  Al  Al1       1.0  0.015125640667974949  0.489250510931015  0.07774566113948822  1.0000
  Co  Co1       1.0  0.4961183965206146  0.4061814546585083  0.404231995344162  1.0000
  Ga  Ga1       1.0  0.13862335681915283  0.5301588773727417  0.8088811635971069  1.0000
  Ge  Ge1       1.0  0.13879476487636566  0.9111706018447876  0.3026943802833557  1.0000
  Ge  Ge2       1.0  0.08892711251974106  0.9872769713401794  0.16697773337364197  1.0000
  Ge  Ge3       1.0  0.049460943788290024  0.8881751298904419  0.13220256567001343  1.0000
  H   H1        1.0  0.8160617351531982  0.3046233057975769  0.8354543447494507  1.0000
  Sb  Sb1       1.0  0.6406280994415283  0.3397577702999115  0.15104514360427856  1.0000
  Si  Si1       1.0  0.5312839150428772  0.33648329973220825  0.8630873560905457  1.0000
  Sm  Sm1       1.0  0.5837305784225464  0.8686075806617737  0.616478681564331  1.0000
  Sm  Sm2       1.0  0.6447805166244507  0.5246785283088684  0.20711542665958405  1.0000
