data_image0
_chemical_formula_structural       Ni2Si3Sm6
_chemical_formula_sum              "Ni2 Si3 Sm6"
_cell_length_a       6.374572736477612
_cell_length_b       5.837124212526907
_cell_length_c       6.27220344543457
_cell_angle_alpha    110.3455367005887
_cell_angle_beta     110.28168925145783
_cell_angle_gamma    113.50582240160836

_space_group_name_H-M_alt    "P 1"
_space_group_IT_number       1

loop_
  _space_group_symop_operation_xyz
  'x, y, z'

loop_
  _atom_site_type_symbol
  _atom_site_label
  _atom_site_symmetry_multiplicity
  _atom_site_fract_x
  _atom_site_fract_y
  _atom_site_fract_z
  _atom_site_occupancy
  Ni  Ni1       1.0  0.2245638072490692  0.721210241317749  0.8340757489204408  1.0000
  Ni  Ni2       1.0  0.4834717810153961  0.47698840498924255  0.26697930693626404  1.0000
  Si  Si1       1.0  0.3035636246204376  0.08329477161169052  0.0372161865234375  1.0000
  Si  Si2       1.0  0.797447144985199  0.1397920548915863  0.4586316049098969  1.0000
  Si  Si3       1.0  0.21381284296512604  0.8731313347816467  0.305231511592865  1.0000
  Sm  Sm1       1.0  0.7156675457954407  0.18206070363521576  0.8357884883880616  1.0000
  Sm  Sm2       1.0  0.10444812476634979  0.21385353803634644  0.714770495891571  1.0000
  Sm  Sm3       1.0  0.8558356165885925  0.8943418860435486  0.8133304715156556  1.0000
  Sm  Sm4       1.0  0.006672437768429518  0.3998623788356781  0.2753819525241852  1.0000
  Sm  Sm5       1.0  0.6105799674987793  0.5890135169029236  0.6372039318084717  1.0000
  Sm  Sm6       1.0  0.4742250442504883  0.7549082636833191  0.9137413501739503  1.0000
