data_image0
_chemical_formula_structural       CaF3V5
_chemical_formula_sum              "Ca1 F3 V5"
_cell_length_a       3.974810366412369
_cell_length_b       3.9930931744965137
_cell_length_c       6.795566558837891
_cell_angle_alpha    109.19602717280097
_cell_angle_beta     89.73299951730364
_cell_angle_gamma    113.52674753149796

_space_group_name_H-M_alt    "P 1"
_space_group_IT_number       1

loop_
  _space_group_symop_operation_xyz
  'x, y, z'

loop_
  _atom_site_type_symbol
  _atom_site_label
  _atom_site_symmetry_multiplicity
  _atom_site_fract_x
  _atom_site_fract_y
  _atom_site_fract_z
  _atom_site_occupancy
  Ca  Ca1       1.0  0.18300485610961914  0.3971942067146301  0.6918503642082215  1.0000
  F   F1        1.0  0.44138845801353455  0.6371610164642334  0.5250132083892822  1.0000
  F   F2        1.0  0.19368989765644073  0.4196723699569702  0.5513168573379517  1.0000
  F   F3        1.0  0.2896089553833008  0.4601210951805115  0.5949174761772156  1.0000
  V   V1        1.0  0.6662908792495728  0.026796020567417145  0.4302713871002198  1.0000
  V   V2        1.0  0.6803259253501892  0.3025979697704315  0.7025362849235536  1.0000
  V   V3        1.0  0.17924387753009796  0.30768588185310364  0.13931305706501007  1.0000
  V   V4        1.0  0.8091101050376892  0.4928053021430969  0.08326596021652223  1.0000
  V   V5        1.0  0.6748723387718201  0.09171780198812485  0.8739355802536012  1.0000
