data_image0
_chemical_formula_structural       F4Na2V3
_chemical_formula_sum              "F4 Na2 V3"
_cell_length_a       5.101959750072039
_cell_length_b       5.2793389799799035
_cell_length_c       5.399782180786133
_cell_angle_alpha    67.515416032628
_cell_angle_beta     64.4898015791488
_cell_angle_gamma    65.3642939723062

_space_group_name_H-M_alt    "P 1"
_space_group_IT_number       1

loop_
  _space_group_symop_operation_xyz
  'x, y, z'

loop_
  _atom_site_type_symbol
  _atom_site_label
  _atom_site_symmetry_multiplicity
  _atom_site_fract_x
  _atom_site_fract_y
  _atom_site_fract_z
  _atom_site_occupancy
  F   F1        1.0  0.5421046614646912  0.9714457988739014  0.21359583735466003  1.0000
  F   F2        1.0  0.04860178753733635  0.7573613524436951  0.6673458814620972  1.0000
  F   F3        1.0  0.34900617599487305  0.9184843897819519  0.5073965191841125  1.0000
  F   F4        1.0  0.038128938525915146  0.7699974775314331  0.6410059332847595  1.0000
  Na  Na1       1.0  0.08171583712100983  0.37837016582489014  0.021082811057567596  1.0000
  Na  Na2       1.0  0.7018869519233704  0.4152301549911499  0.45483955740928644  1.0000
  V   V1        1.0  0.5482385754585266  0.3570980131626129  0.7030291557312012  1.0000
  V   V2        1.0  0.08414049446582794  0.8757997751235962  0.5123223066329956  1.0000
  V   V3        1.0  0.5789612531661987  0.132679283618927  0.09178324788808823  1.0000
