data_image0
_chemical_formula_structural       GaIZr5
_chemical_formula_sum              "Ga1 I1 Zr5"
_cell_length_a       5.292862080933063
_cell_length_b       5.257578100947854
_cell_length_c       6.162841796875
_cell_angle_alpha    117.40996582572672
_cell_angle_beta     113.25525488590318
_cell_angle_gamma    89.23698827851298

_space_group_name_H-M_alt    "P 1"
_space_group_IT_number       1

loop_
  _space_group_symop_operation_xyz
  'x, y, z'

loop_
  _atom_site_type_symbol
  _atom_site_label
  _atom_site_symmetry_multiplicity
  _atom_site_fract_x
  _atom_site_fract_y
  _atom_site_fract_z
  _atom_site_occupancy
  Ga  Ga1       1.0  0.49453064799308777  0.0024312175810337067  0.44865283370018  1.0000
  I   I1        1.0  0.9285650849342346  0.05929997190833092  0.2897348105907441  1.0000
  Zr  Zr1       1.0  0.9240867495536804  0.8925856351852417  0.27628961205482483  1.0000
  Zr  Zr2       1.0  0.9055981636047363  0.25356152653694153  0.6677210330963135  1.0000
  Zr  Zr3       1.0  0.4292302131652832  0.12864436209201813  0.5737186074256897  1.0000
  Zr  Zr4       1.0  0.41617318987846375  0.3407520651817322  0.07567273825407031  1.0000
  Zr  Zr5       1.0  0.9145697355270386  0.6600465774536133  0.13986459374427795  1.0000
