data_image0
_chemical_formula_structural       Al6LiNdSScZn
_chemical_formula_sum              "Al6 Li1 Nd1 S1 Sc1 Zn1"
_cell_length_a       5.912229004174007
_cell_length_b       6.21154213122381
_cell_length_c       6.384407997131348
_cell_angle_alpha    67.46743530800681
_cell_angle_beta     65.11851963363674
_cell_angle_gamma    64.5408650602303

_space_group_name_H-M_alt    "P 1"
_space_group_IT_number       1

loop_
  _space_group_symop_operation_xyz
  'x, y, z'

loop_
  _atom_site_type_symbol
  _atom_site_label
  _atom_site_symmetry_multiplicity
  _atom_site_fract_x
  _atom_site_fract_y
  _atom_site_fract_z
  _atom_site_occupancy
  Al  Al1       1.0  0.5917463302612305  0.7461079359054565  0.8839473128318786  1.0000
  Al  Al2       1.0  0.579351007938385  0.8550412654876709  0.4656231999397277  1.0000
  Al  Al3       1.0  0.7376014590263367  0.20252011716365814  0.9907333850860595  1.0000
  Al  Al4       1.0  0.7550184726715088  0.23212681710720062  0.7613858580589293  1.0000
  Al  Al5       1.0  0.694814920425415  0.36500293016433716  0.41362965106964106  1.0000
  Al  Al6       1.0  0.6481491327285767  0.5080156326293945  0.2500750422477722  1.0000
  Li  Li1       1.0  0.8770436048507692  0.19917641580104828  0.48503947257995594  1.0000
  Nd  Nd1       1.0  0.06686951965093613  0.495593786239624  0.28384771943092346  1.0000
  S   S1        1.0  0.3766558766365051  0.195872962474823  0.4809799492359161  1.0000
  Sc  Sc1       1.0  0.4081766903400421  0.7037118077278137  0.511013388633728  1.0000
  Zn  Zn1       1.0  0.08210030198097229  0.7296529412269592  0.2523481845855713  1.0000
