data_image0
_chemical_formula_structural       Al3CsH2LaNaScZn2
_chemical_formula_sum              "Al3 Cs1 H2 La1 Na1 Sc1 Zn2"
_cell_length_a       5.319684369074459
_cell_length_b       5.926541722959394
_cell_length_c       6.201376438140869
_cell_angle_alpha    70.49077437442324
_cell_angle_beta     64.7468400234203
_cell_angle_gamma    65.26239744528036

_space_group_name_H-M_alt    "P 1"
_space_group_IT_number       1

loop_
  _space_group_symop_operation_xyz
  'x, y, z'

loop_
  _atom_site_type_symbol
  _atom_site_label
  _atom_site_symmetry_multiplicity
  _atom_site_fract_x
  _atom_site_fract_y
  _atom_site_fract_z
  _atom_site_occupancy
  Al  Al1       1.0  0.6050918698310852  0.10736408829689026  0.6047645807266235  1.0000
  Al  Al2       1.0  0.051597338169813156  0.8942957520484924  0.5270485877990723  1.0000
  Al  Al3       1.0  0.720886766910553  0.425471693277359  0.8087323904037477  1.0000
  Cs  Cs1       1.0  0.9416258931159973  0.16462324559688568  0.6507558226585388  1.0000
  H   H1        1.0  0.3962863087654114  0.6496387720108032  0.5986119508743286  1.0000
  H   H2        1.0  0.7157703042030334  0.7193185091018677  0.2985721230506897  1.0000
  La  La1       1.0  0.663766622543335  0.9243871569633485  0.2605905532836914  1.0000
  Na  Na1       1.0  0.3340505063533783  0.6475922465324402  0.011772600002586843  1.0000
  Sc  Sc1       1.0  0.41568660736083984  0.1422385275363922  0.27700096368789673  1.0000
  Zn  Zn1       1.0  0.7842159867286682  0.22026517987251282  0.2968021035194397  1.0000
  Zn  Zn2       1.0  0.928111732006073  0.5203368663787842  0.08057086169719696  1.0000
