data_image0
_chemical_formula_structural       Al6FeNd4
_chemical_formula_sum              "Al6 Fe1 Nd4"
_cell_length_a       5.477688388103886
_cell_length_b       7.367389141599183
_cell_length_c       7.240258693695068
_cell_angle_alpha    123.01118578469895
_cell_angle_beta     89.82244603792876
_cell_angle_gamma    89.5709634269055

_space_group_name_H-M_alt    "P 1"
_space_group_IT_number       1

loop_
  _space_group_symop_operation_xyz
  'x, y, z'

loop_
  _atom_site_type_symbol
  _atom_site_label
  _atom_site_symmetry_multiplicity
  _atom_site_fract_x
  _atom_site_fract_y
  _atom_site_fract_z
  _atom_site_occupancy
  Al  Al1       1.0  0.9955354928970337  0.1578066647052765  0.9950132369995118  1.0000
  Al  Al2       1.0  0.7515906691551208  0.7050786018371582  0.9411691427230835  1.0000
  Al  Al3       1.0  0.2772819697856903  0.10930522531270982  0.589735746383667  1.0000
  Al  Al4       1.0  0.8375459313392639  0.9502464532852174  0.9899719357490541  1.0000
  Al  Al5       1.0  0.5053585171699524  0.660396158695221  0.033734485507011476  1.0000
  Al  Al6       1.0  0.5278090834617615  0.645050585269928  0.10847034305334091  1.0000
  Fe  Fe1       1.0  0.5075089931488037  0.6905689239501953  0.31390723586082464  1.0000
  Nd  Nd1       1.0  0.03141266480088234  0.6558223962783813  0.32169309258461004  1.0000
  Nd  Nd2       1.0  0.24692890048027039  0.37469667196273804  0.8687130212783815  1.0000
  Nd  Nd3       1.0  0.7505491971969604  0.6497796773910522  0.53545880317688  1.0000
  Nd  Nd4       1.0  0.7505279779434204  0.15569531917572021  0.8473975658416749  1.0000
