data_image0
_chemical_formula_structural       Al5CsHLi2UZn
_chemical_formula_sum              "Al5 Cs1 H1 Li2 U1 Zn1"
_cell_length_a       5.283342011878156
_cell_length_b       6.3136580453569735
_cell_length_c       6.547605037689209
_cell_angle_alpha    70.98059165978773
_cell_angle_beta     66.55415922712665
_cell_angle_gamma    64.56293686639013

_space_group_name_H-M_alt    "P 1"
_space_group_IT_number       1

loop_
  _space_group_symop_operation_xyz
  'x, y, z'

loop_
  _atom_site_type_symbol
  _atom_site_label
  _atom_site_symmetry_multiplicity
  _atom_site_fract_x
  _atom_site_fract_y
  _atom_site_fract_z
  _atom_site_occupancy
  Al  Al1       1.0  0.8607396483421326  0.2413744330406189  0.4190158545970917  1.0000
  Al  Al2       1.0  0.7698270082473755  0.6891220808029175  0.8272068500518799  1.0000
  Al  Al3       1.0  0.545937180519104  0.1852216124534607  0.21456854045391077  1.0000
  Al  Al4       1.0  0.43834471702575684  0.6258190870285034  0.8144238591194153  1.0000
  Al  Al5       1.0  0.03450893238186836  0.9208971858024597  0.06230924278497696  1.0000
  Cs  Cs1       1.0  0.7828048467636108  0.8659117817878723  0.3119266927242279  1.0000
  H   H1        1.0  0.09049321711063385  0.4319198429584503  0.2509905993938446  1.0000
  Li  Li1       1.0  0.12864644825458527  0.31603261828422546  0.9728590846061707  1.0000
  Li  Li2       1.0  0.2748635709285736  0.1808748096227646  0.32436496019363403  1.0000
  U   U1        1.0  0.8561859726905823  0.7042058706283569  0.015752092003822257  1.0000
  Zn  Zn1       1.0  0.2281467467546463  0.6700425148010254  0.5301073789596558  1.0000
