data_image0
_chemical_formula_structural       Al4Cs2HLiMnNdZn
_chemical_formula_sum              "Al4 Cs2 H1 Li1 Mn1 Nd1 Zn1"
_cell_length_a       5.781496443350204
_cell_length_b       6.354669692938879
_cell_length_c       6.842810153961182
_cell_angle_alpha    69.28547412824427
_cell_angle_beta     63.805044205714154
_cell_angle_gamma    63.36918632303473

_space_group_name_H-M_alt    "P 1"
_space_group_IT_number       1

loop_
  _space_group_symop_operation_xyz
  'x, y, z'

loop_
  _atom_site_type_symbol
  _atom_site_label
  _atom_site_symmetry_multiplicity
  _atom_site_fract_x
  _atom_site_fract_y
  _atom_site_fract_z
  _atom_site_occupancy
  Al  Al1       1.0  0.1018814742565155  0.6716693043708801  0.4046013355255127  1.0000
  Al  Al2       1.0  0.24058951437473297  0.6801268458366394  0.889090359210968  1.0000
  Al  Al3       1.0  0.24004587531089783  0.1818225234746933  0.42427510023117065  1.0000
  Al  Al4       1.0  0.3038274943828583  0.9239435195922852  0.7632865309715271  1.0000
  Cs  Cs1       1.0  0.41103464365005493  0.20190247893333435  0.11318037658929825  1.0000
  Cs  Cs2       1.0  0.8671138882637024  0.6687473058700562  0.694538950920105  1.0000
  H   H1        1.0  0.4255695343017578  0.4230744540691376  0.4331584870815277  1.0000
  Li  Li1       1.0  0.08651421219110489  0.9601479768753052  0.6071400046348572  1.0000
  Mn  Mn1       1.0  0.3957809507846832  0.9643827080726624  0.17314350605010986  1.0000
  Nd  Nd1       1.0  0.9887300729751587  0.5339699387550354  0.2374206781387329  1.0000
  Zn  Zn1       1.0  0.5859774351119995  0.9953243732452393  0.5395557284355164  1.0000
