data_image0
_chemical_formula_structural       Al8NaNd2
_chemical_formula_sum              "Al8 Na1 Nd2"
_cell_length_a       5.866824442121168
_cell_length_b       7.523673842162241
_cell_length_c       7.601000785827637
_cell_angle_alpha    125.25018310549035
_cell_angle_beta     89.69914967603034
_cell_angle_gamma    87.75268715585639

_space_group_name_H-M_alt    "P 1"
_space_group_IT_number       1

loop_
  _space_group_symop_operation_xyz
  'x, y, z'

loop_
  _atom_site_type_symbol
  _atom_site_label
  _atom_site_symmetry_multiplicity
  _atom_site_fract_x
  _atom_site_fract_y
  _atom_site_fract_z
  _atom_site_occupancy
  Al  Al1       1.0  0.3817718029022217  0.45067036151885986  0.008017432875931292  1.0000
  Al  Al2       1.0  0.33410409092903137  0.2594957947731018  0.26780325174331665  1.0000
  Al  Al3       1.0  0.059442561119794846  0.5035985112190247  0.16039405763149261  1.0000
  Al  Al4       1.0  0.5636062622070312  0.9979166388511658  0.9109463691711427  1.0000
  Al  Al5       1.0  0.5731233954429626  0.9516832232475281  0.05279795452952397  1.0000
  Al  Al6       1.0  0.3169151246547699  0.2489130198955536  0.6183273196220398  1.0000
  Al  Al7       1.0  0.8120031952857971  0.5661658644676208  0.8901299834251405  1.0000
  Al  Al8       1.0  0.08135628700256348  0.25394830107688904  0.5049540400505066  1.0000
  Na  Na1       1.0  0.8180049061775208  0.7545819282531738  0.621385931968689  1.0000
  Nd  Nd1       1.0  0.5753477811813354  0.2051776647567749  0.2553103268146515  1.0000
  Nd  Nd2       1.0  0.08039990067481995  0.2248111367225647  0.12346727401018145  1.0000
