data_image0
_chemical_formula_structural       CGeH2O4Sr7V
_chemical_formula_sum              "C1 Ge1 H2 O4 Sr7 V1"
_cell_length_a       6.1015563039384295
_cell_length_b       6.652352540178011
_cell_length_c       10.485334396362305
_cell_angle_alpha    102.21610899177846
_cell_angle_beta     90.49576305352986
_cell_angle_gamma    92.38107593696897

_space_group_name_H-M_alt    "P 1"
_space_group_IT_number       1

loop_
  _space_group_symop_operation_xyz
  'x, y, z'

loop_
  _atom_site_type_symbol
  _atom_site_label
  _atom_site_symmetry_multiplicity
  _atom_site_fract_x
  _atom_site_fract_y
  _atom_site_fract_z
  _atom_site_occupancy
  C   C1        1.0  0.7754001617431641  0.09854993969202042  0.6811394691467285  1.0000
  Ge  Ge1       1.0  0.2596246004104614  0.1444135457277298  0.14947344362735748  1.0000
  H   H1        1.0  0.7583822011947632  0.07920210808515549  0.7850537896156309  1.0000
  H   H2        1.0  0.7717353105545044  0.3318454623222351  0.9496879577636719  1.0000
  O   O1        1.0  0.7776897549629211  0.008520395494997501  0.8806918263435364  1.0000
  O   O2        1.0  0.5599350333213806  0.4256933927536011  0.6936064958572388  1.0000
  O   O3        1.0  0.26616141200065613  0.8494028449058533  0.8571721315383911  1.0000
  O   O4        1.0  0.2680620849132538  0.4728816747665405  0.27106305956840515  1.0000
  Sr  Sr1       1.0  0.26799464225769043  0.9362755417823792  0.6527798175811768  1.0000
  Sr  Sr2       1.0  0.9707765579223633  0.47698846459388733  0.3129199743270874  1.0000
  Sr  Sr3       1.0  0.7573965191841125  0.8689048290252686  0.5282020568847656  1.0000
  Sr  Sr4       1.0  0.2570900619029999  0.3342980742454529  0.23595568537712097  1.0000
  Sr  Sr5       1.0  0.25999826192855835  0.481338232755661  0.8082183599472046  1.0000
  Sr  Sr6       1.0  0.25096455216407776  0.012988759204745293  0.7076854109764099  1.0000
  Sr  Sr7       1.0  0.2537529468536377  0.8555410504341125  0.14550776779651642  1.0000
  V   V1        1.0  0.7574881315231323  0.1837933510541916  0.43479597568511963  1.0000
