data_image0
_chemical_formula_structural       C2H3O7Sr4
_chemical_formula_sum              "C2 H3 O7 Sr4"
_cell_length_a       6.555718801835231
_cell_length_b       6.43767468853082
_cell_length_c       7.006263732910156
_cell_angle_alpha    62.84365641689071
_cell_angle_beta     67.74089505460472
_cell_angle_gamma    67.27948536085309

_space_group_name_H-M_alt    "P 1"
_space_group_IT_number       1

loop_
  _space_group_symop_operation_xyz
  'x, y, z'

loop_
  _atom_site_type_symbol
  _atom_site_label
  _atom_site_symmetry_multiplicity
  _atom_site_fract_x
  _atom_site_fract_y
  _atom_site_fract_z
  _atom_site_occupancy
  C   C1        1.0  0.5218937993049622  0.4907084405422211  0.9049297571182252  1.0000
  C   C2        1.0  0.3198174834251404  0.9668055772781373  0.295868456363678  1.0000
  H   H1        1.0  0.8177753686904907  0.773491144180298  0.5114454627037048  1.0000
  H   H2        1.0  0.5060253739356995  0.7936388850212098  0.9502058625221254  1.0000
  H   H3        1.0  0.008273318409919702  0.744122862815857  0.38925802707672125  1.0000
  O   O1        1.0  0.14954005181789398  0.5564602613449097  0.5214207172393799  1.0000
  O   O2        1.0  0.10320586711168288  0.4188821911811829  0.9259022474288942  1.0000
  O   O3        1.0  0.41287609934806824  0.24556912481784823  0.4049550294876099  1.0000
  O   O4        1.0  0.7587425112724304  0.4265271723270417  0.8292266130447389  1.0000
  O   O5        1.0  0.47791919112205505  0.8857151269912721  0.823898732662201  1.0000
  O   O6        1.0  0.6825292110443115  0.3361457586288452  0.2330066412687302  1.0000
  O   O7        1.0  0.984221339225769  0.058790765702724464  0.8354389667510987  1.0000
  Sr  Sr1       1.0  0.03268396854400631  0.9550930857658387  0.6001449227333069  1.0000
  Sr  Sr2       1.0  0.813470184803009  0.3634052574634552  0.1162962391972542  1.0000
  Sr  Sr3       1.0  0.7674204111099243  0.7558263540267945  0.6062790155410767  1.0000
  Sr  Sr4       1.0  0.16001558303833008  0.28487977385520935  0.004814844578504562  1.0000
