data_image0
_chemical_formula_structural       CuH5O4Sr6
_chemical_formula_sum              "Cu1 H5 O4 Sr6"
_cell_length_a       5.1965503542799585
_cell_length_b       5.910957581186419
_cell_length_c       8.679173469543457
_cell_angle_alpha    83.04795180797564
_cell_angle_beta     66.97317966907265
_cell_angle_gamma    63.9050899137407

_space_group_name_H-M_alt    "P 1"
_space_group_IT_number       1

loop_
  _space_group_symop_operation_xyz
  'x, y, z'

loop_
  _atom_site_type_symbol
  _atom_site_label
  _atom_site_symmetry_multiplicity
  _atom_site_fract_x
  _atom_site_fract_y
  _atom_site_fract_z
  _atom_site_occupancy
  Cu  Cu1       1.0  0.4189065098762512  0.031936321407556534  0.21407288312911985  1.0000
  H   H1        1.0  0.17332901060581207  0.04755468666553497  0.7908857464790344  1.0000
  H   H2        1.0  0.5941992402076721  0.09238845109939575  0.14437159895896914  1.0000
  H   H3        1.0  0.1652531921863556  0.4268110394477844  0.612660825252533  1.0000
  H   H4        1.0  0.43832162022590637  0.5216080546379089  0.19498935341835022  1.0000
  H   H5        1.0  0.6299390196800232  0.9081392288208008  0.13242617249488833  1.0000
  O   O1        1.0  0.9167237877845764  0.8886698484420776  0.3578045070171357  1.0000
  O   O2        1.0  0.13936959207057953  0.34854185581207275  0.7660474181175232  1.0000
  O   O3        1.0  0.37070390582084656  0.6495329737663269  0.9604267477989197  1.0000
  O   O4        1.0  0.8651931285858154  0.7635003924369812  0.9384523630142212  1.0000
  Sr  Sr1       1.0  0.6473821401596069  0.4826958179473877  0.8740993142127991  1.0000
  Sr  Sr2       1.0  0.6224043369293213  0.2644595801830292  0.003837193362414837  1.0000
  Sr  Sr3       1.0  0.14371944963932037  0.4906981885433197  0.319426566362381  1.0000
  Sr  Sr4       1.0  0.1243382915854454  0.293579638004303  0.13197332620620728  1.0000
  Sr  Sr5       1.0  0.9543778896331787  0.2739191949367523  0.6409108638763428  1.0000
  Sr  Sr6       1.0  0.4686405658721924  0.49799448251724243  0.7997188568115234  1.0000
