data_image0
_chemical_formula_structural       CCuH5O4SiSr4
_chemical_formula_sum              "C1 Cu1 H5 O4 Si1 Sr4"
_cell_length_a       4.943231637986832
_cell_length_b       5.170041030249936
_cell_length_c       7.756564617156982
_cell_angle_alpha    90.68218034712737
_cell_angle_beta     84.74390141440996
_cell_angle_gamma    81.82430765124742

_space_group_name_H-M_alt    "P 1"
_space_group_IT_number       1

loop_
  _space_group_symop_operation_xyz
  'x, y, z'

loop_
  _atom_site_type_symbol
  _atom_site_label
  _atom_site_symmetry_multiplicity
  _atom_site_fract_x
  _atom_site_fract_y
  _atom_site_fract_z
  _atom_site_occupancy
  C   C1        1.0  0.9648858904838562  0.0663914829492569  0.11330907046794893  1.0000
  Cu  Cu1       1.0  0.9637860059738159  0.626082181930542  0.7389385700225831  1.0000
  H   H1        1.0  0.4651857912540436  0.35174837708473206  0.08184254169464111  1.0000
  H   H2        1.0  0.46919479966163635  0.8922961354255675  0.22544436156749728  1.0000
  H   H3        1.0  0.47226619720458984  0.23465403914451596  0.19033807516098025  1.0000
  H   H4        1.0  0.420543909072876  0.5811460614204407  0.9742136001586915  1.0000
  H   H5        1.0  0.7365885376930237  0.943541646003723  0.644023597240448  1.0000
  O   O1        1.0  0.32981574535369873  0.5958799719810486  0.3800871074199677  1.0000
  O   O2        1.0  0.3822798430919647  0.47830200195312494  0.023349225521087653  1.0000
  O   O3        1.0  0.24594230949878693  0.10396306216716765  0.7335216403007507  1.0000
  O   O4        1.0  0.3793715834617615  0.48509281873703  0.11607839167118074  1.0000
  Si  Si1       1.0  0.4664517343044281  0.4615319669246673  0.9062301516532899  1.0000
  Sr  Sr1       1.0  0.4578293561935425  0.9169253110885619  0.4991486966609955  1.0000
  Sr  Sr2       1.0  0.9667303562164307  0.7079548835754395  0.8238728642463685  1.0000
  Sr  Sr3       1.0  0.9654422402381897  0.305705189704895  0.19787721335887912  1.0000
  Sr  Sr4       1.0  0.9642281532287598  0.17407377064228058  0.36156702041625977  1.0000
