data_image0
_chemical_formula_structural       H7O7PSr
_chemical_formula_sum              "H7 O7 P1 Sr1"
_cell_length_a       5.7620762728964365
_cell_length_b       5.484204335560456
_cell_length_c       8.007759094238281
_cell_angle_alpha    89.28324565266908
_cell_angle_beta     89.54995026559214
_cell_angle_gamma    89.39224976313189

_space_group_name_H-M_alt    "P 1"
_space_group_IT_number       1

loop_
  _space_group_symop_operation_xyz
  'x, y, z'

loop_
  _atom_site_type_symbol
  _atom_site_label
  _atom_site_symmetry_multiplicity
  _atom_site_fract_x
  _atom_site_fract_y
  _atom_site_fract_z
  _atom_site_occupancy
  H   H1        1.0  0.6893818378448486  0.3483220040798187  0.9078441262245178  1.0000
  H   H2        1.0  0.26610371470451355  0.5977669954299927  0.2880224883556366  1.0000
  H   H3        1.0  0.09073211252689362  0.45532968640327454  0.04791741073131561  1.0000
  H   H4        1.0  0.42559474706649786  0.9610843062400817  0.2268071174621582  1.0000
  H   H5        1.0  0.16407887637615204  0.6599507331848145  0.3326930105686188  1.0000
  H   H6        1.0  0.15824128687381744  0.5221841931343079  0.4011146128177643  1.0000
  H   H7        1.0  0.25655996799468994  0.6355792880058289  0.3202532231807709  1.0000
  O   O1        1.0  0.6438881754875183  0.7008029222488403  0.1952514499425888  1.0000
  O   O2        1.0  0.6074272394180298  0.194976344704628  0.3262370228767395  1.0000
  O   O3        1.0  0.15385477244853973  0.06886884570121765  0.9465938806533813  1.0000
  O   O4        1.0  0.5090909004211426  0.8316746950149536  0.557088315486908  1.0000
  O   O5        1.0  0.0656275525689125  0.5592264533042908  0.6199338436126709  1.0000
  O   O6        1.0  0.1416076123714447  0.028238575905561447  0.37094467878341675  1.0000
  O   O7        1.0  0.8641822934150696  0.8683986067771912  0.16529452800750732  1.0000
  P   P1        1.0  0.017846232280135155  0.25727277994155884  0.8938335180282593  1.0000
  Sr  Sr1       1.0  0.6017228960990906  0.4355028569698334  0.6852092742919922  1.0000
