data_image0
_chemical_formula_structural       CH5O8PSr
_chemical_formula_sum              "C1 H5 O8 P1 Sr1"
_cell_length_a       6.552218485192616
_cell_length_b       6.544859671547227
_cell_length_c       7.367883205413818
_cell_angle_alpha    65.02353011801188
_cell_angle_beta     66.19761266835711
_cell_angle_gamma    61.94811891608812

_space_group_name_H-M_alt    "P 1"
_space_group_IT_number       1

loop_
  _space_group_symop_operation_xyz
  'x, y, z'

loop_
  _atom_site_type_symbol
  _atom_site_label
  _atom_site_symmetry_multiplicity
  _atom_site_fract_x
  _atom_site_fract_y
  _atom_site_fract_z
  _atom_site_occupancy
  C   C1        1.0  0.3801448345184326  0.3664565980434418  0.5110201239585876  1.0000
  H   H1        1.0  0.9871609807014464  0.11396466195583344  0.8418495655059814  1.0000
  H   H2        1.0  0.6706852912902832  0.2624005973339081  0.47318720817565924  1.0000
  H   H3        1.0  0.2408093065023422  0.22180671989917755  0.5718739032745361  1.0000
  H   H4        1.0  0.8728820085525512  0.4406610429286957  0.251286655664444  1.0000
  H   H5        1.0  0.49135959148406977  0.5635619759559631  0.1590791940689087  1.0000
  O   O1        1.0  0.15489278733730316  0.17475436627864838  0.19074492156505585  1.0000
  O   O2        1.0  0.05389205738902091  0.9154186844825745  0.589432954788208  1.0000
  O   O3        1.0  0.9407202005386351  0.699330747127533  0.8770104646682739  1.0000
  O   O4        1.0  0.2298283278942108  0.03600553050637245  0.8529636859893799  1.0000
  O   O5        1.0  0.7775611877441406  0.5593502521514893  0.395298033952713  1.0000
  O   O6        1.0  0.5160242319107056  0.1890971064567566  0.6130518913269043  1.0000
  O   O7        1.0  0.748903214931488  0.0756082683801651  0.4650944173336029  1.0000
  O   O8        1.0  0.7266518473625183  0.7990031838417053  0.42916998267173767  1.0000
  P   P1        1.0  0.7278721332550049  0.40653255581855774  0.6770747303962708  1.0000
  Sr  Sr1       1.0  0.32617518305778503  0.450628399848938  0.18369054794311523  1.0000
