data_image0
_chemical_formula_structural       BaNi5ZnZr3
_chemical_formula_sum              "Ba1 Ni5 Zn1 Zr3"
_cell_length_a       5.726911659383896
_cell_length_b       5.838068960848633
_cell_length_c       6.113511562347412
_cell_angle_alpha    62.30884222172343
_cell_angle_beta     62.805111315079515
_cell_angle_gamma    60.82889132705013

_space_group_name_H-M_alt    "P 1"
_space_group_IT_number       1

loop_
  _space_group_symop_operation_xyz
  'x, y, z'

loop_
  _atom_site_type_symbol
  _atom_site_label
  _atom_site_symmetry_multiplicity
  _atom_site_fract_x
  _atom_site_fract_y
  _atom_site_fract_z
  _atom_site_occupancy
  Ba  Ba1       1.0  0.5007488131523132  0.8937546610832214  0.4715690612792969  1.0000
  Ni  Ni1       1.0  0.21523256599903107  0.23432520031929016  0.47460657358169556  1.0000
  Ni  Ni2       1.0  0.18701526522636414  0.33773425221443176  0.7357282042503357  1.0000
  Ni  Ni3       1.0  0.7068709135055542  0.7664203643798828  0.47361311316490184  1.0000
  Ni  Ni4       1.0  0.16180549561977386  0.8890524506568909  0.9761778712272644  1.0000
  Ni  Ni5       1.0  0.5080177187919617  0.39914995431900024  0.08742532879114151  1.0000
  Zn  Zn1       1.0  0.7311630845069885  0.651062548160553  0.4718519449234009  1.0000
  Zr  Zr1       1.0  0.7293997406959534  0.4181206524372101  0.9756595492362976  1.0000
  Zr  Zr2       1.0  0.22132575511932373  0.2334032654762268  0.4760790169239044  1.0000
  Zr  Zr3       1.0  0.15387214720249176  0.38426393270492554  0.6997299194335938  1.0000
