data_image0
_chemical_formula_structural       Ni5SScZnZr2
_chemical_formula_sum              "Ni5 S1 Sc1 Zn1 Zr2"
_cell_length_a       5.695525905488234
_cell_length_b       5.8138055096416945
_cell_length_c       6.343228340148926
_cell_angle_alpha    60.95649800765905
_cell_angle_beta     60.61897300661701
_cell_angle_gamma    60.120014888921276

_space_group_name_H-M_alt    "P 1"
_space_group_IT_number       1

loop_
  _space_group_symop_operation_xyz
  'x, y, z'

loop_
  _atom_site_type_symbol
  _atom_site_label
  _atom_site_symmetry_multiplicity
  _atom_site_fract_x
  _atom_site_fract_y
  _atom_site_fract_z
  _atom_site_occupancy
  Ni  Ni1       1.0  0.7101911902427673  0.5599145889282227  0.8633732795715332  1.0000
  Ni  Ni2       1.0  0.2051350176334381  0.5775332450866699  0.18065327405929565  1.0000
  Ni  Ni3       1.0  0.7283855080604553  0.5660357475280762  0.46440136432647705  1.0000
  Ni  Ni4       1.0  0.17134322226047516  0.3433305621147156  0.46503034234046936  1.0000
  Ni  Ni5       1.0  0.46301349997520447  0.8444605469703674  0.1840253621339798  1.0000
  S   S1        1.0  0.4292602837085724  0.3402538299560547  0.6140036582946777  1.0000
  Sc  Sc1       1.0  0.7459190487861633  0.303684800863266  0.9794085025787354  1.0000
  Zn  Zn1       1.0  0.18231536448001862  0.3661198616027832  0.8751125931739807  1.0000
  Zr  Zr1       1.0  0.7336357235908508  0.05740310624241829  0.6349284648895264  1.0000
  Zr  Zr2       1.0  0.1873181015253067  0.05455731973052025  0.5757139921188354  1.0000
