data_image0
_chemical_formula_structural       H2Ni4Zr4
_chemical_formula_sum              "H2 Ni4 Zr4"
_cell_length_a       4.985194810682569
_cell_length_b       5.318093563671314
_cell_length_c       5.14253568649292
_cell_angle_alpha    61.966033821000515
_cell_angle_beta     60.15071913263734
_cell_angle_gamma    59.29227430914027

_space_group_name_H-M_alt    "P 1"
_space_group_IT_number       1

loop_
  _space_group_symop_operation_xyz
  'x, y, z'

loop_
  _atom_site_type_symbol
  _atom_site_label
  _atom_site_symmetry_multiplicity
  _atom_site_fract_x
  _atom_site_fract_y
  _atom_site_fract_z
  _atom_site_occupancy
  H   H1        1.0  0.4863957166671753  0.6027016639709473  0.08970687538385391  1.0000
  H   H2        1.0  0.44635191559791565  0.8632805943489075  0.8304570913314819  1.0000
  Ni  Ni1       1.0  0.9183652400970459  0.49447438120841986  0.01415380090475091  1.0000
  Ni  Ni2       1.0  0.5487637519836426  0.09215334057807922  0.5629096031188965  1.0000
  Ni  Ni3       1.0  0.8128832578659058  0.8685425519943237  0.40273311734199524  1.0000
  Ni  Ni4       1.0  0.2699130177497864  0.3396293818950653  0.6807288527488708  1.0000
  Zr  Zr1       1.0  0.8094640970230103  0.13986597955226898  0.6937536001205444  1.0000
  Zr  Zr2       1.0  0.9068864583969116  0.4303406774997711  0.44626688957214355  1.0000
  Zr  Zr3       1.0  0.278978168964386  0.10645432025194168  0.07323619723320007  1.0000
  Zr  Zr4       1.0  0.29367595911026  0.4586772322654724  0.795135498046875  1.0000
