data_image0
_chemical_formula_structural       H2Ni5Zr3
_chemical_formula_sum              "H2 Ni5 Zr3"
_cell_length_a       5.116956606897982
_cell_length_b       5.648289247397159
_cell_length_c       6.142472267150879
_cell_angle_alpha    66.46509034956499
_cell_angle_beta     62.56411722026356
_cell_angle_gamma    61.005012483437916

_space_group_name_H-M_alt    "P 1"
_space_group_IT_number       1

loop_
  _space_group_symop_operation_xyz
  'x, y, z'

loop_
  _atom_site_type_symbol
  _atom_site_label
  _atom_site_symmetry_multiplicity
  _atom_site_fract_x
  _atom_site_fract_y
  _atom_site_fract_z
  _atom_site_occupancy
  H   H1        1.0  0.6533228754997253  0.5853179097175598  0.22676175832748413  1.0000
  H   H2        1.0  0.6439675092697144  0.25780850648880005  0.33493444323539734  1.0000
  Ni  Ni1       1.0  0.5193325877189636  0.8490381836891174  0.10242810100317001  1.0000
  Ni  Ni2       1.0  0.6695107817649841  0.6224326491355896  0.2951911985874176  1.0000
  Ni  Ni3       1.0  0.9439838528633118  0.09553263336420059  0.821447491645813  1.0000
  Ni  Ni4       1.0  0.32301872968673706  0.5956301093101501  0.02657075598835945  1.0000
  Ni  Ni5       1.0  0.6898800730705261  0.10315217822790146  0.6006422638893127  1.0000
  Zr  Zr1       1.0  0.3198602497577667  0.08998139202594757  0.8419807553291321  1.0000
  Zr  Zr2       1.0  0.013068927451968193  0.852561354637146  0.6076027750968933  1.0000
  Zr  Zr3       1.0  0.0061931610107421875  0.34976720809936523  0.2922222912311554  1.0000
