data_image0
_chemical_formula_structural       H2Ni4ScZr3
_chemical_formula_sum              "H2 Ni4 Sc1 Zr3"
_cell_length_a       4.838142249121548
_cell_length_b       5.188279973210483
_cell_length_c       5.382266998291016
_cell_angle_alpha    62.378129734833884
_cell_angle_beta     60.43709045461846
_cell_angle_gamma    59.707213952485965

_space_group_name_H-M_alt    "P 1"
_space_group_IT_number       1

loop_
  _space_group_symop_operation_xyz
  'x, y, z'

loop_
  _atom_site_type_symbol
  _atom_site_label
  _atom_site_symmetry_multiplicity
  _atom_site_fract_x
  _atom_site_fract_y
  _atom_site_fract_z
  _atom_site_occupancy
  H   H1        1.0  0.3124728202819824  0.19082120060920715  0.6287517547607422  1.0000
  H   H2        1.0  0.9200296998023987  0.7118805646896362  0.6248738169670106  1.0000
  Ni  Ni1       1.0  0.756097137928009  0.2972413897514343  0.3576507866382599  1.0000
  Ni  Ni2       1.0  0.5373113751411438  0.45562660694122314  0.17824742197990417  1.0000
  Ni  Ni3       1.0  0.26296597719192505  0.1224408820271492  0.8893210887908936  1.0000
  Ni  Ni4       1.0  0.7816587090492249  0.7943088412284851  0.020414231345057487  1.0000
  Sc  Sc1       1.0  0.22483867406845093  0.373614639043808  0.29229646921157837  1.0000
  Zr  Zr1       1.0  0.2719018757343292  0.8058201670646667  0.9334049224853517  1.0000
  Zr  Zr2       1.0  0.5375613570213318  0.024744823575019836  0.6364712119102478  1.0000
  Zr  Zr3       1.0  0.7875773310661316  0.15879634022712708  0.3953983485698701  1.0000
