data_image0
_chemical_formula_structural       BaPr8Zn2
_chemical_formula_sum              "Ba1 Pr8 Zn2"
_cell_length_a       5.260319017531824
_cell_length_b       8.275414202947298
_cell_length_c       8.53427505493164
_cell_angle_alpha    121.46250375783941
_cell_angle_beta     91.88908176925383
_cell_angle_gamma    88.66690760090685

_space_group_name_H-M_alt    "P 1"
_space_group_IT_number       1

loop_
  _space_group_symop_operation_xyz
  'x, y, z'

loop_
  _atom_site_type_symbol
  _atom_site_label
  _atom_site_symmetry_multiplicity
  _atom_site_fract_x
  _atom_site_fract_y
  _atom_site_fract_z
  _atom_site_occupancy
  Ba  Ba1       1.0  0.24582931399345398  0.9653014540672301  0.4743603467941284  1.0000
  Pr  Pr1       1.0  0.7453978061676025  0.003324334044009447  0.34260645508766174  1.0000
  Pr  Pr2       1.0  0.7434712648391724  0.9851258993148803  0.9325516223907471  1.0000
  Pr  Pr3       1.0  0.2414526343345642  0.6704316139221191  0.5746800303459167  1.0000
  Pr  Pr4       1.0  0.7440025806427002  0.2543453574180603  0.5156241059303284  1.0000
  Pr  Pr5       1.0  0.7448235154151917  0.9925538301467894  0.9993233680725098  1.0000
  Pr  Pr6       1.0  0.24847231805324554  0.20570774376392365  0.3059825599193573  1.0000
  Pr  Pr7       1.0  0.24363477528095245  0.45595699548721313  0.10645833611488342  1.0000
  Pr  Pr8       1.0  0.7440229654312134  0.5149642825126648  0.5519283413887024  1.0000
  Zn  Zn1       1.0  0.2350846827030182  0.6419306397438049  0.6620893478393555  1.0000
  Zn  Zn2       1.0  0.7349880337715149  0.32200953364372253  0.6461060643196106  1.0000
