data_image0
_chemical_formula_structural       BaClPPr6Zn2
_chemical_formula_sum              "Ba1 Cl1 P1 Pr6 Zn2"
_cell_length_a       5.399749922316532
_cell_length_b       8.288297157677881
_cell_length_c       8.471048355102539
_cell_angle_alpha    120.60439368664822
_cell_angle_beta     89.94978483869902
_cell_angle_gamma    87.27251670577583

_space_group_name_H-M_alt    "P 1"
_space_group_IT_number       1

loop_
  _space_group_symop_operation_xyz
  'x, y, z'

loop_
  _atom_site_type_symbol
  _atom_site_label
  _atom_site_symmetry_multiplicity
  _atom_site_fract_x
  _atom_site_fract_y
  _atom_site_fract_z
  _atom_site_occupancy
  Ba  Ba1       1.0  0.2543555796146393  0.6431616544723511  0.09485854208469402  1.0000
  Cl  Cl1       1.0  0.7735527157783508  0.5366387367248535  0.18483269214630133  1.0000
  P   P1        1.0  0.7665897607803345  0.9059393405914308  0.7691432237625123  1.0000
  Pr  Pr1       1.0  0.7822531461715698  0.769761621952057  0.46285572648048406  1.0000
  Pr  Pr2       1.0  0.27794349193573  0.2621297836303711  0.8682247996330261  1.0000
  Pr  Pr3       1.0  0.28188034892082214  0.018083281815052032  0.43741533160209656  1.0000
  Pr  Pr4       1.0  0.269469678401947  0.822307050228119  0.37272831797599804  1.0000
  Pr  Pr5       1.0  0.7789060473442078  0.19825866818428042  0.3955587148666382  1.0000
  Pr  Pr6       1.0  0.7880626320838928  0.2551191747188568  0.24951116740703583  1.0000
  Zn  Zn1       1.0  0.7789523601531982  0.9294365644454957  0.7266978621482849  1.0000
  Zn  Zn2       1.0  0.2802630066871643  0.7725258469581605  0.4254103004932404  1.0000
