data_image0
_chemical_formula_structural       Pr7Zn4
_chemical_formula_sum              "Pr7 Zn4"
_cell_length_a       5.658361505122563
_cell_length_b       8.890703369907813
_cell_length_c       8.923296928405762
_cell_angle_alpha    117.90515825650147
_cell_angle_beta     89.2919246618978
_cell_angle_gamma    88.73117428204733

_space_group_name_H-M_alt    "P 1"
_space_group_IT_number       1

loop_
  _space_group_symop_operation_xyz
  'x, y, z'

loop_
  _atom_site_type_symbol
  _atom_site_label
  _atom_site_symmetry_multiplicity
  _atom_site_fract_x
  _atom_site_fract_y
  _atom_site_fract_z
  _atom_site_occupancy
  Pr  Pr1       1.0  0.7578527927398682  0.7071049213409424  0.8559795022010803  1.0000
  Pr  Pr2       1.0  0.7646316885948181  0.36236658692359924  0.18054039776325223  1.0000
  Pr  Pr3       1.0  0.27304938435554504  0.5406259894371033  0.9963464140892029  1.0000
  Pr  Pr4       1.0  0.5672605633735657  0.28091713786125183  0.8699352741241454  1.0000
  Pr  Pr5       1.0  0.2587752938270569  0.4759523272514343  0.8328837156295775  1.0000
  Pr  Pr6       1.0  0.7367485761642456  0.014748556539416313  0.39366161823272705  1.0000
  Pr  Pr7       1.0  0.7620691657066345  0.261621356010437  0.49523869156837463  1.0000
  Zn  Zn1       1.0  0.2680801451206207  0.3376140892505646  0.5981428027153015  1.0000
  Zn  Zn2       1.0  0.7565032839775085  0.8161715865135193  0.3497230112552642  1.0000
  Zn  Zn3       1.0  0.27528998255729675  0.22238340973854065  0.2073623538017273  1.0000
  Zn  Zn4       1.0  0.012214324437081814  0.9833885431289673  0.1697494238615035  1.0000
