data_image0
_chemical_formula_structural       Pr3PtRuSn4Zn2
_chemical_formula_sum              "Pr3 Pt1 Ru1 Sn4 Zn2"
_cell_length_a       5.532186895985045
_cell_length_b       8.21429558967237
_cell_length_c       8.334707260131836
_cell_angle_alpha    122.48028559976248
_cell_angle_beta     91.00135658584746
_cell_angle_gamma    89.29769122099722

_space_group_name_H-M_alt    "P 1"
_space_group_IT_number       1

loop_
  _space_group_symop_operation_xyz
  'x, y, z'

loop_
  _atom_site_type_symbol
  _atom_site_label
  _atom_site_symmetry_multiplicity
  _atom_site_fract_x
  _atom_site_fract_y
  _atom_site_fract_z
  _atom_site_occupancy
  Pr  Pr1       1.0  0.2641145586967468  0.2279779613018036  0.9323038458824158  1.0000
  Pr  Pr2       1.0  0.7641897797584534  0.2771696448326111  0.6643505692481995  1.0000
  Pr  Pr3       1.0  0.7568175196647644  0.7196349501609802  0.08557324111461645  1.0000
  Pt  Pt1       1.0  0.2714870870113373  0.034987058490514755  0.7479755878448486  1.0000
  Ru  Ru1       1.0  0.26705995202064514  0.21538682281970978  0.4520396888256073  1.0000
  Sn  Sn1       1.0  0.262616366147995  0.10521051287651062  0.6116469502449036  1.0000
  Sn  Sn2       1.0  0.25371792912483215  0.8090682625770569  0.12194561213254934  1.0000
  Sn  Sn3       1.0  0.267886221408844  0.2557072639465332  0.4558399021625519  1.0000
  Sn  Sn4       1.0  0.7677550315856934  0.4929937720298767  0.9341591000556946  1.0000
  Zn  Zn1       1.0  0.7545198202133179  0.31940117478370667  0.6119335293769836  1.0000
  Zn  Zn2       1.0  0.7646563053131104  0.35030487179756165  0.22837264835834503  1.0000
