data_image0
_chemical_formula_structural       PrPtRuSn6Zn2
_chemical_formula_sum              "Pr1 Pt1 Ru1 Sn6 Zn2"
_cell_length_a       5.039502041086636
_cell_length_b       7.775264645158557
_cell_length_c       7.855284690856934
_cell_angle_alpha    120.70103270953304
_cell_angle_beta     91.06764697509058
_cell_angle_gamma    87.44106849092854

_space_group_name_H-M_alt    "P 1"
_space_group_IT_number       1

loop_
  _space_group_symop_operation_xyz
  'x, y, z'

loop_
  _atom_site_type_symbol
  _atom_site_label
  _atom_site_symmetry_multiplicity
  _atom_site_fract_x
  _atom_site_fract_y
  _atom_site_fract_z
  _atom_site_occupancy
  Pr  Pr1       1.0  0.9112310409545898  0.8372482657432556  0.7063984274864198  1.0000
  Pt  Pt1       1.0  0.41851475834846497  0.9772723913192749  0.7380978465080263  1.0000
  Ru  Ru1       1.0  0.4066729247570038  0.48413315415382385  0.5750479698181152  1.0000
  Sn  Sn1       1.0  0.40987610816955566  0.430780291557312  0.8387962579727174  1.0000
  Sn  Sn2       1.0  0.9111923575401306  0.21365903317928314  0.1308855414390564  1.0000
  Sn  Sn3       1.0  0.41528162360191345  0.3278403878211975  0.21729902923107153  1.0000
  Sn  Sn4       1.0  0.4048042893409729  0.8258628249168396  0.7731218934059144  1.0000
  Sn  Sn5       1.0  0.9137852787971497  0.8382686376571655  0.5843631029129028  1.0000
  Sn  Sn6       1.0  0.9163230657577515  0.35355156660079956  0.7372835278511048  1.0000
  Zn  Zn1       1.0  0.39783117175102234  0.20005176961421967  0.20229418575763705  1.0000
  Zn  Zn2       1.0  0.6741451621055603  0.4840916395187378  0.1890770345926285  1.0000
