data_image0
_chemical_formula_structural       CsLuPPr7Zn
_chemical_formula_sum              "Cs1 Lu1 P1 Pr7 Zn1"
_cell_length_a       5.364060044699088
_cell_length_b       8.48433867224644
_cell_length_c       8.590510368347168
_cell_angle_alpha    119.37173622567305
_cell_angle_beta     89.98789980840891
_cell_angle_gamma    90.5405304700011

_space_group_name_H-M_alt    "P 1"
_space_group_IT_number       1

loop_
  _space_group_symop_operation_xyz
  'x, y, z'

loop_
  _atom_site_type_symbol
  _atom_site_label
  _atom_site_symmetry_multiplicity
  _atom_site_fract_x
  _atom_site_fract_y
  _atom_site_fract_z
  _atom_site_occupancy
  Cs  Cs1       1.0  0.479466050863266  0.3335137367248535  0.8931067585945129  1.0000
  Lu  Lu1       1.0  0.4757251441478729  0.8209955096244812  0.8123178482055664  1.0000
  P   P1        1.0  0.47663071751594543  0.33369946479797363  0.9823881983757019  1.0000
  Pr  Pr1       1.0  0.4746416211128235  0.828372597694397  0.11279273033142084  1.0000
  Pr  Pr2       1.0  0.9796718955039978  0.2613028585910797  0.8878471851348877  1.0000
  Pr  Pr3       1.0  0.9760005474090576  0.8249441385269165  0.414728969335556  1.0000
  Pr  Pr4       1.0  0.9808560609817505  0.6932045817375183  0.4005360007286072  1.0000
  Pr  Pr5       1.0  0.9839523434638976  0.05797725915908813  0.9407678842544556  1.0000
  Pr  Pr6       1.0  0.9808166027069092  0.4028109014034271  0.7803919911384583  1.0000
  Pr  Pr7       1.0  0.9805324077606201  0.8274502754211426  0.5908403396606445  1.0000
  Zn  Zn1       1.0  0.4727780520915985  0.8257465362548828  0.21716034412384033  1.0000
