data_image0
_chemical_formula_structural       In3Sr3
_chemical_formula_sum              "In3 Sr3"
_cell_length_a       4.798200143531442
_cell_length_b       5.2003720988141495
_cell_length_c       7.918290138244629
_cell_angle_alpha    89.21268437639569
_cell_angle_beta     89.9957712089007
_cell_angle_gamma    118.00012968229728

_space_group_name_H-M_alt    "P 1"
_space_group_IT_number       1

loop_
  _space_group_symop_operation_xyz
  'x, y, z'

loop_
  _atom_site_type_symbol
  _atom_site_label
  _atom_site_symmetry_multiplicity
  _atom_site_fract_x
  _atom_site_fract_y
  _atom_site_fract_z
  _atom_site_occupancy
  In  In1       1.0  0.7071354985237122  0.5214759707450867  0.5438332557678223  1.0000
  In  In2       1.0  0.24223189055919647  0.24826030433177948  0.7148810625076294  1.0000
  In  In3       1.0  0.31211328506469727  0.7557583451271057  0.19994083046913147  1.0000
  Sr  Sr1       1.0  0.7356666326522827  0.9288924336433411  0.04367978498339653  1.0000
  Sr  Sr2       1.0  0.6943336725234985  0.5331307053565979  0.6071913838386536  1.0000
  Sr  Sr3       1.0  0.7177709937095642  0.38363736867904663  0.3074646592140198  1.0000
