data_image0
_chemical_formula_structural       In2PSr3
_chemical_formula_sum              "In2 P1 Sr3"
_cell_length_a       4.702445271584167
_cell_length_b       5.19851597537918
_cell_length_c       8.320292472839355
_cell_angle_alpha    89.2497857241571
_cell_angle_beta     90.8258893289837
_cell_angle_gamma    122.16478202147766

_space_group_name_H-M_alt    "P 1"
_space_group_IT_number       1

loop_
  _space_group_symop_operation_xyz
  'x, y, z'

loop_
  _atom_site_type_symbol
  _atom_site_label
  _atom_site_symmetry_multiplicity
  _atom_site_fract_x
  _atom_site_fract_y
  _atom_site_fract_z
  _atom_site_occupancy
  In  In1       1.0  0.3930016756057739  0.3958781361579895  0.30351942777633667  1.0000
  In  In2       1.0  0.0035570641048252583  0.38639575242996216  0.571061372756958  1.0000
  P   P1        1.0  0.7004015445709229  0.38481396436691284  0.06442674994468689  1.0000
  Sr  Sr1       1.0  0.7190499901771545  0.09259519726037979  0.5715371370315552  1.0000
  Sr  Sr2       1.0  0.7264525890350342  0.09523168951272964  0.09062321484088898  1.0000
  Sr  Sr3       1.0  0.24283850193023682  0.8369371294975281  0.5732318758964539  1.0000
