data_image0
_chemical_formula_structural       In2Sr4
_chemical_formula_sum              "In2 Sr4"
_cell_length_a       4.3503296458143454
_cell_length_b       5.522184984343323
_cell_length_c       6.751448631286621
_cell_angle_alpha    91.80313195709078
_cell_angle_beta     91.3979725967663
_cell_angle_gamma    88.89843182254997

_space_group_name_H-M_alt    "P 1"
_space_group_IT_number       1

loop_
  _space_group_symop_operation_xyz
  'x, y, z'

loop_
  _atom_site_type_symbol
  _atom_site_label
  _atom_site_symmetry_multiplicity
  _atom_site_fract_x
  _atom_site_fract_y
  _atom_site_fract_z
  _atom_site_occupancy
  In  In1       1.0  0.5696629881858826  0.5669892430305481  0.5007724165916443  1.0000
  In  In2       1.0  0.5760103464126587  0.7430210113525391  0.01635541953146457  1.0000
  Sr  Sr1       1.0  0.5633934140205383  0.0750618427991867  0.25162598490715027  1.0000
  Sr  Sr2       1.0  0.07264039665460587  0.4576738178730011  0.755493938922882  1.0000
  Sr  Sr3       1.0  0.06510600447654724  0.10475129634141922  0.008935308083891869  1.0000
  Sr  Sr4       1.0  0.071599580347538  0.9712055325508118  0.3479380905628204  1.0000
