data_image0
_chemical_formula_structural       In3RhSr2
_chemical_formula_sum              "In3 Rh1 Sr2"
_cell_length_a       5.1239498032915085
_cell_length_b       5.42565626415422
_cell_length_c       5.334801197052002
_cell_angle_alpha    64.11785692780587
_cell_angle_beta     62.83489940539778
_cell_angle_gamma    62.70544456613603

_space_group_name_H-M_alt    "P 1"
_space_group_IT_number       1

loop_
  _space_group_symop_operation_xyz
  'x, y, z'

loop_
  _atom_site_type_symbol
  _atom_site_label
  _atom_site_symmetry_multiplicity
  _atom_site_fract_x
  _atom_site_fract_y
  _atom_site_fract_z
  _atom_site_occupancy
  In  In1       1.0  0.9130448698997498  0.3913393020629883  0.8818688988685608  1.0000
  In  In2       1.0  0.4207403063774109  0.39852774143218994  0.455717533826828  1.0000
  In  In3       1.0  0.9160547852516174  0.6607246994972229  0.954610288143158  1.0000
  Rh  Rh1       1.0  0.871157705783844  0.11999097466468811  0.7132579684257507  1.0000
  Sr  Sr1       1.0  0.40396803617477417  0.6117944121360779  0.940688967704773  1.0000
  Sr  Sr2       1.0  0.8891077041625977  0.9044036865234375  0.3401310443878174  1.0000
