data_image0
_chemical_formula_structural       FeINi4PY2Zr
_chemical_formula_sum              "Fe1 I1 Ni4 P1 Y2 Zr1"
_cell_length_a       4.354510880645264
_cell_length_b       4.5345135910433525
_cell_length_c       10.515811920166016
_cell_angle_alpha    90.49125991537069
_cell_angle_beta     89.56914204221265
_cell_angle_gamma    71.09412035913121

_space_group_name_H-M_alt    "P 1"
_space_group_IT_number       1

loop_
  _space_group_symop_operation_xyz
  'x, y, z'

loop_
  _atom_site_type_symbol
  _atom_site_label
  _atom_site_symmetry_multiplicity
  _atom_site_fract_x
  _atom_site_fract_y
  _atom_site_fract_z
  _atom_site_occupancy
  Fe  Fe1       1.0  0.68573397397995  0.49777525663375854  0.9825012683868408  1.0000
  I   I1        1.0  0.6673073172569275  0.329475462436676  0.37528252601623535  1.0000
  Ni  Ni1       1.0  0.42098569869995117  0.5759612917900085  0.8937116861343384  1.0000
  Ni  Ni2       1.0  0.07787264138460159  0.581032395362854  0.8780552744865417  1.0000
  Ni  Ni3       1.0  0.9337011575698853  0.3140542209148407  0.6508176326751709  1.0000
  Ni  Ni4       1.0  0.7659345865249634  0.04167685657739639  0.11074202507734299  1.0000
  P   P1        1.0  0.9852322936058044  0.9445155262947083  0.1583075374364853  1.0000
  Y   Y1        1.0  0.3830871880054474  0.3820329010486603  0.6901616454124451  1.0000
  Y   Y2        1.0  0.38752081990242004  0.5885904431343079  0.3150550425052643  1.0000
  Zr  Zr1       1.0  0.6618452072143555  0.33174437284469604  0.8040459156036377  1.0000
