data_image0
_chemical_formula_structural       GaLi2Ni5PZr
_chemical_formula_sum              "Ga1 Li2 Ni5 P1 Zr1"
_cell_length_a       4.702421411838063
_cell_length_b       5.0214527298200595
_cell_length_c       6.372722148895264
_cell_angle_alpha    91.48303364964866
_cell_angle_beta     92.36408696031896
_cell_angle_gamma    86.54757958406687

_space_group_name_H-M_alt    "P 1"
_space_group_IT_number       1

loop_
  _space_group_symop_operation_xyz
  'x, y, z'

loop_
  _atom_site_type_symbol
  _atom_site_label
  _atom_site_symmetry_multiplicity
  _atom_site_fract_x
  _atom_site_fract_y
  _atom_site_fract_z
  _atom_site_occupancy
  Ga  Ga1       1.0  0.9599589705467224  0.3705897033214569  0.919658899307251  1.0000
  Li  Li1       1.0  0.9546025395393372  0.38383257389068604  0.28328025341033936  1.0000
  Li  Li2       1.0  0.5170971751213075  0.052734009921550744  0.8874572515487671  1.0000
  Ni  Ni1       1.0  0.483912855386734  0.731194019317627  0.7495436072349548  1.0000
  Ni  Ni2       1.0  0.02796008437871933  0.5347388982772827  0.2715422213077545  1.0000
  Ni  Ni3       1.0  0.46579116582870483  0.2540171146392822  0.900927722454071  1.0000
  Ni  Ni4       1.0  0.4985373616218567  0.6653542518615723  0.493507444858551  1.0000
  Ni  Ni5       1.0  0.5254406929016113  0.030555944889783856  0.8536166548728943  1.0000
  P   P1        1.0  0.9844602942466736  0.8392938375473021  0.6640114784240723  1.0000
  Zr  Zr1       1.0  0.512152910232544  0.9835522174835204  0.3105476200580597  1.0000
