data_image0
_chemical_formula_structural       CINi3PY3Zr
_chemical_formula_sum              "C1 I1 Ni3 P1 Y3 Zr1"
_cell_length_a       4.8220667779616635
_cell_length_b       6.621640557326763
_cell_length_c       7.034085750579834
_cell_angle_alpha    121.96453990330076
_cell_angle_beta     102.20715110667977
_cell_angle_gamma    91.78211583390541

_space_group_name_H-M_alt    "P 1"
_space_group_IT_number       1

loop_
  _space_group_symop_operation_xyz
  'x, y, z'

loop_
  _atom_site_type_symbol
  _atom_site_label
  _atom_site_symmetry_multiplicity
  _atom_site_fract_x
  _atom_site_fract_y
  _atom_site_fract_z
  _atom_site_occupancy
  C   C1        1.0  0.3599846363067627  0.1668837070465088  0.7857683897018434  1.0000
  I   I1        1.0  0.8694384694099426  0.2620355784893036  0.754151225090027  1.0000
  Ni  Ni1       1.0  0.16745330393314362  0.40519005060195923  0.7207824587821962  1.0000
  Ni  Ni2       1.0  0.8641461730003357  0.8608453869819641  0.5887402892112732  1.0000
  Ni  Ni3       1.0  0.6747012138366699  0.31934696435928345  0.8872982263565065  1.0000
  P   P1        1.0  0.3820089101791382  0.042480360716581345  0.6674232482910157  1.0000
  Y   Y1        1.0  0.8309995532035828  0.5869479775428772  0.16104973852634424  1.0000
  Y   Y2        1.0  0.3831500709056854  0.7197340726852417  0.5917598605155945  1.0000
  Y   Y3        1.0  0.3382801413536072  0.7424720525741577  0.5839105844497681  1.0000
  Zr  Zr1       1.0  0.34006306529045105  0.9493611454963683  0.057181108742952354  1.0000
