data_image0
_chemical_formula_structural       CNi3Y4Zr2
_chemical_formula_sum              "C1 Ni3 Y4 Zr2"
_cell_length_a       5.604231857688652
_cell_length_b       6.3416052074802565
_cell_length_c       6.555963039398193
_cell_angle_alpha    109.37759390847864
_cell_angle_beta     102.67776964741134
_cell_angle_gamma    102.85579370813113

_space_group_name_H-M_alt    "P 1"
_space_group_IT_number       1

loop_
  _space_group_symop_operation_xyz
  'x, y, z'

loop_
  _atom_site_type_symbol
  _atom_site_label
  _atom_site_symmetry_multiplicity
  _atom_site_fract_x
  _atom_site_fract_y
  _atom_site_fract_z
  _atom_site_occupancy
  C   C1        1.0  0.44351643323898315  0.3195122182369232  0.9746355414390564  1.0000
  Ni  Ni1       1.0  0.3568328022956848  0.21484576165676117  0.18752595782279968  1.0000
  Ni  Ni2       1.0  0.02225574105978012  0.952255129814148  0.9773657917976379  1.0000
  Ni  Ni3       1.0  0.48218584060668945  0.3750568628311157  0.4910115897655487  1.0000
  Y   Y1        1.0  0.8196831941604614  0.21983706951141357  0.6769014596939087  1.0000
  Y   Y2        1.0  0.28433987498283386  0.7106691598892212  0.02075231820344918  1.0000
  Y   Y3        1.0  0.42519626021385193  0.5349617600440979  0.9154011607170105  1.0000
  Y   Y4        1.0  0.9966649413108826  0.15552003681659698  0.7423030138015747  1.0000
  Zr  Zr1       1.0  0.732698380947113  0.7744240164756775  0.169668361544609  1.0000
  Zr  Zr2       1.0  0.006862254347652197  0.6319833993911743  0.09279019385576244  1.0000
