data_image0
_chemical_formula_structural       CNi3PY5
_chemical_formula_sum              "C1 Ni3 P1 Y5"
_cell_length_a       5.073151759983057
_cell_length_b       5.170299885734649
_cell_length_c       5.5014119148254395
_cell_angle_alpha    113.89323707743195
_cell_angle_beta     113.1544961939906
_cell_angle_gamma    86.66718419560918

_space_group_name_H-M_alt    "P 1"
_space_group_IT_number       1

loop_
  _space_group_symop_operation_xyz
  'x, y, z'

loop_
  _atom_site_type_symbol
  _atom_site_label
  _atom_site_symmetry_multiplicity
  _atom_site_fract_x
  _atom_site_fract_y
  _atom_site_fract_z
  _atom_site_occupancy
  C   C1        1.0  0.9128126502037048  0.5012871623039246  0.3916652798652649  1.0000
  Ni  Ni1       1.0  0.13471709191799164  0.167172372341156  0.34668445587158203  1.0000
  Ni  Ni2       1.0  0.42742425203323364  0.1456795483827591  0.2368929386138916  1.0000
  Ni  Ni3       1.0  0.1394827514886856  0.4240533113479614  0.7231460809707642  1.0000
  P   P1        1.0  0.3479127585887909  0.9139248132705688  0.0913020819425582  1.0000
  Y   Y1        1.0  0.9006978869438171  0.6296641230583191  0.42106372117996216  1.0000
  Y   Y2        1.0  0.6580690145492554  0.8894503712654114  0.7683200240135193  1.0000
  Y   Y3        1.0  0.39163869619369507  0.37181198596954346  0.8528942465782166  1.0000
  Y   Y4        1.0  0.35085421800613403  0.8698756694793701  0.07531358301639557  1.0000
  Y   Y5        1.0  0.7764011025428772  0.4863525629043579  0.45989954471588135  1.0000
