data_image0
_chemical_formula_structural       HNi2Y7
_chemical_formula_sum              "H1 Ni2 Y7"
_cell_length_a       6.735803957080235
_cell_length_b       5.936874292708576
_cell_length_c       5.7208051681518555
_cell_angle_alpha    111.26204145347644
_cell_angle_beta     109.43485377767328
_cell_angle_gamma    113.54876114820667

_space_group_name_H-M_alt    "P 1"
_space_group_IT_number       1

loop_
  _space_group_symop_operation_xyz
  'x, y, z'

loop_
  _atom_site_type_symbol
  _atom_site_label
  _atom_site_symmetry_multiplicity
  _atom_site_fract_x
  _atom_site_fract_y
  _atom_site_fract_z
  _atom_site_occupancy
  H   H1        1.0  0.7623483538627625  0.8314011693000793  0.3171793520450593  1.0000
  Ni  Ni1       1.0  0.33174219727516174  0.6545286774635315  0.8859731554985046  1.0000
  Ni  Ni2       1.0  0.9374001622200012  0.9665181040763855  0.08812878280878082  1.0000
  Y   Y1        1.0  0.29142051935195923  0.08433493226766586  0.6880991458892822  1.0000
  Y   Y2        1.0  0.2767252027988434  0.5106123089790344  0.2889669239521027  1.0000
  Y   Y3        1.0  0.8128502368927002  0.20732422173023224  0.20706938207149506  1.0000
  Y   Y4        1.0  0.9341850280761719  0.3462251126766205  0.06566458195447922  1.0000
  Y   Y5        1.0  0.7693512439727783  0.11268734186887741  0.9073619246482849  1.0000
  Y   Y6        1.0  0.8296673893928528  0.41829484701156616  0.9003734588623047  1.0000
  Y   Y7        1.0  0.7856223583221436  0.07892943918704987  0.2765234112739563  1.0000
