data_image0
_chemical_formula_structural       CrIInOSb4Si
_chemical_formula_sum              "Cr1 I1 In1 O1 Sb4 Si1"
_cell_length_a       6.133417239512731
_cell_length_b       6.337101907427353
_cell_length_c       8.68701457977295
_cell_angle_alpha    81.40364044307117
_cell_angle_beta     71.83445447563443
_cell_angle_gamma    61.90272240367344

_space_group_name_H-M_alt    "P 1"
_space_group_IT_number       1

loop_
  _space_group_symop_operation_xyz
  'x, y, z'

loop_
  _atom_site_type_symbol
  _atom_site_label
  _atom_site_symmetry_multiplicity
  _atom_site_fract_x
  _atom_site_fract_y
  _atom_site_fract_z
  _atom_site_occupancy
  Cr  Cr1       1.0  0.08915161341428757  0.7572458386421204  0.04023637995123863  1.0000
  I   I1        1.0  0.6040512323379517  0.5417582988739014  0.06564653664827347  1.0000
  In  In1       1.0  0.1137554347515106  0.17863595485687256  0.08682291954755783  1.0000
  O   O1        1.0  0.6334881782531738  0.8384717106819153  0.07272645831108093  1.0000
  Sb  Sb1       1.0  0.1097782179713249  0.7095597982406616  0.7974216341972351  1.0000
  Sb  Sb2       1.0  0.10771645605564116  0.3137279748916626  0.7812177538871765  1.0000
  Sb  Sb3       1.0  0.10108621418476105  0.08207986503839493  0.8067418336868286  1.0000
  Sb  Sb4       1.0  0.6224194169044495  0.17412161827087402  0.9869822859764099  1.0000
  Si  Si1       1.0  0.6274452209472656  0.3125172257423401  0.1688147634267807  1.0000
