data_image0
_chemical_formula_structural       Ca3Cr2HPb2Sb
_chemical_formula_sum              "Ca3 Cr2 H1 Pb2 Sb1"
_cell_length_a       5.638318054165521
_cell_length_b       5.738864661245035
_cell_length_c       11.171810150146484
_cell_angle_alpha    91.12053480554214
_cell_angle_beta     89.97662617183813
_cell_angle_gamma    108.0379833492255

_space_group_name_H-M_alt    "P 1"
_space_group_IT_number       1

loop_
  _space_group_symop_operation_xyz
  'x, y, z'

loop_
  _atom_site_type_symbol
  _atom_site_label
  _atom_site_symmetry_multiplicity
  _atom_site_fract_x
  _atom_site_fract_y
  _atom_site_fract_z
  _atom_site_occupancy
  Ca  Ca1       1.0  0.24879537522792816  0.307903915643692  0.7228139042854309  1.0000
  Ca  Ca2       1.0  0.48053213953971863  0.19441676139831543  0.414618968963623  1.0000
  Ca  Ca3       1.0  0.24782493710517883  0.6383997201919556  0.7813759446144103  1.0000
  Cr  Cr1       1.0  0.7500534653663635  0.4367012679576874  0.09473787993192671  1.0000
  Cr  Cr2       1.0  0.743927538394928  0.790591835975647  0.6252514123916626  1.0000
  H   H1        1.0  0.0005677005974575976  0.8251738548278809  0.6543291807174683  1.0000
  Pb  Pb1       1.0  0.750761866569519  0.40056493878364563  0.455943614244461  1.0000
  Pb  Pb2       1.0  0.7519810795783997  0.4390636384487152  0.7205467224121094  1.0000
  Sb  Sb1       1.0  0.24907755851745605  0.43110501766204834  0.5800660848617554  1.0000
