data_image0
_chemical_formula_structural       CaIOSb6
_chemical_formula_sum              "Ca1 I1 O1 Sb6"
_cell_length_a       4.749289704599822
_cell_length_b       5.942182251700189
_cell_length_c       10.394628524780273
_cell_angle_alpha    90.22764450350468
_cell_angle_beta     90.18585954677472
_cell_angle_gamma    97.04258304304017

_space_group_name_H-M_alt    "P 1"
_space_group_IT_number       1

loop_
  _space_group_symop_operation_xyz
  'x, y, z'

loop_
  _atom_site_type_symbol
  _atom_site_label
  _atom_site_symmetry_multiplicity
  _atom_site_fract_x
  _atom_site_fract_y
  _atom_site_fract_z
  _atom_site_occupancy
  Ca  Ca1       1.0  0.4204096794128418  0.9405876398086548  0.31990867853164673  1.0000
  I   I1        1.0  0.8413888812065125  0.5092963576316833  0.5301703214645386  1.0000
  O   O1        1.0  0.3165988326072693  0.7455209493637085  0.14003218710422516  1.0000
  Sb  Sb1       1.0  0.4521310031414032  0.2641910910606384  0.28699514269828796  1.0000
  Sb  Sb2       1.0  0.8458950519561768  0.4654058516025543  0.37092339992523193  1.0000
  Sb  Sb3       1.0  0.3337220549583435  0.5517697334289551  0.3753998577594757  1.0000
  Sb  Sb4       1.0  0.9299689531326294  0.6114594340324402  0.8147865533828735  1.0000
  Sb  Sb5       1.0  0.8791187405586243  0.7050015330314636  0.5377904772758484  1.0000
  Sb  Sb6       1.0  0.22754880785942078  0.9985948204994202  0.2301334887742996  1.0000
