data_image0
_chemical_formula_structural       Ca5Cr2Sb2
_chemical_formula_sum              "Ca5 Cr2 Sb2"
_cell_length_a       5.443676510399311
_cell_length_b       5.301659949814806
_cell_length_c       10.71106243133545
_cell_angle_alpha    91.03050743858292
_cell_angle_beta     88.51405635926255
_cell_angle_gamma    56.922688130032

_space_group_name_H-M_alt    "P 1"
_space_group_IT_number       1

loop_
  _space_group_symop_operation_xyz
  'x, y, z'

loop_
  _atom_site_type_symbol
  _atom_site_label
  _atom_site_symmetry_multiplicity
  _atom_site_fract_x
  _atom_site_fract_y
  _atom_site_fract_z
  _atom_site_occupancy
  Ca  Ca1       1.0  0.014304108917713165  0.5658687949180603  0.5983043313026428  1.0000
  Ca  Ca2       1.0  0.02773096039891243  0.7872998714447021  0.6845714449882507  1.0000
  Ca  Ca3       1.0  0.5176814198493958  0.7615995407104492  0.6801806092262268  1.0000
  Ca  Ca4       1.0  0.5273932218551636  0.43456920981407166  0.4102295935153961  1.0000
  Ca  Ca5       1.0  0.03487633913755417  0.74576336145401  0.40717020630836487  1.0000
  Cr  Cr1       1.0  0.01370798796415329  0.31662607192993164  0.010160581208765507  1.0000
  Cr  Cr2       1.0  0.5116295218467712  0.6588512063026428  0.013288038782775402  1.0000
  Sb  Sb1       1.0  0.5134968161582947  0.7078366875648499  0.09829917550086975  1.0000
  Sb  Sb2       1.0  0.034822769463062286  0.80042564868927  0.5271718502044678  1.0000
