data_image0
_chemical_formula_structural       AsCu2Lu4MgPbSe3Zn3
_chemical_formula_sum              "As1 Cu2 Lu4 Mg1 Pb1 Se3 Zn3"
_cell_length_a       6.77070449779455
_cell_length_b       6.974332730973236
_cell_length_c       7.841226100921631
_cell_angle_alpha    112.45412506639279
_cell_angle_beta     111.4851081063932
_cell_angle_gamma    95.3818243464636

_space_group_name_H-M_alt    "P 1"
_space_group_IT_number       1

loop_
  _space_group_symop_operation_xyz
  'x, y, z'

loop_
  _atom_site_type_symbol
  _atom_site_label
  _atom_site_symmetry_multiplicity
  _atom_site_fract_x
  _atom_site_fract_y
  _atom_site_fract_z
  _atom_site_occupancy
  As  As1       1.0  0.03832326456904411  0.3335084319114685  0.8406539559364318  1.0000
  Cu  Cu1       1.0  0.5483860969543457  0.5750867128372192  0.27745363116264343  1.0000
  Cu  Cu2       1.0  0.5811861753463745  0.23246763646602628  0.7380773425102233  1.0000
  Lu  Lu1       1.0  0.08636969327926636  0.07715445011854172  0.9222614169120787  1.0000
  Lu  Lu2       1.0  0.8240401744842529  0.9154996275901793  0.6239427328109741  1.0000
  Lu  Lu3       1.0  0.01416346151381731  0.815973699092865  0.7539976835250853  1.0000
  Lu  Lu4       1.0  0.2573700249195099  0.5819522142410278  0.22534225881099698  1.0000
  Mg  Mg1       1.0  0.5741891264915466  0.37855997681617737  0.029326094314455983  1.0000
  Pb  Pb1       1.0  0.5960150361061096  0.11494825780391692  0.5076602101325989  1.0000
  Se  Se1       1.0  0.05077139288187027  0.7266062498092651  0.3831958174705504  1.0000
  Se  Se2       1.0  0.5912448167800903  0.2990839183330536  0.15656116604804993  1.0000
  Se  Se3       1.0  0.2573060989379883  0.5545511841773987  0.49648728966712946  1.0000
  Zn  Zn1       1.0  0.28801998496055603  0.6889693140983582  0.02858973294496536  1.0000
  Zn  Zn2       1.0  0.08020202815532684  0.35097771883010864  0.5066947937011719  1.0000
  Zn  Zn3       1.0  0.5350794792175293  0.9831816554069518  0.8783323764801024  1.0000
