data_image0
_chemical_formula_structural       Lu8Pb2Se2Zn3
_chemical_formula_sum              "Lu8 Pb2 Se2 Zn3"
_cell_length_a       5.453199529162745
_cell_length_b       6.766167652499271
_cell_length_c       9.542620658874512
_cell_angle_alpha    94.30846938025839
_cell_angle_beta     93.99391343226753
_cell_angle_gamma    94.1652002870514

_space_group_name_H-M_alt    "P 1"
_space_group_IT_number       1

loop_
  _space_group_symop_operation_xyz
  'x, y, z'

loop_
  _atom_site_type_symbol
  _atom_site_label
  _atom_site_symmetry_multiplicity
  _atom_site_fract_x
  _atom_site_fract_y
  _atom_site_fract_z
  _atom_site_occupancy
  Lu  Lu1       1.0  0.4242159426212311  0.40236181020736694  0.3399912714958191  1.0000
  Lu  Lu2       1.0  0.4257429540157318  0.051961611956357956  0.9854505658149719  1.0000
  Lu  Lu3       1.0  0.4254760444164276  0.4313804507255554  0.14028160274028778  1.0000
  Lu  Lu4       1.0  0.5339481234550476  0.4914688467979431  0.24742713570594788  1.0000
  Lu  Lu5       1.0  0.9257800579071045  0.7061051726341248  0.18663251399993896  1.0000
  Lu  Lu6       1.0  0.931842565536499  0.10944871604442596  0.10152317583560944  1.0000
  Lu  Lu7       1.0  0.9293825626373291  0.3260803520679474  0.20553873479366302  1.0000
  Lu  Lu8       1.0  0.42449381947517395  0.5734753608703613  0.6853294968605042  1.0000
  Pb  Pb1       1.0  0.9276092052459717  0.2641407549381256  0.442262202501297  1.0000
  Pb  Pb2       1.0  0.9456614255905151  0.5697498321533203  0.01831703446805477  1.0000
  Se  Se1       1.0  0.9235892295837402  0.45927050709724426  0.7697440981864929  1.0000
  Se  Se2       1.0  0.9285322427749634  0.507135272026062  0.04278024658560753  1.0000
  Zn  Zn1       1.0  0.4266863167285919  0.743095338344574  0.20246830582618713  1.0000
  Zn  Zn2       1.0  0.4229697585105896  0.31698042154312134  0.7698060870170593  1.0000
  Zn  Zn3       1.0  0.42622339725494385  0.15575331449508667  0.4489668011665344  1.0000
