data_image0
_chemical_formula_structural       Lu6MgPb3Se2Zn3
_chemical_formula_sum              "Lu6 Mg1 Pb3 Se2 Zn3"
_cell_length_a       6.616823676361961
_cell_length_b       7.218555873496111
_cell_length_c       9.071846008300781
_cell_angle_alpha    90.18897081287656
_cell_angle_beta     90.53237203643681
_cell_angle_gamma    103.40077945136096

_space_group_name_H-M_alt    "P 1"
_space_group_IT_number       1

loop_
  _space_group_symop_operation_xyz
  'x, y, z'

loop_
  _atom_site_type_symbol
  _atom_site_label
  _atom_site_symmetry_multiplicity
  _atom_site_fract_x
  _atom_site_fract_y
  _atom_site_fract_z
  _atom_site_occupancy
  Lu  Lu1       1.0  0.7813791632652282  0.5591651797294617  0.34327301383018494  1.0000
  Lu  Lu2       1.0  0.8099653124809264  0.45519971847534185  0.7478127479553223  1.0000
  Lu  Lu3       1.0  0.08734507858753203  0.20060136914253238  0.9889234304428101  1.0000
  Lu  Lu4       1.0  0.07768560945987704  0.964518964290619  0.5621984601020813  1.0000
  Lu  Lu5       1.0  0.07186064124107361  0.338233083486557  0.15567448735237122  1.0000
  Lu  Lu6       1.0  0.2964196503162384  0.6308227181434631  0.9312431812286377  1.0000
  Mg  Mg1       1.0  0.5628411173820496  0.8705800771713258  0.5736812949180603  1.0000
  Pb  Pb1       1.0  0.565732479095459  0.21841929852962497  0.017317233607172966  1.0000
  Pb  Pb2       1.0  0.5564096570014954  0.32027411460876465  0.5580261945724487  1.0000
  Pb  Pb3       1.0  0.06600667536258698  0.6256241202354431  0.37580639123916626  1.0000
  Se  Se1       1.0  0.29943156242370605  0.7880492210388184  0.7776444554328918  1.0000
  Se  Se2       1.0  0.7999840974807738  0.4957359731197358  0.7803285717964172  1.0000
  Zn  Zn1       1.0  0.5792943835258484  0.6835602521896362  0.4358132779598236  1.0000
  Zn  Zn2       1.0  0.06400310993194583  0.9645309448242189  0.3162623345851898  1.0000
  Zn  Zn3       1.0  0.5802376866340637  0.09559137374162674  0.9385625123977661  1.0000
