data_image0
_chemical_formula_structural       Lu5Pb2ScSe3Zn4
_chemical_formula_sum              "Lu5 Pb2 Sc1 Se3 Zn4"
_cell_length_a       4.8341113855330855
_cell_length_b       8.055670512698509
_cell_length_c       10.110239028930664
_cell_angle_alpha    115.76811033651289
_cell_angle_beta     91.88815408221366
_cell_angle_gamma    92.22459532285833

_space_group_name_H-M_alt    "P 1"
_space_group_IT_number       1

loop_
  _space_group_symop_operation_xyz
  'x, y, z'

loop_
  _atom_site_type_symbol
  _atom_site_label
  _atom_site_symmetry_multiplicity
  _atom_site_fract_x
  _atom_site_fract_y
  _atom_site_fract_z
  _atom_site_occupancy
  Lu  Lu1       1.0  0.9654605984687805  0.6096127033233643  0.35391026735305786  1.0000
  Lu  Lu2       1.0  0.6088653206825256  0.5970529317855835  0.31254050135612493  1.0000
  Lu  Lu3       1.0  0.4787234663963318  0.3266948163509369  0.8584547638893127  1.0000
  Lu  Lu4       1.0  0.9651270508766174  0.5842642784118652  0.46714287996292114  1.0000
  Lu  Lu5       1.0  0.9719511866569519  0.5867794156074524  0.8571526408195496  1.0000
  Pb  Pb1       1.0  0.46026772260665894  0.6309701800346375  0.43948718905448914  1.0000
  Pb  Pb2       1.0  0.4683675765991211  0.15058621764183044  0.5216026902198792  1.0000
  Sc  Sc1       1.0  0.9814128279685974  0.7689505219459534  0.8881585597991943  1.0000
  Se  Se1       1.0  0.13298778235912323  0.3685950040817261  0.9184458255767822  1.0000
  Se  Se2       1.0  0.4555385708808899  0.7505978345870972  0.9080291986465454  1.0000
  Se  Se3       1.0  0.47016745805740356  0.4875316619873047  0.5302265286445618  1.0000
  Zn  Zn1       1.0  0.714078962802887  0.7016134858131409  0.7209544777870178  1.0000
  Zn  Zn2       1.0  0.9668601155281067  0.13854201138019562  0.42391982674598694  1.0000
  Zn  Zn3       1.0  0.46032947301864624  0.11727063357830048  0.4635660648345947  1.0000
  Zn  Zn4       1.0  0.45390400290489197  0.7858313322067261  0.6273400783538818  1.0000
