data_image0
_chemical_formula_structural       Cu3LuPb5Se6
_chemical_formula_sum              "Cu3 Lu1 Pb5 Se6"
_cell_length_a       7.020970337308153
_cell_length_b       6.835890530970627
_cell_length_c       8.874576568603516
_cell_angle_alpha    104.18636781946765
_cell_angle_beta     104.73522862022953
_cell_angle_gamma    108.83551429529676

_space_group_name_H-M_alt    "P 1"
_space_group_IT_number       1

loop_
  _space_group_symop_operation_xyz
  'x, y, z'

loop_
  _atom_site_type_symbol
  _atom_site_label
  _atom_site_symmetry_multiplicity
  _atom_site_fract_x
  _atom_site_fract_y
  _atom_site_fract_z
  _atom_site_occupancy
  Cu  Cu1       1.0  0.29119300842285156  0.7378700375556946  0.857335090637207  1.0000
  Cu  Cu2       1.0  0.7423608303070068  0.5145437717437744  0.2660849690437317  1.0000
  Cu  Cu3       1.0  0.26390731334686274  0.43247306346893305  0.5531390905380249  1.0000
  Lu  Lu1       1.0  0.9665912389755249  0.4807916581630706  0.17849808931350708  1.0000
  Pb  Pb1       1.0  0.7411336898803711  0.6081308126449585  0.5800196528434753  1.0000
  Pb  Pb2       1.0  0.73758864402771  0.6805801391601562  0.7952336072921753  1.0000
  Pb  Pb3       1.0  0.28218668699264526  0.17137989401817322  0.8199102282524109  1.0000
  Pb  Pb4       1.0  0.9597865343093872  0.19921661913394928  0.19563724100589752  1.0000
  Pb  Pb5       1.0  0.36386004090309143  0.5711836218833923  0.4945230185985565  1.0000
  Se  Se1       1.0  0.20149299502372742  0.8460333347320557  0.1289415806531906  1.0000
  Se  Se2       1.0  0.1598304808139801  0.6162897348403931  0.7394929528236389  1.0000
  Se  Se3       1.0  0.7855857014656067  0.8617458343505858  0.3215143382549286  1.0000
  Se  Se4       1.0  0.5395610928535461  0.2814164161682129  0.7318663597106934  1.0000
  Se  Se5       1.0  0.8462556004524231  0.482724517583847  0.04225946590304375  1.0000
  Se  Se6       1.0  0.5685865879058838  0.4634609222412109  0.33918479084968567  1.0000
