data_image0
_chemical_formula_structural       Cu3Pb6Se6
_chemical_formula_sum              "Cu3 Pb6 Se6"
_cell_length_a       6.612367123017903
_cell_length_b       6.806787282149108
_cell_length_c       9.521845817565918
_cell_angle_alpha    99.11342579284761
_cell_angle_beta     99.27240635601875
_cell_angle_gamma    108.8301770535788

_space_group_name_H-M_alt    "P 1"
_space_group_IT_number       1

loop_
  _space_group_symop_operation_xyz
  'x, y, z'

loop_
  _atom_site_type_symbol
  _atom_site_label
  _atom_site_symmetry_multiplicity
  _atom_site_fract_x
  _atom_site_fract_y
  _atom_site_fract_z
  _atom_site_occupancy
  Cu  Cu1       1.0  0.39838224649429316  0.4088611304759979  0.5280724167823792  1.0000
  Cu  Cu2       1.0  0.9326153397560119  0.0716286152601242  0.4961582720279694  1.0000
  Cu  Cu3       1.0  0.07126161456108093  0.030689245089888573  0.8893622756004333  1.0000
  Pb  Pb1       1.0  0.6955685615539551  0.9521748423576355  0.05009926110506056  1.0000
  Pb  Pb2       1.0  0.490645557641983  0.17042070627212524  0.7141620516777039  1.0000
  Pb  Pb3       1.0  0.4036611914634704  0.5794972777366638  0.5397161841392517  1.0000
  Pb  Pb4       1.0  0.7331658601760864  0.5213264226913452  0.09488813579082489  1.0000
  Pb  Pb5       1.0  0.16557158529758453  0.7064059972763062  0.9927887916564943  1.0000
  Pb  Pb6       1.0  0.4034369587898254  0.05836384743452072  0.5983729958534241  1.0000
  Se  Se1       1.0  0.6677594184875488  0.7179675698280334  0.5250730514526367  1.0000
  Se  Se2       1.0  0.924944519996643  0.6652677059173584  0.8667872548103333  1.0000
  Se  Se3       1.0  0.9001222848892211  0.2820829749107361  0.809829831123352  1.0000
  Se  Se4       1.0  0.6793841123580933  0.5098674297332764  0.10625845938920975  1.0000
  Se  Se5       1.0  0.10528869181871413  0.06269333511590958  0.34842994809150696  1.0000
  Se  Se6       1.0  0.875304341316223  0.846024751663208  0.3343856632709503  1.0000
