data_image0
_chemical_formula_structural       ClFH3O5PbS4Sb3
_chemical_formula_sum              "Cl1 F1 H3 O5 Pb1 S4 Sb3"
_cell_length_a       5.586614569151897
_cell_length_b       7.520941416505959
_cell_length_c       8.98914909362793
_cell_angle_alpha    97.29196789742271
_cell_angle_beta     90.49538806526509
_cell_angle_gamma    88.66169480360715

_space_group_name_H-M_alt    "P 1"
_space_group_IT_number       1

loop_
  _space_group_symop_operation_xyz
  'x, y, z'

loop_
  _atom_site_type_symbol
  _atom_site_label
  _atom_site_symmetry_multiplicity
  _atom_site_fract_x
  _atom_site_fract_y
  _atom_site_fract_z
  _atom_site_occupancy
  Cl  Cl1       1.0  0.8344505429267883  0.06969884783029556  0.4245280623435974  1.0000
  F   F1        1.0  0.25463980436325073  0.34434235095977783  0.7801417112350464  1.0000
  H   H1        1.0  0.4157485067844391  0.7721365690231323  0.6646327376365662  1.0000
  H   H2        1.0  0.07541942596435547  0.17624209821224213  0.17949478328227997  1.0000
  H   H3        1.0  0.5646361112594604  0.38110026717185974  0.1483597457408905  1.0000
  O   O1        1.0  0.9102289080619812  0.2366972118616104  0.9382808208465576  1.0000
  O   O2        1.0  0.33141401410102844  0.6456064581871033  0.6815532445907593  1.0000
  O   O3        1.0  0.4062482714653015  0.6721033453941345  0.1730184108018875  1.0000
  O   O4        1.0  0.9061562418937683  0.8438702821731567  0.9721331596374512  1.0000
  O   O5        1.0  0.9047954678535461  0.8223397135734558  0.592240571975708  1.0000
  Pb  Pb1       1.0  0.5770632028579712  0.11535882949829102  0.3845045268535614  1.0000
  S   S1        1.0  0.1390649825334549  0.1585543304681778  0.8669346570968628  1.0000
  S   S2        1.0  0.6491413712501526  0.49613457918167114  0.6776029467582703  1.0000
  S   S3        1.0  0.6534882187843323  0.9921974539756775  0.038183797150850296  1.0000
  S   S4        1.0  0.2935922145843506  0.6445867419242859  0.35121244192123413  1.0000
  Sb  Sb1       1.0  0.3426627814769745  0.8501017093658447  0.9346246123313904  1.0000
  Sb  Sb2       1.0  0.07801933586597443  0.90680330991745  0.12683677673339844  1.0000
  Sb  Sb3       1.0  0.5692480802536011  0.7794378399848938  0.5495525002479553  1.0000
