data_image0
_chemical_formula_structural       FH6O5PtS2Sb2Tb
_chemical_formula_sum              "F1 H6 O5 Pt1 S2 Sb2 Tb1"
_cell_length_a       5.637236834759542
_cell_length_b       6.768490815649021
_cell_length_c       8.26419734954834
_cell_angle_alpha    105.07705137465882
_cell_angle_beta     90.60059530607406
_cell_angle_gamma    89.70780675483066

_space_group_name_H-M_alt    "P 1"
_space_group_IT_number       1

loop_
  _space_group_symop_operation_xyz
  'x, y, z'

loop_
  _atom_site_type_symbol
  _atom_site_label
  _atom_site_symmetry_multiplicity
  _atom_site_fract_x
  _atom_site_fract_y
  _atom_site_fract_z
  _atom_site_occupancy
  F   F1        1.0  0.8077507615089417  0.2595462203025818  0.6902117729187012  1.0000
  H   H1        1.0  0.6809101700782776  0.29138848185539246  0.29655998945236206  1.0000
  H   H2        1.0  0.5493116974830627  0.7119318246841431  0.8052493333816528  1.0000
  H   H3        1.0  0.492557018995285  0.6810688376426697  0.6747298836708069  1.0000
  H   H4        1.0  0.31038612127304077  0.013546587899327276  0.14990846812725067  1.0000
  H   H5        1.0  0.05995987355709075  0.9815522432327269  0.46511387825012207  1.0000
  H   H6        1.0  0.12488894909620284  0.11776566505432128  0.9757437109947205  1.0000
  O   O1        1.0  0.0069908867590129375  0.21916776895523069  0.2855144441127777  1.0000
  O   O2        1.0  0.737275242805481  0.6859705448150635  0.16721627116203305  1.0000
  O   O3        1.0  0.4910584390163421  0.4735674858093261  0.3614093065261841  1.0000
  O   O4        1.0  0.45290622115135193  0.767726182937622  0.5757768154144287  1.0000
  O   O5        1.0  0.6916261911392212  0.03688398003578186  0.18597745895385742  1.0000
  Pt  Pt1       1.0  0.4064212739467621  0.7401617765426635  0.8399137258529663  1.0000
  S   S1        1.0  0.9594812393188475  0.24877493083477017  0.1965647041797638  1.0000
  S   S2        1.0  0.9123027920722961  0.7549177408218383  0.7982013821601868  1.0000
  Sb  Sb1       1.0  0.923918604850769  0.07480203360319138  0.02275129221379757  1.0000
  Sb  Sb2       1.0  0.4272071421146393  0.9166105389595031  0.8834043741226196  1.0000
  Tb  Tb1       1.0  0.05125454068183899  0.26200881600379944  0.25314217805862427  1.0000
