data_image0
_chemical_formula_structural       BrCl2F7H4O2Sb2
_chemical_formula_sum              "Br1 Cl2 F7 H4 O2 Sb2"
_cell_length_a       5.9330264572089915
_cell_length_b       6.639687343855713
_cell_length_c       8.508152961730957
_cell_angle_alpha    90.31805278947037
_cell_angle_beta     90.80573784583638
_cell_angle_gamma    88.46989504723815

_space_group_name_H-M_alt    "P 1"
_space_group_IT_number       1

loop_
  _space_group_symop_operation_xyz
  'x, y, z'

loop_
  _atom_site_type_symbol
  _atom_site_label
  _atom_site_symmetry_multiplicity
  _atom_site_fract_x
  _atom_site_fract_y
  _atom_site_fract_z
  _atom_site_occupancy
  Br  Br1       1.0  0.11214938759803772  0.2563113868236542  0.3710693418979645  1.0000
  Cl  Cl1       1.0  0.4335251450538635  0.36177393794059753  0.5612598657608032  1.0000
  Cl  Cl2       1.0  0.7408636808395386  0.6505494117736816  0.8779237270355225  1.0000
  F   F1        1.0  0.6008973717689514  0.7552098631858826  0.38338369131088257  1.0000
  F   F2        1.0  0.597784698009491  0.2377999573945999  0.01720566675066948  1.0000
  F   F3        1.0  0.7451596856117249  0.6153237223625183  0.02404060587286949  1.0000
  F   F4        1.0  0.863362729549408  0.7136175632476807  0.36491313576698303  1.0000
  F   F5        1.0  0.28209713101387024  0.613275408744812  0.5119484066963196  1.0000
  F   F6        1.0  0.10599468648433685  0.07113105058670044  0.5356520414352417  1.0000
  F   F7        1.0  0.35956621170043945  0.05192764103412628  0.9040814638137817  1.0000
  H   H1        1.0  0.039144858717918396  0.37409353256225586  0.7423283457756042  1.0000
  H   H2        1.0  0.35511311888694763  0.701085090637207  0.7249337434768677  1.0000
  H   H3        1.0  0.6193341612815857  0.9803869128227233  0.509661078453064  1.0000
  H   H4        1.0  0.30155250430107117  0.37876108288764954  0.8303913474082947  1.0000
  O   O1        1.0  0.5539804100990295  0.023345714434981346  0.7526142001152039  1.0000
  O   O2        1.0  0.028009843081235886  0.04331163689494133  0.2366352528333664  1.0000
  Sb  Sb1       1.0  0.020442195236682892  0.6858430504798889  0.5290907621383667  1.0000
  Sb  Sb2       1.0  0.05696803703904152  0.33516940474510193  0.2175201028585434  1.0000
