data_image0
_chemical_formula_structural       CClF3H3O5Pb2Sb3
_chemical_formula_sum              "C1 Cl1 F3 H3 O5 Pb2 Sb3"
_cell_length_a       5.249639288623213
_cell_length_b       7.985916130103151
_cell_length_c       9.424604415893555
_cell_angle_alpha    96.857112656572
_cell_angle_beta     91.38590172846067
_cell_angle_gamma    89.71193124755331

_space_group_name_H-M_alt    "P 1"
_space_group_IT_number       1

loop_
  _space_group_symop_operation_xyz
  'x, y, z'

loop_
  _atom_site_type_symbol
  _atom_site_label
  _atom_site_symmetry_multiplicity
  _atom_site_fract_x
  _atom_site_fract_y
  _atom_site_fract_z
  _atom_site_occupancy
  C   C1        1.0  0.5054426193237305  0.4973903596401215  0.43098747730255127  1.0000
  Cl  Cl1       1.0  0.5081033706665039  0.9314929842948915  0.41076788306236267  1.0000
  F   F1        1.0  0.6011404991149902  0.9809669852256776  0.8219863176345825  1.0000
  F   F2        1.0  0.6310550570487976  0.9846160411834718  0.854595422744751  1.0000
  F   F3        1.0  0.31882938742637634  0.20046237111091617  0.7274563312530518  1.0000
  H   H1        1.0  0.848767101764679  0.7579941749572755  0.9277771115303038  1.0000
  H   H2        1.0  0.9085947871208191  0.4510235786437989  0.9866126179695128  1.0000
  H   H3        1.0  0.2749216854572296  0.6305867433547975  0.5385575294494629  1.0000
  O   O1        1.0  0.015576705336570741  0.9952228665351869  0.07861467450857164  1.0000
  O   O2        1.0  0.4017387330532074  0.5413652658462524  0.4906697869300842  1.0000
  O   O3        1.0  0.8526929020881653  0.22176991403102878  0.8094363808631897  1.0000
  O   O4        1.0  0.3368038833141327  0.209958091378212  0.7569426894187927  1.0000
  O   O5        1.0  0.40539729595184326  0.7308900952339173  0.2340840548276901  1.0000
  Pb  Pb1       1.0  0.5072233080863953  0.9162708520889283  0.2364096492528915  1.0000
  Pb  Pb2       1.0  0.9995338916778566  0.47969928383827215  0.7999556064605713  1.0000
  Sb  Sb1       1.0  0.0011930465698242188  0.5385576486587524  0.3559446334838867  1.0000
  Sb  Sb2       1.0  0.015370080247521402  0.45317244529724127  0.07398650050163269  1.0000
  Sb  Sb3       1.0  0.004064276814460754  0.3129758834838868  0.8760170936584473  1.0000
