data_image0
_chemical_formula_structural       Cl2F2H4O5Pt2SSb2
_chemical_formula_sum              "Cl2 F2 H4 O5 Pt2 S1 Sb2"
_cell_length_a       4.805006841226224
_cell_length_b       7.529415191907183
_cell_length_c       9.538763046264648
_cell_angle_alpha    93.42822850147044
_cell_angle_beta     92.9765243233657
_cell_angle_gamma    91.32807082408617

_space_group_name_H-M_alt    "P 1"
_space_group_IT_number       1

loop_
  _space_group_symop_operation_xyz
  'x, y, z'

loop_
  _atom_site_type_symbol
  _atom_site_label
  _atom_site_symmetry_multiplicity
  _atom_site_fract_x
  _atom_site_fract_y
  _atom_site_fract_z
  _atom_site_occupancy
  Cl  Cl1       1.0  0.01725826784968377  0.900485932826996  0.26351904869079595  1.0000
  Cl  Cl2       1.0  0.13851408660411835  0.18602663278579712  0.46017274260520935  1.0000
  F   F1        1.0  0.5471143126487732  0.4490011334419251  0.44240495562553406  1.0000
  F   F2        1.0  0.533966064453125  0.19614331424236298  0.4999701678752899  1.0000
  H   H1        1.0  0.5586474537849426  0.46515789628028875  0.7886205315589905  1.0000
  H   H2        1.0  0.001931309700012207  0.07247366011142731  0.17969733476638794  1.0000
  H   H3        1.0  0.026278475299477584  0.9824283719062806  0.12507088482379913  1.0000
  H   H4        1.0  0.23389576375484467  0.6853595972061157  0.8003737926483154  1.0000
  O   O1        1.0  0.2270945906639099  0.44790339469909674  0.0023436921183019876  1.0000
  O   O2        1.0  0.7174944281578064  0.21851795911788943  0.13691776990890503  1.0000
  O   O3        1.0  0.7412922978401184  0.6236197352409363  0.6162375807762146  1.0000
  O   O4        1.0  0.0622696653008461  0.22430366277694705  0.3752104640007019  1.0000
  O   O5        1.0  0.9302111864089966  0.251121461391449  0.9136722087860107  1.0000
  Pt  Pt1       1.0  0.5369979739189148  0.8993859887123109  0.17698600888252258  1.0000
  Pt  Pt2       1.0  0.22945775091648102  0.6038599014282227  0.9514325261116028  1.0000
  S   S1        1.0  0.3809067308902741  0.10426274687051774  0.8780602812767029  1.0000
  Sb  Sb1       1.0  0.8673892021179199  0.6130132079124451  0.5854993462562561  1.0000
  Sb  Sb2       1.0  0.7002092003822327  0.8624401688575746  0.6025810837745667  1.0000
