data_image0
_chemical_formula_structural       Cl2F6H2O4PtSb2Tl
_chemical_formula_sum              "Cl2 F6 H2 O4 Pt1 Sb2 Tl1"
_cell_length_a       5.817949777116161
_cell_length_b       6.584856975769449
_cell_length_c       8.220257759094238
_cell_angle_alpha    89.49385117649176
_cell_angle_beta     90.50184211000074
_cell_angle_gamma    88.30732506780289

_space_group_name_H-M_alt    "P 1"
_space_group_IT_number       1

loop_
  _space_group_symop_operation_xyz
  'x, y, z'

loop_
  _atom_site_type_symbol
  _atom_site_label
  _atom_site_symmetry_multiplicity
  _atom_site_fract_x
  _atom_site_fract_y
  _atom_site_fract_z
  _atom_site_occupancy
  Cl  Cl1       1.0  0.9967969655990602  0.46741941571235657  0.1298223435878754  1.0000
  Cl  Cl2       1.0  0.1583767831325531  0.9535915851593018  0.9874773621559143  1.0000
  F   F1        1.0  0.25293001532554626  0.4845145344734192  0.6435962319374084  1.0000
  F   F2        1.0  0.7514062523841859  0.4872191250324249  0.4950132369995117  1.0000
  F   F3        1.0  0.6405383348464966  0.4826458692550659  0.31368181109428406  1.0000
  F   F4        1.0  0.92561674118042  0.9788880944252014  0.7757576107978821  1.0000
  F   F5        1.0  0.41083711385726934  0.32061687111854553  0.8851275444030762  1.0000
  F   F6        1.0  0.2562820315361023  0.7732031345367432  0.5009232759475708  1.0000
  H   H1        1.0  0.18285475671291354  0.4807794988155365  0.16606436669826508  1.0000
  H   H2        1.0  0.271597683429718  0.7769207954406738  0.05443207547068596  1.0000
  O   O1        1.0  0.7511843442916871  0.02029961347579956  0.9283276200294495  1.0000
  O   O2        1.0  0.2677151560783386  0.47658848762512207  0.7680227160453796  1.0000
  O   O3        1.0  0.6900662779808044  0.35084787011146545  0.6316582560539246  1.0000
  O   O4        1.0  0.2648927569389343  0.11794286966323853  0.5904887914657593  1.0000
  Pt  Pt1       1.0  0.8722491860389711  0.20302920043468475  0.9282188415527344  1.0000
  Sb  Sb1       1.0  0.6417903900146484  0.46258702874183655  0.7433884143829346  1.0000
  Sb  Sb2       1.0  0.89772766828537  0.8433804512023926  0.6784622669219971  1.0000
  Tl  Tl1       1.0  0.40355312824249273  0.23303332924842834  0.017913175746798515  1.0000
