data_image0
_chemical_formula_structural       Nb4Sb2
_chemical_formula_sum              "Nb4 Sb2"
_cell_length_a       4.68668592606023
_cell_length_b       4.783052473726569
_cell_length_c       5.30908203125
_cell_angle_alpha    87.65355209647822
_cell_angle_beta     90.6413555928282
_cell_angle_gamma    90.56179164663708

_space_group_name_H-M_alt    "P 1"
_space_group_IT_number       1

loop_
  _space_group_symop_operation_xyz
  'x, y, z'

loop_
  _atom_site_type_symbol
  _atom_site_label
  _atom_site_symmetry_multiplicity
  _atom_site_fract_x
  _atom_site_fract_y
  _atom_site_fract_z
  _atom_site_occupancy
  Nb  Nb1       1.0  0.930406391620636  0.1029559001326561  0.26991966366767883  1.0000
  Nb  Nb2       1.0  0.9306337833404541  0.606386125087738  0.26129212975502014  1.0000
  Nb  Nb3       1.0  0.9283256530761719  0.3696608245372772  0.8271834850311278  1.0000
  Nb  Nb4       1.0  0.4229378402233124  0.6093885898590088  0.3225981295108795  1.0000
  Sb  Sb1       1.0  0.9275927543640137  0.8689300417900085  0.3296617567539215  1.0000
  Sb  Sb2       1.0  0.6642879843711853  0.09896358847618103  0.03500405326485634  1.0000
