data_image0
_chemical_formula_structural       Nb3SSb2
_chemical_formula_sum              "Nb3 S1 Sb2"
_cell_length_a       4.4992581035261585
_cell_length_b       4.360199417257316
_cell_length_c       6.107839584350586
_cell_angle_alpha    95.06503110292465
_cell_angle_beta     94.63904193963505
_cell_angle_gamma    89.03756040039673

_space_group_name_H-M_alt    "P 1"
_space_group_IT_number       1

loop_
  _space_group_symop_operation_xyz
  'x, y, z'

loop_
  _atom_site_type_symbol
  _atom_site_label
  _atom_site_symmetry_multiplicity
  _atom_site_fract_x
  _atom_site_fract_y
  _atom_site_fract_z
  _atom_site_occupancy
  Nb  Nb1       1.0  0.5572805404663086  0.8856101036071777  0.2591824531555176  1.0000
  Nb  Nb2       1.0  0.5697791576385498  0.39034339785575867  0.7721849679946899  1.0000
  Nb  Nb3       1.0  0.87633216381073  0.6473286747932434  0.9559398889541626  1.0000
  S   S1        1.0  0.35341915488243103  0.1415960192680359  0.04529615119099617  1.0000
  Sb  Sb1       1.0  0.881351113319397  0.1436503380537033  0.9636911749839783  1.0000
  Sb  Sb2       1.0  0.0636880099773407  0.3927772343158722  0.2848644256591797  1.0000
