data_image0
_chemical_formula_structural       GeI4P6PtSbTl
_chemical_formula_sum              "Ge1 I4 P6 Pt1 Sb1 Tl1"
_cell_length_a       5.836396995665611
_cell_length_b       6.924195760102711
_cell_length_c       7.156358242034912
_cell_angle_alpha    121.86048450984595
_cell_angle_beta     94.4917217956386
_cell_angle_gamma    90.1297798864257

_space_group_name_H-M_alt    "P 1"
_space_group_IT_number       1

loop_
  _space_group_symop_operation_xyz
  'x, y, z'

loop_
  _atom_site_type_symbol
  _atom_site_label
  _atom_site_symmetry_multiplicity
  _atom_site_fract_x
  _atom_site_fract_y
  _atom_site_fract_z
  _atom_site_occupancy
  Ge  Ge1       1.0  0.6890104413032532  0.027987094596028328  0.3251626789569855  1.0000
  I   I1        1.0  0.6867130398750305  0.8357397317886353  0.6252992153167725  1.0000
  I   I2        1.0  0.6921932101249695  0.8280846476554871  0.23215396702289576  1.0000
  I   I3        1.0  0.1875554770231247  0.8975579738616943  0.4635078907012939  1.0000
  I   I4        1.0  0.18617545068264008  0.2282031923532486  0.18299376964569092  1.0000
  P   P1        1.0  0.1842474788427353  0.2184736281633377  0.30276885628700256  1.0000
  P   P2        1.0  0.6921727061271667  0.7974404096603394  0.8803357481956482  1.0000
  P   P3        1.0  0.19147904217243195  0.7010512948036194  0.32711836695671076  1.0000
  P   P4        1.0  0.19242048263549805  0.32386961579322815  0.782861053943634  1.0000
  P   P5        1.0  0.6874847412109375  0.3035244941711426  0.5865497589111328  1.0000
  P   P6        1.0  0.7135389447212219  0.6077312231063843  0.08604180812835693  1.0000
  Pt  Pt1       1.0  0.19266201555728912  0.4389742612838745  0.5225315690040588  1.0000
  Sb  Sb1       1.0  0.6917762160301208  0.42234858870506287  0.7978966236114502  1.0000
  Tl  Tl1       1.0  0.18819698691368103  0.48395827412605286  0.8871891498565674  1.0000
