data_image0
_chemical_formula_structural       DyGeI2P5PtSbSe2U
_chemical_formula_sum              "Dy1 Ge1 I2 P5 Pt1 Sb1 Se2 U1"
_cell_length_a       6.590861420200887
_cell_length_b       7.499132536572781
_cell_length_c       7.887693881988525
_cell_angle_alpha    113.46992366568904
_cell_angle_beta     108.73806030128218
_cell_angle_gamma    104.47509381861497

_space_group_name_H-M_alt    "P 1"
_space_group_IT_number       1

loop_
  _space_group_symop_operation_xyz
  'x, y, z'

loop_
  _atom_site_type_symbol
  _atom_site_label
  _atom_site_symmetry_multiplicity
  _atom_site_fract_x
  _atom_site_fract_y
  _atom_site_fract_z
  _atom_site_occupancy
  Dy  Dy1       1.0  0.40510499477386475  0.49665057659149175  0.4238874912261963  1.0000
  Ge  Ge1       1.0  0.9345748424530029  0.4851213991641999  0.8495784997940063  1.0000
  I   I1        1.0  0.32147055864334106  0.2783614695072174  0.8248313069343567  1.0000
  I   I2        1.0  0.7570641040802002  0.4085883498191834  0.7657814621925354  1.0000
  P   P1        1.0  0.7976588010787964  0.0776991918683052  0.24988958239555362  1.0000
  P   P2        1.0  0.8685778379440308  0.025112036615610126  0.5356950759887695  1.0000
  P   P3        1.0  0.8765691518783569  0.8008177876472474  0.7022380232810974  1.0000
  P   P4        1.0  0.8226490020751953  0.31406041979789734  0.7951323390007019  1.0000
  P   P5        1.0  0.822489857673645  0.8977172970771791  0.7364752292633057  1.0000
  Pt  Pt1       1.0  0.4023141562938691  0.7103712558746339  0.8175422549247742  1.0000
  Sb  Sb1       1.0  0.0792624056339264  0.21380752325057986  0.26002901792526245  1.0000
  Se  Se1       1.0  0.08608761429786689  0.7006912827491761  0.47111582756042486  1.0000
  Se  Se2       1.0  0.5194557309150696  0.1834077835083008  0.3464265763759613  1.0000
  U   U1        1.0  0.4064517319202423  0.6521667242050171  0.37651491165161133  1.0000
