data_image0
_chemical_formula_structural       AsGeI2P4PbSbSeTb2Zn
_chemical_formula_sum              "As1 Ge1 I2 P4 Pb1 Sb1 Se1 Tb2 Zn1"
_cell_length_a       6.824546727178837
_cell_length_b       7.15941009426308
_cell_length_c       8.713292121887207
_cell_angle_alpha    105.44421807506505
_cell_angle_beta     99.4698226964617
_cell_angle_gamma    108.47943670908401

_space_group_name_H-M_alt    "P 1"
_space_group_IT_number       1

loop_
  _space_group_symop_operation_xyz
  'x, y, z'

loop_
  _atom_site_type_symbol
  _atom_site_label
  _atom_site_symmetry_multiplicity
  _atom_site_fract_x
  _atom_site_fract_y
  _atom_site_fract_z
  _atom_site_occupancy
  As  As1       1.0  0.6068301200866699  0.4879969954490661  0.23062609136104584  1.0000
  Ge  Ge1       1.0  0.09739266335964203  0.5667777061462402  0.9899845719337463  1.0000
  I   I1        1.0  0.154369443655014  0.40694051980972284  0.37603557109832764  1.0000
  I   I2        1.0  0.9334734678268433  0.7653589844703674  0.4962310492992401  1.0000
  P   P1        1.0  0.6565354466438293  0.24844975769519803  0.7514873147010803  1.0000
  P   P2        1.0  0.16100184619426727  0.17794747650623322  0.9818132519721985  1.0000
  P   P3        1.0  0.6423156261444092  0.026179751381278035  0.45017704367637634  1.0000
  P   P4        1.0  0.16026829183101649  0.9518576264381408  0.8478102087974548  1.0000
  Pb  Pb1       1.0  0.957484781742096  0.226110965013504  0.08988582342863083  1.0000
  Sb  Sb1       1.0  0.9651387929916382  0.7344136834144592  0.6552916169166565  1.0000
  Se  Se1       1.0  0.41593351960182184  0.8019918203353881  0.0766703262925148  1.0000
  Tb  Tb1       1.0  0.5201571583747864  0.7154010534286499  0.4993133842945099  1.0000
  Tb  Tb2       1.0  0.7652161121368408  0.7328996062278748  0.36260220408439636  1.0000
  Zn  Zn1       1.0  0.5082680583000183  0.35254722833633423  0.02389541082084179  1.0000
