data_image0
_chemical_formula_structural       P4PbSb2SeTl6
_chemical_formula_sum              "P4 Pb1 Sb2 Se1 Tl6"
_cell_length_a       6.6552312643064955
_cell_length_b       9.109572267903012
_cell_length_c       9.308196067810059
_cell_angle_alpha    119.54266757349266
_cell_angle_beta     98.41917635687271
_cell_angle_gamma    99.67328203082567

_space_group_name_H-M_alt    "P 1"
_space_group_IT_number       1

loop_
  _space_group_symop_operation_xyz
  'x, y, z'

loop_
  _atom_site_type_symbol
  _atom_site_label
  _atom_site_symmetry_multiplicity
  _atom_site_fract_x
  _atom_site_fract_y
  _atom_site_fract_z
  _atom_site_occupancy
  P   P1        1.0  0.09368128329515457  0.30856654047966003  0.40624770522117615  1.0000
  P   P2        1.0  0.5976069569587708  0.7835646271705627  0.5729872584342957  1.0000
  P   P3        1.0  0.9337732195854187  0.03174087777733803  0.7845508456230164  1.0000
  P   P4        1.0  0.593731164932251  0.3022974133491516  0.4564253985881805  1.0000
  Pb  Pb1       1.0  0.9320394992828369  0.05733443796634674  0.9867446422576903  1.0000
  Sb  Sb1       1.0  0.034829504787921906  0.03418092057108879  0.3235510289669037  1.0000
  Sb  Sb2       1.0  0.5915780663490295  0.7350606322288513  0.9225857257843016  1.0000
  Se  Se1       1.0  0.8200249075889587  0.3687073588371277  0.8007103800773621  1.0000
  Tl  Tl1       1.0  0.9830169677734375  0.42789533734321594  0.19087514281272888  1.0000
  Tl  Tl2       1.0  0.42482373118400574  0.23629428446292877  0.39210227131843567  1.0000
  Tl  Tl3       1.0  0.3104299306869507  0.01302328985184431  0.1174945831298828  1.0000
  Tl  Tl4       1.0  0.10037228465080261  0.782141387462616  0.5071107745170593  1.0000
  Tl  Tl5       1.0  0.4756581485271454  0.1764811873435974  0.5163008570671082  1.0000
  Tl  Tl6       1.0  0.4019368886947632  0.9605408310890198  0.779735803604126  1.0000
