data_image0
_chemical_formula_structural       CaDyHIP4PbPdPtSe2Tb
_chemical_formula_sum              "Ca1 Dy1 H1 I1 P4 Pb1 Pd1 Pt1 Se2 Tb1"
_cell_length_a       6.016818289294512
_cell_length_b       5.820490735695598
_cell_length_c       7.2422943115234375
_cell_angle_alpha    133.35742574128057
_cell_angle_beta     99.46810845158966
_cell_angle_gamma    84.64183364503134

_space_group_name_H-M_alt    "P 1"
_space_group_IT_number       1

loop_
  _space_group_symop_operation_xyz
  'x, y, z'

loop_
  _atom_site_type_symbol
  _atom_site_label
  _atom_site_symmetry_multiplicity
  _atom_site_fract_x
  _atom_site_fract_y
  _atom_site_fract_z
  _atom_site_occupancy
  Ca  Ca1       1.0  0.668607234954834  0.5683287382125854  0.9405080080032348  1.0000
  Dy  Dy1       1.0  0.8629615902900696  0.4011952579021454  0.8681277036666869  1.0000
  H   H1        1.0  0.07289465516805649  0.20873533189296722  0.07667689025402069  1.0000
  I   I1        1.0  0.2888900935649872  0.06788847595453262  0.6547880172729491  1.0000
  P   P1        1.0  0.07463789731264114  0.0823323056101799  0.061673827469348894  1.0000
  P   P2        1.0  0.17550019919872284  0.7642608284950256  0.7975979447364806  1.0000
  P   P3        1.0  0.3941689729690552  0.3190111517906189  0.4472420513629913  1.0000
  P   P4        1.0  0.029068585485219955  0.7396736145019531  0.9358240365982055  1.0000
  Pb  Pb1       1.0  0.912276566028595  0.21151481568813324  0.48930621147155756  1.0000
  Pd  Pd1       1.0  0.7597566246986389  0.9395703673362732  0.0701470673084259  1.0000
  Pt  Pt1       1.0  0.43402209877967834  0.8009081482887268  0.9853789210319518  1.0000
  Se  Se1       1.0  0.5120797157287598  0.8641701936721802  0.29804062843322743  1.0000
  Se  Se2       1.0  0.2535686790943146  0.25317180156707764  0.08971468359231945  1.0000
  Tb  Tb1       1.0  0.5385485291481018  0.28221994638442993  0.7753791213035582  1.0000
