data_image0
_chemical_formula_structural       P3Sb3Se2Tl6
_chemical_formula_sum              "P3 Sb3 Se2 Tl6"
_cell_length_a       6.8970902341088625
_cell_length_b       6.890588584115193
_cell_length_c       6.3651323318481445
_cell_angle_alpha    115.80646696218386
_cell_angle_beta     117.21369542390941
_cell_angle_gamma    117.85466847258937

_space_group_name_H-M_alt    "P 1"
_space_group_IT_number       1

loop_
  _space_group_symop_operation_xyz
  'x, y, z'

loop_
  _atom_site_type_symbol
  _atom_site_label
  _atom_site_symmetry_multiplicity
  _atom_site_fract_x
  _atom_site_fract_y
  _atom_site_fract_z
  _atom_site_occupancy
  P   P1        1.0  0.16523936390876756  0.2614257037639616  0.5382922291755675  1.0000
  P   P2        1.0  0.11846379935741426  0.8439959287643433  0.049787621945142545  1.0000
  P   P3        1.0  0.8058571219444277  0.9387617111206056  0.17786867916584007  1.0000
  Sb  Sb1       1.0  0.6774694919586182  0.61234712600708  0.25716805458068837  1.0000
  Sb  Sb2       1.0  0.8916630744934082  0.5674979686737059  0.03493620082736009  1.0000
  Sb  Sb3       1.0  0.3251314759254453  0.7510321140289303  0.8811098933219907  1.0000
  Se  Se1       1.0  0.08288057148456567  0.4660639762878417  0.6044141650199889  1.0000
  Se  Se2       1.0  0.6610822677612304  0.16266450285911546  0.643628180027008  1.0000
  Tl  Tl1       1.0  0.35424765944480885  0.31905916333198536  0.4224461019039153  1.0000
  Tl  Tl2       1.0  0.07149556279182434  0.522000789642334  0.21168336272239677  1.0000
  Tl  Tl3       1.0  0.41030108928680414  0.40660479664802546  0.22515487670898432  1.0000
  Tl  Tl4       1.0  0.3510162234306335  0.46100097894668574  0.003855254501104292  1.0000
  Tl  Tl5       1.0  0.4472728669643402  0.7856583595275879  0.12602458894252772  1.0000
  Tl  Tl6       1.0  0.9001611471176149  0.2613877952098846  0.08620496094226837  1.0000
