data_image0
_chemical_formula_structural       AlNa3O2PRuSeSi
_chemical_formula_sum              "Al1 Na3 O2 P1 Ru1 Se1 Si1"
_cell_length_a       4.43598495986887
_cell_length_b       7.069314676143528
_cell_length_c       7.279484272003174
_cell_angle_alpha    121.13496799741385
_cell_angle_beta     90.47872982676121
_cell_angle_gamma    90.8862435437449

_space_group_name_H-M_alt    "P 1"
_space_group_IT_number       1

loop_
  _space_group_symop_operation_xyz
  'x, y, z'

loop_
  _atom_site_type_symbol
  _atom_site_label
  _atom_site_symmetry_multiplicity
  _atom_site_fract_x
  _atom_site_fract_y
  _atom_site_fract_z
  _atom_site_occupancy
  Al  Al1       1.0  0.1431628316640854  0.8397354483604431  0.787401258945465  1.0000
  Na  Na1       1.0  0.5947275757789612  0.5996785759925842  0.11016269028186797  1.0000
  Na  Na2       1.0  0.6419565677642822  0.45434367656707764  0.566156268119812  1.0000
  Na  Na3       1.0  0.14641867578029633  0.10120104253292084  0.6080185770988463  1.0000
  O   O1        1.0  0.5843436121940613  0.6284691095352173  0.2094666659832  1.0000
  O   O2        1.0  0.6432649493217468  0.5276562571525574  0.9234772920608519  1.0000
  P   P1        1.0  0.15646913647651672  0.4633149802684784  0.9940031766891478  1.0000
  Ru  Ru1       1.0  0.14052613079547882  0.3390500843524933  0.7529977560043334  1.0000
  Se  Se1       1.0  0.6337218284606934  0.12181699275970459  0.8796463012695311  1.0000
  Si  Si1       1.0  0.1343410462141037  0.09493565559387207  0.04053064435720443  1.0000
