data_image0
_chemical_formula_structural       HoNa3O4OsSe
_chemical_formula_sum              "Ho1 Na3 O4 Os1 Se1"
_cell_length_a       4.704578554969503
_cell_length_b       7.233458772971078
_cell_length_c       6.775856971740723
_cell_angle_alpha    124.3447636144582
_cell_angle_beta     91.3876233221261
_cell_angle_gamma    92.58932775609907

_space_group_name_H-M_alt    "P 1"
_space_group_IT_number       1

loop_
  _space_group_symop_operation_xyz
  'x, y, z'

loop_
  _atom_site_type_symbol
  _atom_site_label
  _atom_site_symmetry_multiplicity
  _atom_site_fract_x
  _atom_site_fract_y
  _atom_site_fract_z
  _atom_site_occupancy
  Ho  Ho1       1.0  0.5858332514762878  0.8047919273376465  0.9237951040267944  1.0000
  Na  Na1       1.0  0.561103880405426  0.002406913787126541  0.7181478142738342  1.0000
  Na  Na2       1.0  0.5356951951980591  0.1461455374956131  0.737481415271759  1.0000
  Na  Na3       1.0  0.04227760434150696  0.6454600095748901  0.6633574962615967  1.0000
  O   O1        1.0  0.5412523746490479  0.34493187069892883  0.3618157207965851  1.0000
  O   O2        1.0  0.2705990672111511  0.5947626829147339  0.9722453951835632  1.0000
  O   O3        1.0  0.8683701157569885  0.6692081093788147  0.8902674317359924  1.0000
  O   O4        1.0  0.5937821269035339  0.32009565830230713  0.15958814322948456  1.0000
  Os  Os1       1.0  0.051542818546295166  0.8145974278450012  0.3023611605167389  1.0000
  Se  Se1       1.0  0.1015932485461235  0.6838197708129883  0.4337678253650665  1.0000
