data_image0
_chemical_formula_structural       Na4O3PrReRu
_chemical_formula_sum              "Na4 O3 Pr1 Re1 Ru1"
_cell_length_a       4.833814213542195
_cell_length_b       7.408538413274898
_cell_length_c       7.676473617553711
_cell_angle_alpha    122.77042639019126
_cell_angle_beta     90.60874163533069
_cell_angle_gamma    90.97018390521323

_space_group_name_H-M_alt    "P 1"
_space_group_IT_number       1

loop_
  _space_group_symop_operation_xyz
  'x, y, z'

loop_
  _atom_site_type_symbol
  _atom_site_label
  _atom_site_symmetry_multiplicity
  _atom_site_fract_x
  _atom_site_fract_y
  _atom_site_fract_z
  _atom_site_occupancy
  Na  Na1       1.0  0.06864912807941437  0.9613553285598756  0.0639848113059997  1.0000
  Na  Na2       1.0  0.5844166278839111  0.39664259552955633  0.04193855077028272  1.0000
  Na  Na3       1.0  0.564254641532898  0.7513135075569154  0.16065174341201782  1.0000
  Na  Na4       1.0  0.06446550041437149  0.44168555736541754  0.16009674966335294  1.0000
  O   O1        1.0  0.1121237501502037  0.03321828320622444  0.35102760791778564  1.0000
  O   O2        1.0  0.5990058183670044  0.4999989867210389  0.29979419708251953  1.0000
  O   O3        1.0  0.09056966751813889  0.5546958446502686  0.8448551297187806  1.0000
  Pr  Pr1       1.0  0.06725025177001953  0.9553478360176088  0.0034003381151705404  1.0000
  Re  Re1       1.0  0.5515276193618774  0.7472214698791505  0.5334858894348145  1.0000
  Ru  Ru1       1.0  0.3184475302696228  0.7425557374954225  0.5774752497673035  1.0000
