data_image0
_chemical_formula_structural       Na3O4PRhZr
_chemical_formula_sum              "Na3 O4 P1 Rh1 Zr1"
_cell_length_a       3.9762724402813223
_cell_length_b       7.5525748210923425
_cell_length_c       7.441561222076416
_cell_angle_alpha    124.73320902642419
_cell_angle_beta     88.10090476925329
_cell_angle_gamma    93.32651371656267

_space_group_name_H-M_alt    "P 1"
_space_group_IT_number       1

loop_
  _space_group_symop_operation_xyz
  'x, y, z'

loop_
  _atom_site_type_symbol
  _atom_site_label
  _atom_site_symmetry_multiplicity
  _atom_site_fract_x
  _atom_site_fract_y
  _atom_site_fract_z
  _atom_site_occupancy
  Na  Na1       1.0  0.08954554796218872  0.3638009130954743  0.9590588212013246  1.0000
  Na  Na2       1.0  0.09776514023542404  0.21683734655380252  0.4053806662559509  1.0000
  Na  Na3       1.0  0.6133676171302795  0.5339316129684448  0.43666845560073864  1.0000
  O   O1        1.0  0.6129554510116577  0.565514862537384  0.4514177441596986  1.0000
  O   O2        1.0  0.08245525509119035  0.8804654479026796  0.5855563282966614  1.0000
  O   O3        1.0  0.09086015075445175  0.051475360989570625  0.8871135115623474  1.0000
  O   O4        1.0  0.6182593703269958  0.728981912136078  0.9295194745063783  1.0000
  P   P1        1.0  0.09089381247758867  0.8787701129913331  0.764790415763855  1.0000
  Rh  Rh1       1.0  0.11868654936552048  0.7298984527587892  0.1785272955894471  1.0000
  Zr  Zr1       1.0  0.5756402611732483  0.3180287480354309  0.440138578414917  1.0000
