data_image0
_chemical_formula_structural       Na2O4OsRe3
_chemical_formula_sum              "Na2 O4 Os1 Re3"
_cell_length_a       4.382145116828076
_cell_length_b       7.446466387131737
_cell_length_c       6.685844898223877
_cell_angle_alpha    128.80468375246485
_cell_angle_beta     89.98317898327686
_cell_angle_gamma    88.63354830574924

_space_group_name_H-M_alt    "P 1"
_space_group_IT_number       1

loop_
  _space_group_symop_operation_xyz
  'x, y, z'

loop_
  _atom_site_type_symbol
  _atom_site_label
  _atom_site_symmetry_multiplicity
  _atom_site_fract_x
  _atom_site_fract_y
  _atom_site_fract_z
  _atom_site_occupancy
  Na  Na1       1.0  0.6811482906341553  0.6263095736503601  0.8258535861968994  1.0000
  Na  Na2       1.0  0.16652555763721466  0.7690262198448181  0.2015634030103683  1.0000
  O   O1        1.0  0.17751379311084747  0.5639534592628479  0.8046838045120239  1.0000
  O   O2        1.0  0.6948325634002686  0.9311140775680542  0.42967554926872253  1.0000
  O   O3        1.0  0.6539472341537476  0.5314742922782898  0.05353980511426926  1.0000
  O   O4        1.0  0.19653408229351044  0.08929535746574402  0.20294132828712463  1.0000
  Os  Os1       1.0  0.17174342274665833  0.10397187620401382  0.42673197388648987  1.0000
  Re  Re1       1.0  0.6879581212997437  0.9843549132347107  0.9337657690048217  1.0000
  Re  Re2       1.0  0.6693301200866699  0.7582952976226807  0.18485198915004725  1.0000
  Re  Re3       1.0  0.17693310976028442  0.43804454803466797  0.6567954421043396  1.0000
