data_image0
_chemical_formula_structural       Na2O4Os2Re2
_chemical_formula_sum              "Na2 O4 Os2 Re2"
_cell_length_a       4.765111420334502
_cell_length_b       5.197963064549703
_cell_length_c       6.07534646987915
_cell_angle_alpha    169.73115491829262
_cell_angle_beta     99.57990341171337
_cell_angle_gamma    77.78128059649521

_space_group_name_H-M_alt    "P 1"
_space_group_IT_number       1

loop_
  _space_group_symop_operation_xyz
  'x, y, z'

loop_
  _atom_site_type_symbol
  _atom_site_label
  _atom_site_symmetry_multiplicity
  _atom_site_fract_x
  _atom_site_fract_y
  _atom_site_fract_z
  _atom_site_occupancy
  Na  Na1       1.0  0.4171261191368103  0.8378080129623412  0.859575629234314  1.0000
  Na  Na2       1.0  0.888395369052887  0.4423230886459351  0.340130627155304  1.0000
  O   O1        1.0  0.87813401222229  0.8536487817764284  0.7265926003456117  1.0000
  O   O2        1.0  0.39074602723121643  0.9484639763832091  0.05629661306738856  1.0000
  O   O3        1.0  0.3551842272281647  0.9544202685356141  0.8091900944709778  1.0000
  O   O4        1.0  0.737960696220398  0.2948467433452609  0.9532877802848818  1.0000
  Os  Os1       1.0  0.3790254592895508  0.491950273513794  0.3172405660152436  1.0000
  Os  Os2       1.0  0.69316565990448  0.2099338322877884  0.32321596145629883  1.0000
  Re  Re1       1.0  0.7072622776031494  0.2199178785085678  0.7178456783294678  1.0000
  Re  Re2       1.0  0.14117936789989471  0.206628754734993  0.7165353298187256  1.0000
