data_image0
_chemical_formula_structural       AlAs4AuNi3
_chemical_formula_sum              "Al1 As4 Au1 Ni3"
_cell_length_a       5.582083404982879
_cell_length_b       6.211955270820712
_cell_length_c       6.267281532287598
_cell_angle_alpha    115.63457879947626
_cell_angle_beta     98.49764304190013
_cell_angle_gamma    108.12043141984334

_space_group_name_H-M_alt    "P 1"
_space_group_IT_number       1

loop_
  _space_group_symop_operation_xyz
  'x, y, z'

loop_
  _atom_site_type_symbol
  _atom_site_label
  _atom_site_symmetry_multiplicity
  _atom_site_fract_x
  _atom_site_fract_y
  _atom_site_fract_z
  _atom_site_occupancy
  Al  Al1       1.0  0.5973573327064514  0.19601060450077057  0.9439146518707275  1.0000
  As  As1       1.0  0.6356847286224365  0.5231208801269531  0.1251504272222519  1.0000
  As  As2       1.0  0.8828756809234619  0.5458711981773376  0.7366558313369751  1.0000
  As  As3       1.0  0.22919639945030212  0.9322868585586548  0.9368817806243896  1.0000
  As  As4       1.0  0.06744519621133804  0.15503409504890442  0.6099674105644226  1.0000
  Au  Au1       1.0  0.31798842549324036  0.02687334269285202  0.22767429053783417  1.0000
  Ni  Ni1       1.0  0.5888012051582336  0.7216686606407166  0.7996421456336975  1.0000
  Ni  Ni2       1.0  0.05177478864789009  0.9244492650032043  0.12161842733621597  1.0000
  Ni  Ni3       1.0  0.5872531533241272  0.6820387840270996  0.45735681056976324  1.0000
