data_image0
_chemical_formula_structural       Al3As2Ni3Rh
_chemical_formula_sum              "Al3 As2 Ni3 Rh1"
_cell_length_a       5.537140976656345
_cell_length_b       5.460090770261235
_cell_length_c       5.93696403503418
_cell_angle_alpha    113.59052511865389
_cell_angle_beta     101.67373805713989
_cell_angle_gamma    113.39482678958298

_space_group_name_H-M_alt    "P 1"
_space_group_IT_number       1

loop_
  _space_group_symop_operation_xyz
  'x, y, z'

loop_
  _atom_site_type_symbol
  _atom_site_label
  _atom_site_symmetry_multiplicity
  _atom_site_fract_x
  _atom_site_fract_y
  _atom_site_fract_z
  _atom_site_occupancy
  Al  Al1       1.0  0.6334076523780823  0.02729269303381443  0.8842307329177855  1.0000
  Al  Al2       1.0  0.3212275207042694  0.28801149129867554  0.7185530662536621  1.0000
  Al  Al3       1.0  0.9614286422729491  0.8114990592002869  0.6365844607353209  1.0000
  As  As1       1.0  0.6301990151405334  0.23873017728328705  0.9605756402015686  1.0000
  As  As2       1.0  0.11019039899110794  0.797411322593689  0.8823394775390625  1.0000
  Ni  Ni1       1.0  0.6574186682701111  0.5216763615608215  0.28750294446945185  1.0000
  Ni  Ni2       1.0  0.9733375906944274  0.5573603510856628  0.10484405606985085  1.0000
  Ni  Ni3       1.0  0.626508891582489  0.9082783460617065  0.9029186964035034  1.0000
  Rh  Rh1       1.0  0.29818055033683777  0.5819506645202637  0.897994339466095  1.0000
