data_image0
_chemical_formula_structural       AlAs3BEuNi2Zn
_chemical_formula_sum              "Al1 As3 B1 Eu1 Ni2 Zn1"
_cell_length_a       6.077652019502515
_cell_length_b       6.057354275272891
_cell_length_c       6.263999938964844
_cell_angle_alpha    109.49090515221926
_cell_angle_beta     107.11641867859066
_cell_angle_gamma    111.35772945671746

_space_group_name_H-M_alt    "P 1"
_space_group_IT_number       1

loop_
  _space_group_symop_operation_xyz
  'x, y, z'

loop_
  _atom_site_type_symbol
  _atom_site_label
  _atom_site_symmetry_multiplicity
  _atom_site_fract_x
  _atom_site_fract_y
  _atom_site_fract_z
  _atom_site_occupancy
  Al  Al1       1.0  0.309639573097229  0.8477944135665894  0.49410337209701544  1.0000
  As  As1       1.0  0.5637475252151489  0.5991564393043518  0.7742170691490173  1.0000
  As  As2       1.0  0.970800757408142  0.8542953133583069  0.49646323919296265  1.0000
  As  As3       1.0  0.319565087556839  0.3268425762653351  0.2177269011735916  1.0000
  B   B1        1.0  0.3083893358707428  0.8648188710212708  0.5091273188591003  1.0000
  Eu  Eu1       1.0  0.9082483053207396  0.18057768046855927  0.02315080724656582  1.0000
  Ni  Ni1       1.0  0.6913326382637024  0.9932165145874023  0.7755931615829468  1.0000
  Ni  Ni2       1.0  0.5416064858436584  0.8624311685562134  0.49602681398391724  1.0000
  Zn  Zn1       1.0  0.33601853251457214  0.5225339531898499  0.18062993884086612  1.0000
