data_image0
_chemical_formula_structural       As2AuNi4SeTe
_chemical_formula_sum              "As2 Au1 Ni4 Se1 Te1"
_cell_length_a       4.227941073371223
_cell_length_b       4.1225710666078115
_cell_length_c       4.847851276397705
_cell_angle_alpha    144.47605305814838
_cell_angle_beta     91.14294226700508
_cell_angle_gamma    80.56336510826948

_space_group_name_H-M_alt    "P 1"
_space_group_IT_number       1

loop_
  _space_group_symop_operation_xyz
  'x, y, z'

loop_
  _atom_site_type_symbol
  _atom_site_label
  _atom_site_symmetry_multiplicity
  _atom_site_fract_x
  _atom_site_fract_y
  _atom_site_fract_z
  _atom_site_occupancy
  As  As1       1.0  0.6481488347053528  0.3224053382873535  0.27967262268066406  1.0000
  As  As2       1.0  0.6405469179153442  0.941640317440033  0.631190299987793  1.0000
  Au  Au1       1.0  0.15104041993618011  0.8163468241691589  0.5633644461631775  1.0000
  Ni  Ni1       1.0  0.1655502915382385  0.9491131901741029  0.3370017409324646  1.0000
  Ni  Ni2       1.0  0.1340710073709488  0.1419835984706879  0.7486593127250671  1.0000
  Ni  Ni3       1.0  0.1554548740386963  0.33813372254371643  0.0067193545401096535  1.0000
  Ni  Ni4       1.0  0.6394599080085754  0.6199173331260682  0.6526035666465759  1.0000
  Se  Se1       1.0  0.6510978937149048  0.2986133992671967  0.4056365191936493  1.0000
  Te  Te1       1.0  0.16408567130565643  0.34010064601898193  0.9824562072753906  1.0000
