data_image0
_chemical_formula_structural       AlAs3ErGaNi3
_chemical_formula_sum              "Al1 As3 Er1 Ga1 Ni3"
_cell_length_a       5.506724961193858
_cell_length_b       6.037375517367683
_cell_length_c       6.239279747009277
_cell_angle_alpha    104.12249130526004
_cell_angle_beta     104.51545230651745
_cell_angle_gamma    114.87269014701587

_space_group_name_H-M_alt    "P 1"
_space_group_IT_number       1

loop_
  _space_group_symop_operation_xyz
  'x, y, z'

loop_
  _atom_site_type_symbol
  _atom_site_label
  _atom_site_symmetry_multiplicity
  _atom_site_fract_x
  _atom_site_fract_y
  _atom_site_fract_z
  _atom_site_occupancy
  Al  Al1       1.0  0.7367563247680664  0.3293442726135254  0.9739540815353394  1.0000
  As  As1       1.0  0.4262576103210449  0.666165828704834  0.927864670753479  1.0000
  As  As2       1.0  0.01673809066414833  0.7744397521018982  0.6634426116943359  1.0000
  As  As3       1.0  0.28119656443595886  0.5849253535270691  0.2694457173347473  1.0000
  Er  Er1       1.0  0.7622536420822144  0.07108066976070404  0.7225303053855896  1.0000
  Ga  Ga1       1.0  0.2864294648170471  0.582662045955658  0.7295462489128113  1.0000
  Ni  Ni1       1.0  0.398929625749588  0.3387976586818695  0.9740548133850098  1.0000
  Ni  Ni2       1.0  0.10447096079587936  0.07133118808269501  0.2261590212583542  1.0000
  Ni  Ni3       1.0  0.7718303799629211  0.066985584795475  0.23112823069095612  1.0000
