data_image0
_chemical_formula_structural       As4HgNi4
_chemical_formula_sum              "As4 Hg1 Ni4"
_cell_length_a       4.308181987164977
_cell_length_b       5.55826647863986
_cell_length_c       5.411812782287598
_cell_angle_alpha    122.60828174161217
_cell_angle_beta     90.33504211197267
_cell_angle_gamma    90.44791488340499

_space_group_name_H-M_alt    "P 1"
_space_group_IT_number       1

loop_
  _space_group_symop_operation_xyz
  'x, y, z'

loop_
  _atom_site_type_symbol
  _atom_site_label
  _atom_site_symmetry_multiplicity
  _atom_site_fract_x
  _atom_site_fract_y
  _atom_site_fract_z
  _atom_site_occupancy
  As  As1       1.0  0.8165621161460876  0.3871263563632965  0.04243043065071106  1.0000
  As  As2       1.0  0.8164715766906738  0.3639758229255676  0.06736122071743016  1.0000
  As  As3       1.0  0.32520216703414917  0.6123335361480713  0.6110014319419861  1.0000
  As  As4       1.0  0.3177260756492615  0.1129947081208229  0.8208075165748596  1.0000
  Hg  Hg1       1.0  0.8241212368011475  0.8498545289039612  0.3821108341217041  1.0000
  Ni  Ni1       1.0  0.8123512864112854  0.9691709876060487  0.24166531860828408  1.0000
  Ni  Ni2       1.0  0.32835653424263  0.853262186050415  0.5604283213615417  1.0000
  Ni  Ni3       1.0  0.31340882182121277  0.600812554359436  0.5579660534858704  1.0000
  Ni  Ni4       1.0  0.31824904680252075  0.07918248325586319  0.01655702106654644  1.0000
