data_image0
_chemical_formula_structural       ClTl6
_chemical_formula_sum              "Cl1 Tl6"
_cell_length_a       5.666608186931238
_cell_length_b       5.916688092853189
_cell_length_c       6.01511812210083
_cell_angle_alpha    69.83160237334333
_cell_angle_beta     66.91521438768666
_cell_angle_gamma    65.22481023895263

_space_group_name_H-M_alt    "P 1"
_space_group_IT_number       1

loop_
  _space_group_symop_operation_xyz
  'x, y, z'

loop_
  _atom_site_type_symbol
  _atom_site_label
  _atom_site_symmetry_multiplicity
  _atom_site_fract_x
  _atom_site_fract_y
  _atom_site_fract_z
  _atom_site_occupancy
  Cl  Cl1       1.0  0.5440155863761902  0.5848746299743652  0.10577623546123505  1.0000
  Tl  Tl1       1.0  0.4866940677165985  0.4669123888015747  0.41448161005973816  1.0000
  Tl  Tl2       1.0  0.9840531945228577  0.8331634998321533  0.3065054714679718  1.0000
  Tl  Tl3       1.0  0.9223368763923645  0.9120751023292542  0.8488332033157349  1.0000
  Tl  Tl4       1.0  0.9198086857795715  0.3941706120967865  0.3590458333492279  1.0000
  Tl  Tl5       1.0  0.006458490155637264  0.5665683150291443  0.9740601181983948  1.0000
  Tl  Tl6       1.0  0.4788728952407837  0.9566949605941772  0.47170490026474  1.0000
