data_image0
_chemical_formula_structural       Lu9O
_chemical_formula_sum              "Lu9 O1"
_cell_length_a       6.227926578961024
_cell_length_b       6.426017745992852
_cell_length_c       7.243882656097412
_cell_angle_alpha    108.57482116251927
_cell_angle_beta     105.0293284235167
_cell_angle_gamma    112.41591477257782

_space_group_name_H-M_alt    "P 1"
_space_group_IT_number       1

loop_
  _space_group_symop_operation_xyz
  'x, y, z'

loop_
  _atom_site_type_symbol
  _atom_site_label
  _atom_site_symmetry_multiplicity
  _atom_site_fract_x
  _atom_site_fract_y
  _atom_site_fract_z
  _atom_site_occupancy
  Lu  Lu1       1.0  0.029741767793893814  0.8602976202964783  0.8293795585632323  1.0000
  Lu  Lu2       1.0  0.7659945487976074  0.5219996571540833  0.4602895379066467  1.0000
  Lu  Lu3       1.0  0.6113336086273193  0.013709789142012596  0.7179445028305053  1.0000
  Lu  Lu4       1.0  0.5703725814819336  0.0166527908295393  0.14568202197551727  1.0000
  Lu  Lu5       1.0  0.07019651681184769  0.5141533017158508  0.1373928189277649  1.0000
  Lu  Lu6       1.0  0.3275770843029022  0.34141767024993896  0.7722246050834655  1.0000
  Lu  Lu7       1.0  0.3377067744731903  0.879716694355011  0.33894380927085865  1.0000
  Lu  Lu8       1.0  0.3009341061115265  0.5173459649085999  0.9929789900779723  1.0000
  Lu  Lu9       1.0  0.8269503712654114  0.5248493552207947  0.8340622782707213  1.0000
  O   O1        1.0  0.33242639899253845  0.30963587760925293  0.6375660300254821  1.0000
