data_image0
_chemical_formula_structural       Lu8OZr
_chemical_formula_sum              "Lu8 O1 Zr1"
_cell_length_a       4.559635802849221
_cell_length_b       6.1539264018671975
_cell_length_c       8.079398155212402
_cell_angle_alpha    100.10346011884569
_cell_angle_beta     92.95426994450783
_cell_angle_gamma    99.00846574534654

_space_group_name_H-M_alt    "P 1"
_space_group_IT_number       1

loop_
  _space_group_symop_operation_xyz
  'x, y, z'

loop_
  _atom_site_type_symbol
  _atom_site_label
  _atom_site_symmetry_multiplicity
  _atom_site_fract_x
  _atom_site_fract_y
  _atom_site_fract_z
  _atom_site_occupancy
  Lu  Lu1       1.0  0.600966215133667  0.5933243036270142  0.15329581499099731  1.0000
  Lu  Lu2       1.0  0.07830224186182022  0.4077787399291992  0.5806533098220825  1.0000
  Lu  Lu3       1.0  0.5783829689025879  0.02606596238911152  0.3333973288536072  1.0000
  Lu  Lu4       1.0  0.5153947472572327  0.7387365102767944  0.875499963760376  1.0000
  Lu  Lu5       1.0  0.08625321090221405  0.9184329509735107  0.648341715335846  1.0000
  Lu  Lu6       1.0  0.47835081815719604  0.21424128115177155  0.6291124820709229  1.0000
  Lu  Lu7       1.0  0.1288764476776123  0.4261453151702881  0.36803367733955383  1.0000
  Lu  Lu8       1.0  0.7216365933418274  0.2517547309398651  0.3319186270236969  1.0000
  O   O1        1.0  0.7065020799636841  0.04782387614250183  0.5483081936836243  1.0000
  Zr  Zr1       1.0  0.10852409154176712  0.1972210705280304  0.8054997324943542  1.0000
