data_image0
_chemical_formula_structural       GaLu5Ru3Tl
_chemical_formula_sum              "Ga1 Lu5 Ru3 Tl1"
_cell_length_a       5.001540452051837
_cell_length_b       6.378499182260959
_cell_length_c       6.639410495758057
_cell_angle_alpha    120.70907690387253
_cell_angle_beta     90.38724040576315
_cell_angle_gamma    92.5839030891101

_space_group_name_H-M_alt    "P 1"
_space_group_IT_number       1

loop_
  _space_group_symop_operation_xyz
  'x, y, z'

loop_
  _atom_site_type_symbol
  _atom_site_label
  _atom_site_symmetry_multiplicity
  _atom_site_fract_x
  _atom_site_fract_y
  _atom_site_fract_z
  _atom_site_occupancy
  Ga  Ga1       1.0  0.08506327122449875  0.9200193881988525  0.6512711644172667  1.0000
  Lu  Lu1       1.0  0.10554775595664978  0.415036141872406  0.3583170175552368  1.0000
  Lu  Lu2       1.0  0.6059526801109314  0.9489267468452454  0.8612692952156068  1.0000
  Lu  Lu3       1.0  0.6084469556808472  0.685237467288971  0.3106631934642791  1.0000
  Lu  Lu4       1.0  0.6017399430274963  0.4368152320384979  0.6525720357894897  1.0000
  Lu  Lu5       1.0  0.09897579997777939  0.4048016667366028  0.8762083053588868  1.0000
  Ru  Ru1       1.0  0.08528520166873932  0.02745317853987217  0.6513421535491943  1.0000
  Ru  Ru2       1.0  0.8494980931282043  0.4064607620239258  0.16709765791893005  1.0000
  Ru  Ru3       1.0  0.3512863218784332  0.4148268401622772  0.15786027908325193  1.0000
  Tl  Tl1       1.0  0.09963499009609222  0.9089587926864624  0.8901656270027162  1.0000
