data_image0
_chemical_formula_structural       B4BaOs2RuTl2
_chemical_formula_sum              "B4 Ba1 Os2 Ru1 Tl2"
_cell_length_a       3.833917618201022
_cell_length_b       6.700721426101317
_cell_length_c       7.062886714935303
_cell_angle_alpha    121.83275709279428
_cell_angle_beta     85.28887636948775
_cell_angle_gamma    88.15346095621109

_space_group_name_H-M_alt    "P 1"
_space_group_IT_number       1

loop_
  _space_group_symop_operation_xyz
  'x, y, z'

loop_
  _atom_site_type_symbol
  _atom_site_label
  _atom_site_symmetry_multiplicity
  _atom_site_fract_x
  _atom_site_fract_y
  _atom_site_fract_z
  _atom_site_occupancy
  B   B1        1.0  0.04654505103826522  0.6119741797447205  0.09497988224029541  1.0000
  B   B2        1.0  0.5341653823852539  0.8278095722198486  0.7297783493995667  1.0000
  B   B3        1.0  0.028453990817070004  0.32530897855758667  0.904177725315094  1.0000
  B   B4        1.0  0.03794210031628608  0.29607751965522766  0.45897358655929565  1.0000
  Ba  Ba1       1.0  0.5387606024742126  0.30549535155296326  0.2747766971588135  1.0000
  Os  Os1       1.0  0.5397828817367554  0.1020972728729248  0.7981826066970825  1.0000
  Os  Os2       1.0  0.031682152301073074  0.12491936981678008  0.4357280731201172  1.0000
  Ru  Ru1       1.0  0.5410602688789368  0.10113362967967987  0.08605877310037613  1.0000
  Tl  Tl1       1.0  0.5292748212814331  0.8002410531044006  0.9127823114395142  1.0000
  Tl  Tl2       1.0  0.0310380607843399  0.6575073599815369  0.600368857383728  1.0000
