data_image0
_chemical_formula_structural       BLu7Ru2
_chemical_formula_sum              "B1 Lu7 Ru2"
_cell_length_a       5.511167802667039
_cell_length_b       5.850594195157383
_cell_length_c       6.620582103729248
_cell_angle_alpha    107.19332800780501
_cell_angle_beta     104.43158919931837
_cell_angle_gamma    113.69238025828511

_space_group_name_H-M_alt    "P 1"
_space_group_IT_number       1

loop_
  _space_group_symop_operation_xyz
  'x, y, z'

loop_
  _atom_site_type_symbol
  _atom_site_label
  _atom_site_symmetry_multiplicity
  _atom_site_fract_x
  _atom_site_fract_y
  _atom_site_fract_z
  _atom_site_occupancy
  B   B1        1.0  0.0100261764600873  0.7966777086257935  0.9005538821220397  1.0000
  Lu  Lu1       1.0  0.4956660866737366  0.8426920771598816  0.7921724319458007  1.0000
  Lu  Lu2       1.0  0.5267806053161621  0.3059152364730835  0.06370721757411957  1.0000
  Lu  Lu3       1.0  0.8078116178512573  0.5470780730247498  0.5830932855606079  1.0000
  Lu  Lu4       1.0  0.5183489322662354  0.33289578557014465  0.8147830367088317  1.0000
  Lu  Lu5       1.0  0.02187943272292614  0.8153731226921082  0.9558786749839782  1.0000
  Lu  Lu6       1.0  0.2560696601867676  0.011930115520954132  0.548647403717041  1.0000
  Lu  Lu7       1.0  0.5958156585693359  0.28221437335014343  0.955220341682434  1.0000
  Ru  Ru1       1.0  0.11620583385229111  0.49048760533332825  0.08273305743932724  1.0000
  Ru  Ru2       1.0  0.7913776636123657  0.796195924282074  0.28759318590164185  1.0000
