data_image0
_chemical_formula_structural       B4Os3Ru2Tl
_chemical_formula_sum              "B4 Os3 Ru2 Tl1"
_cell_length_a       3.8634573551904627
_cell_length_b       7.000467496447898
_cell_length_c       7.3038716316223145
_cell_angle_alpha    123.47369273299348
_cell_angle_beta     90.10192194776113
_cell_angle_gamma    88.91051560565299

_space_group_name_H-M_alt    "P 1"
_space_group_IT_number       1

loop_
  _space_group_symop_operation_xyz
  'x, y, z'

loop_
  _atom_site_type_symbol
  _atom_site_label
  _atom_site_symmetry_multiplicity
  _atom_site_fract_x
  _atom_site_fract_y
  _atom_site_fract_z
  _atom_site_occupancy
  B   B1        1.0  0.6345470547676086  0.07449135184288025  0.6859332919120789  1.0000
  B   B2        1.0  0.637068510055542  0.6574684977531433  0.20026566088199615  1.0000
  B   B3        1.0  0.1368199586868286  0.6968761682510376  0.4445006251335144  1.0000
  B   B4        1.0  0.1401538848876953  0.8762304186820984  0.7139049172401428  1.0000
  Os  Os1       1.0  0.12147945165634155  0.38199567794799805  0.12348762899637222  1.0000
  Os  Os2       1.0  0.6395741105079651  0.4023784399032593  0.6935992240905762  1.0000
  Os  Os3       1.0  0.14332710206508636  0.8643885850906372  0.9776812195777893  1.0000
  Ru  Ru1       1.0  0.6228554844856262  0.8686793446540833  0.9360682964324951  1.0000
  Ru  Ru2       1.0  0.6119140386581421  0.37490835785865784  0.4216720461845398  1.0000
  Tl  Tl1       1.0  0.6383680701255798  0.24045802652835846  0.27674034237861633  1.0000
