data_image0
_chemical_formula_structural       CCs6O2
_chemical_formula_sum              "C1 Cs6 O2"
_cell_length_a       5.104152776954881
_cell_length_b       6.091116201552632
_cell_length_c       8.355267524719238
_cell_angle_alpha    74.8639653734088
_cell_angle_beta     69.33350367596309
_cell_angle_gamma    64.34696144712349

_space_group_name_H-M_alt    "P 1"
_space_group_IT_number       1

loop_
  _space_group_symop_operation_xyz
  'x, y, z'

loop_
  _atom_site_type_symbol
  _atom_site_label
  _atom_site_symmetry_multiplicity
  _atom_site_fract_x
  _atom_site_fract_y
  _atom_site_fract_z
  _atom_site_occupancy
  C   C1        1.0  0.652559220790863  0.9534177780151367  0.4656028747558594  1.0000
  Cs  Cs1       1.0  0.16227655112743378  0.7917383909225464  0.9029165506362915  1.0000
  Cs  Cs2       1.0  0.19675718247890472  0.9294195175170898  0.48978152871131897  1.0000
  Cs  Cs3       1.0  0.6761909127235413  0.07899020612239838  0.635888397693634  1.0000
  Cs  Cs4       1.0  0.19458085298538208  0.43471261858940125  0.3804568350315094  1.0000
  Cs  Cs5       1.0  0.6299682259559631  0.4889858365058899  0.9753223061561584  1.0000
  Cs  Cs6       1.0  0.6233831644058228  0.9639753103256226  0.03644270449876785  1.0000
  O   O1        1.0  0.21494191884994507  0.29645392298698425  0.051354873925447464  1.0000
  O   O2        1.0  0.711185097694397  0.9740074872970581  0.002099551493301961  1.0000
