data_image0
_chemical_formula_structural       CCs5HO2
_chemical_formula_sum              "C1 Cs5 H1 O2"
_cell_length_a       5.326746663559532
_cell_length_b       6.054941849752823
_cell_length_c       7.683309555053711
_cell_angle_alpha    71.06611248555053
_cell_angle_beta     65.98176039152459
_cell_angle_gamma    63.44460837086982

_space_group_name_H-M_alt    "P 1"
_space_group_IT_number       1

loop_
  _space_group_symop_operation_xyz
  'x, y, z'

loop_
  _atom_site_type_symbol
  _atom_site_label
  _atom_site_symmetry_multiplicity
  _atom_site_fract_x
  _atom_site_fract_y
  _atom_site_fract_z
  _atom_site_occupancy
  C   C1        1.0  0.43912971019744873  0.05251094326376915  0.6967876553535461  1.0000
  Cs  Cs1       1.0  0.5098862648010254  0.23153255879878998  0.9974361658096313  1.0000
  Cs  Cs2       1.0  0.018121784552931786  0.23446616530418396  0.00691961357370019  1.0000
  Cs  Cs3       1.0  0.1829744428396225  0.5401255488395691  0.5730051398277283  1.0000
  Cs  Cs4       1.0  0.04929070919752121  0.2215687483549118  0.0736355185508728  1.0000
  Cs  Cs5       1.0  0.5395220518112183  0.673032283782959  0.24858932197093964  1.0000
  H   H1        1.0  0.832257091999054  0.5667833685874939  0.22675153613090515  1.0000
  O   O1        1.0  0.6679103970527649  0.2181793600320816  0.23850850760936734  1.0000
  O   O2        1.0  0.6900221705436707  0.18597905337810516  0.44726690649986267  1.0000
