data_image0
_chemical_formula_structural       Cs6O3
_chemical_formula_sum              "Cs6 O3"
_cell_length_a       4.8259157595733155
_cell_length_b       8.306431728074577
_cell_length_c       8.377366065979004
_cell_angle_alpha    119.01040682363782
_cell_angle_beta     89.82559485447108
_cell_angle_gamma    89.60601990807805

_space_group_name_H-M_alt    "P 1"
_space_group_IT_number       1

loop_
  _space_group_symop_operation_xyz
  'x, y, z'

loop_
  _atom_site_type_symbol
  _atom_site_label
  _atom_site_symmetry_multiplicity
  _atom_site_fract_x
  _atom_site_fract_y
  _atom_site_fract_z
  _atom_site_occupancy
  Cs  Cs1       1.0  0.8240501880645752  0.9786170125007629  0.09749597311019903  1.0000
  Cs  Cs2       1.0  0.32351914048194885  0.4384649991989136  0.17922523617744446  1.0000
  Cs  Cs3       1.0  0.8260235786437988  0.6199193000793457  0.9215551018714905  1.0000
  Cs  Cs4       1.0  0.33115842938423157  0.11368174850940704  0.8575630784034729  1.0000
  Cs  Cs5       1.0  0.8222336173057556  0.6287509799003601  0.4890801012516022  1.0000
  Cs  Cs6       1.0  0.8297521471977234  0.6738653182983398  0.26365393400192266  1.0000
  O   O1        1.0  0.32398730516433716  0.2744498550891876  0.6081328392028809  1.0000
  O   O2        1.0  0.33035019040107727  0.36629626154899597  0.5530635118484497  1.0000
  O   O3        1.0  0.8368476629257202  0.3593204617500305  0.8839194178581238  1.0000
