data_image0
_chemical_formula_structural       CCs5MoO2
_chemical_formula_sum              "C1 Cs5 Mo1 O2"
_cell_length_a       4.33268381177779
_cell_length_b       7.742400870345631
_cell_length_c       7.858797073364258
_cell_angle_alpha    118.99229760298859
_cell_angle_beta     87.90118633249487
_cell_angle_gamma    89.84920336754521

_space_group_name_H-M_alt    "P 1"
_space_group_IT_number       1

loop_
  _space_group_symop_operation_xyz
  'x, y, z'

loop_
  _atom_site_type_symbol
  _atom_site_label
  _atom_site_symmetry_multiplicity
  _atom_site_fract_x
  _atom_site_fract_y
  _atom_site_fract_z
  _atom_site_occupancy
  C   C1        1.0  0.49053508043289185  0.27897748351097107  0.3560476303100586  1.0000
  Cs  Cs1       1.0  0.49285343289375305  0.41406577825546265  0.1287843734025955  1.0000
  Cs  Cs2       1.0  0.9925187230110168  0.3492000699043274  0.04331810772418976  1.0000
  Cs  Cs3       1.0  0.9926509261131287  0.6817620992660522  0.05260484665632248  1.0000
  Cs  Cs4       1.0  0.49229928851127625  0.03229526802897453  0.8950082063674927  1.0000
  Cs  Cs5       1.0  0.9910167455673218  0.5276433825492859  0.4814945459365845  1.0000
  Mo  Mo1       1.0  0.4909045994281769  0.5850897431373596  0.5290195345878601  1.0000
  O   O1        1.0  0.5017618536949158  0.8705086708068848  0.6829143762588501  1.0000
  O   O2        1.0  0.0027801040560007095  0.19535331428050995  0.6984674334526062  1.0000
