data_image0
_chemical_formula_structural       GePrRuZnZr2
_chemical_formula_sum              "Ge1 Pr1 Ru1 Zn1 Zr2"
_cell_length_a       4.291311449962002
_cell_length_b       5.410687212756571
_cell_length_c       5.483108997344971
_cell_angle_alpha    89.77655443915154
_cell_angle_beta     90.33452353099214
_cell_angle_gamma    91.44000996535458

_space_group_name_H-M_alt    "P 1"
_space_group_IT_number       1

loop_
  _space_group_symop_operation_xyz
  'x, y, z'

loop_
  _atom_site_type_symbol
  _atom_site_label
  _atom_site_symmetry_multiplicity
  _atom_site_fract_x
  _atom_site_fract_y
  _atom_site_fract_z
  _atom_site_occupancy
  Ge  Ge1       1.0  0.8080906271934509  0.5399277210235596  0.6173301339149475  1.0000
  Pr  Pr1       1.0  0.818092942237854  0.013027352280914783  0.9142433404922485  1.0000
  Ru  Ru1       1.0  0.8265197277069092  0.7878019213676453  0.9079757928848267  1.0000
  Zn  Zn1       1.0  0.3257201611995697  0.7492252588272095  0.46518847346305847  1.0000
  Zr  Zr1       1.0  0.3278021812438965  0.9318173527717591  0.9239948391914368  1.0000
  Zr  Zr2       1.0  0.813316285610199  0.3587891161441803  0.559722900390625  1.0000
