data_image0
_chemical_formula_structural       Y6
_chemical_formula_sum              "Y6"
_cell_length_a       5.073740092130048
_cell_length_b       4.334075435471243
_cell_length_c       5.7329936027526855
_cell_angle_alpha    90.24706711321748
_cell_angle_beta     113.27523447071923
_cell_angle_gamma    90.9783886652399

_space_group_name_H-M_alt    "P 1"
_space_group_IT_number       1

loop_
  _space_group_symop_operation_xyz
  'x, y, z'

loop_
  _atom_site_type_symbol
  _atom_site_label
  _atom_site_symmetry_multiplicity
  _atom_site_fract_x
  _atom_site_fract_y
  _atom_site_fract_z
  _atom_site_occupancy
  Y   Y1        1.0  0.454211562871933  0.6152873039245605  0.03462440147995949  1.0000
  Y   Y2        1.0  0.5816622972488403  0.008416764438152313  0.2616346776485443  1.0000
  Y   Y3        1.0  0.21104225516319275  0.9720291495323181  0.02923465333878994  1.0000
  Y   Y4        1.0  0.8616660237312317  0.7747138142585754  0.38271525502204895  1.0000
  Y   Y5        1.0  0.9233169555664062  0.562587559223175  0.15273235738277435  1.0000
  Y   Y6        1.0  0.8389017581939697  0.48728978633880615  0.5201234817504883  1.0000
