data_image0
_chemical_formula_structural       CaTa4Tb2Te4Ti4
_chemical_formula_sum              "Ca1 Ta4 Tb2 Te4 Ti4"
_cell_length_a       5.167630078753972
_cell_length_b       7.129922698393583
_cell_length_c       13.0857515335083
_cell_angle_alpha    81.15511362607211
_cell_angle_beta     76.47194294534813
_cell_angle_gamma    67.3200669982036

_space_group_name_H-M_alt    "P 1"
_space_group_IT_number       1

loop_
  _space_group_symop_operation_xyz
  'x, y, z'

loop_
  _atom_site_type_symbol
  _atom_site_label
  _atom_site_symmetry_multiplicity
  _atom_site_fract_x
  _atom_site_fract_y
  _atom_site_fract_z
  _atom_site_occupancy
  Ca  Ca1       1.0  0.7065979242324829  0.11766117811203003  0.16476315259933472  1.0000
  Ta  Ta1       1.0  0.9604329466819763  0.5634646415710449  0.7734147906303406  1.0000
  Ta  Ta2       1.0  0.8231792449951172  0.8388475775718689  0.6905703544616699  1.0000
  Ta  Ta3       1.0  0.4415188133716583  0.7037541270256042  0.9195470809936522  1.0000
  Ta  Ta4       1.0  0.47926393151283264  0.51657634973526  0.5632199645042419  1.0000
  Tb  Tb1       1.0  0.7377386093139648  0.8642428517341614  0.6117269396781921  1.0000
  Tb  Tb2       1.0  0.47575125098228455  0.3725942075252533  0.7673930525779724  1.0000
  Te  Te1       1.0  0.9433760643005371  0.3641599416732788  0.95138281583786  1.0000
  Te  Te2       1.0  0.3465375006198883  0.34917137026786804  0.7400045990943909  1.0000
  Te  Te3       1.0  0.40991848707199097  0.6686395406723022  0.5950403809547424  1.0000
  Te  Te4       1.0  0.9700016975402832  0.22692981362342834  0.7454093098640442  1.0000
  Ti  Ti1       1.0  0.607683539390564  0.7534646391868591  0.3846096694469452  1.0000
  Ti  Ti2       1.0  0.10523830354213715  0.5941065549850464  0.845816433429718  1.0000
  Ti  Ti3       1.0  0.9973812103271484  0.10937666147947311  0.052740730345249176  1.0000
  Ti  Ti4       1.0  0.3931190073490143  0.6798136830329895  0.8314963579177856  1.0000
