data_image0
_chemical_formula_structural       CaNReRhTa4Te4Ti3
_chemical_formula_sum              "Ca1 N1 Re1 Rh1 Ta4 Te4 Ti3"
_cell_length_a       4.931320911702107
_cell_length_b       5.044015515986453
_cell_length_c       12.843409538269043
_cell_angle_alpha    85.24774630902411
_cell_angle_beta     85.79058774788982
_cell_angle_gamma    58.416580624433635

_space_group_name_H-M_alt    "P 1"
_space_group_IT_number       1

loop_
  _space_group_symop_operation_xyz
  'x, y, z'

loop_
  _atom_site_type_symbol
  _atom_site_label
  _atom_site_symmetry_multiplicity
  _atom_site_fract_x
  _atom_site_fract_y
  _atom_site_fract_z
  _atom_site_occupancy
  Ca  Ca1       1.0  0.13327977061271667  0.9836183190345764  0.41089528799057007  1.0000
  N   N1        1.0  0.3521174192428589  0.27503836154937744  0.9141982793807983  1.0000
  Re  Re1       1.0  0.2894306182861328  0.38369882106781006  0.42102569341659546  1.0000
  Rh  Rh1       1.0  0.9982615709304811  0.4733916223049164  0.5982853770256042  1.0000
  Ta  Ta1       1.0  0.8916530013084413  0.7504892945289612  0.9755533337593079  1.0000
  Ta  Ta2       1.0  0.4961515367031098  0.9690324664115906  0.6247466206550598  1.0000
  Ta  Ta3       1.0  0.4038543105125427  0.27656853199005127  0.3158043622970581  1.0000
  Ta  Ta4       1.0  0.4087730646133423  0.7209729552268982  0.2970970571041107  1.0000
  Te  Te1       1.0  0.37549301981925964  0.26395055651664734  0.8885803818702698  1.0000
  Te  Te2       1.0  0.9015931487083436  0.7886924743652344  0.02460809424519539  1.0000
  Te  Te3       1.0  0.4183638095855713  0.23694463074207306  0.9006253480911255  1.0000
  Te  Te4       1.0  0.4002731442451477  0.27325668931007385  0.5425183773040771  1.0000
  Ti  Ti1       1.0  0.942394256591797  0.993340015411377  0.5340052843093872  1.0000
  Ti  Ti2       1.0  0.8813367486000062  0.31236350536346436  0.018327917903661724  1.0000
  Ti  Ti3       1.0  0.8618581891059877  0.22145976126194  0.14573602378368378  1.0000
