data_image0
_chemical_formula_structural       CdIn2RbTa3TbTe7
_chemical_formula_sum              "Cd1 In2 Rb1 Ta3 Tb1 Te7"
_cell_length_a       6.037856377275421
_cell_length_b       8.739792286601423
_cell_length_c       13.757811546325684
_cell_angle_alpha    83.5695879010826
_cell_angle_beta     74.67311970690633
_cell_angle_gamma    63.93711595046786

_space_group_name_H-M_alt    "P 1"
_space_group_IT_number       1

loop_
  _space_group_symop_operation_xyz
  'x, y, z'

loop_
  _atom_site_type_symbol
  _atom_site_label
  _atom_site_symmetry_multiplicity
  _atom_site_fract_x
  _atom_site_fract_y
  _atom_site_fract_z
  _atom_site_occupancy
  Cd  Cd1       1.0  0.027455199509859047  0.3349201083183289  0.6126429438591003  1.0000
  In  In1       1.0  0.9459880590438843  0.8209742903709413  0.7862969636917113  1.0000
  In  In2       1.0  0.2255675643682479  0.6042217612266542  0.6658152937889098  1.0000
  Rb  Rb1       1.0  0.5636905431747437  0.36553999781608587  0.8185334801673888  1.0000
  Ta  Ta1       1.0  0.9525591135025024  0.6300626993179322  0.583738386631012  1.0000
  Ta  Ta2       1.0  0.2164404094219207  0.8082637786865235  0.13759036362171173  1.0000
  Ta  Ta3       1.0  0.5106639862060547  0.44508898258209234  0.22438246011734006  1.0000
  Tb  Tb1       1.0  0.013930910266935825  0.0048058205284178266  0.7316136360168456  1.0000
  Te  Te1       1.0  0.3016987442970275  0.7962788343429567  0.5564621686935425  1.0000
  Te  Te2       1.0  0.7906094789505005  0.41393142938613897  0.827679932117462  1.0000
  Te  Te3       1.0  0.7396686673164368  0.7043901085853578  0.37145072221755976  1.0000
  Te  Te4       1.0  0.511448860168457  0.4296494126319886  0.2234566807746887  1.0000
  Te  Te5       1.0  0.8098183870315552  0.6270135045051576  0.7853731513023375  1.0000
  Te  Te6       1.0  0.940132737159729  0.5861014723777772  0.0012062788009643555  1.0000
  Te  Te7       1.0  0.28685465455055226  0.7783102393150331  0.04465104267001151  1.0000
