data_image0
_chemical_formula_structural       CuTa5TbTe6Ti2
_chemical_formula_sum              "Cu1 Ta5 Tb1 Te6 Ti2"
_cell_length_a       6.4391954699706515
_cell_length_b       7.009345511042519
_cell_length_c       12.123478889465332
_cell_angle_alpha    74.55823313087492
_cell_angle_beta     73.18662669237442
_cell_angle_gamma    61.4369302374406

_space_group_name_H-M_alt    "P 1"
_space_group_IT_number       1

loop_
  _space_group_symop_operation_xyz
  'x, y, z'

loop_
  _atom_site_type_symbol
  _atom_site_label
  _atom_site_symmetry_multiplicity
  _atom_site_fract_x
  _atom_site_fract_y
  _atom_site_fract_z
  _atom_site_occupancy
  Cu  Cu1       1.0  0.14696604013442993  0.44773513078689575  0.27898144721984863  1.0000
  Ta  Ta1       1.0  0.5066291093826294  0.028051430359482765  0.9502780437469482  1.0000
  Ta  Ta2       1.0  0.3127105236053467  0.16871516406536102  0.6806966066360474  1.0000
  Ta  Ta3       1.0  0.09914857894182205  0.7535443305969238  0.4592732787132263  1.0000
  Ta  Ta4       1.0  0.6555895209312439  0.6403498649597168  0.30191507935523987  1.0000
  Ta  Ta5       1.0  0.45159038901329046  0.7003817558288574  0.09513555467128754  1.0000
  Tb  Tb1       1.0  0.6585913300514221  0.39439815282821655  0.28726574778556824  1.0000
  Te  Te1       1.0  0.02630787156522274  0.5404382348060608  0.9777176380157471  1.0000
  Te  Te2       1.0  0.07762884348630905  0.6698390245437622  0.20803847908973694  1.0000
  Te  Te3       1.0  0.10892318934202196  0.20103538036346436  0.4571881890296936  1.0000
  Te  Te4       1.0  0.596813440322876  0.19585169851779938  0.16282258927822113  1.0000
  Te  Te5       1.0  0.6796398162841797  0.2935301959514618  0.6559073328971863  1.0000
  Te  Te6       1.0  0.5775201320648193  0.6045032739639282  0.9297996759414673  1.0000
  Ti  Ti1       1.0  0.05575818195939065  0.2149370014667511  0.25552403926849365  1.0000
  Ti  Ti2       1.0  0.3703242242336273  0.8909803032875061  0.5547081828117371  1.0000
