data_image0
_chemical_formula_structural       CuTa5TbTe3Ti5
_chemical_formula_sum              "Cu1 Ta5 Tb1 Te3 Ti5"
_cell_length_a       4.152145043329806
_cell_length_b       7.118932299284385
_cell_length_c       13.270133972167969
_cell_angle_alpha    92.55068163236709
_cell_angle_beta     89.33003790159503
_cell_angle_gamma    93.35817130317677

_space_group_name_H-M_alt    "P 1"
_space_group_IT_number       1

loop_
  _space_group_symop_operation_xyz
  'x, y, z'

loop_
  _atom_site_type_symbol
  _atom_site_label
  _atom_site_symmetry_multiplicity
  _atom_site_fract_x
  _atom_site_fract_y
  _atom_site_fract_z
  _atom_site_occupancy
  Cu  Cu1       1.0  0.9550060033798218  0.8773333430290223  0.943003237247467  1.0000
  Ta  Ta1       1.0  0.9513168931007385  0.5984309315681458  0.1478213667869568  1.0000
  Ta  Ta2       1.0  0.4560389518737793  0.40293091535568243  0.21575890481472015  1.0000
  Ta  Ta3       1.0  0.4356251060962677  0.123318187892437  0.65135657787323  1.0000
  Ta  Ta4       1.0  0.4576941728591919  0.8723243474960328  0.27289628982543945  1.0000
  Ta  Ta5       1.0  0.9545519948005676  0.2642749845981598  0.3540129065513611  1.0000
  Tb  Tb1       1.0  0.43737077713012695  0.3683403730392456  0.4951285719871521  1.0000
  Te  Te1       1.0  0.4577595293521881  0.8875964879989625  0.040985625237226486  1.0000
  Te  Te2       1.0  0.954840898513794  0.20233221352100375  0.989375650882721  1.0000
  Te  Te3       1.0  0.4507353603839874  0.6973602175712585  0.47737613320350647  1.0000
  Ti  Ti1       1.0  0.4519623816013336  0.6795533895492554  0.8469304442405701  1.0000
  Ti  Ti2       1.0  0.4538409411907196  0.6882626414299011  0.10660137981176376  1.0000
  Ti  Ti3       1.0  0.9527458548545837  0.8893701434135438  0.015071611851453786  1.0000
  Ti  Ti4       1.0  0.9525179862976074  0.3903512954711914  0.6504546403884888  1.0000
  Ti  Ti5       1.0  0.9351286888122559  0.6418133974075317  0.7055913805961609  1.0000
