data_image0
_chemical_formula_structural       RbTa2TbTe11
_chemical_formula_sum              "Rb1 Ta2 Tb1 Te11"
_cell_length_a       5.221982716865436
_cell_length_b       8.635526825253441
_cell_length_c       18.079463958740234
_cell_angle_alpha    80.88588186569612
_cell_angle_beta     75.45107975893923
_cell_angle_gamma    74.25393253771682

_space_group_name_H-M_alt    "P 1"
_space_group_IT_number       1

loop_
  _space_group_symop_operation_xyz
  'x, y, z'

loop_
  _atom_site_type_symbol
  _atom_site_label
  _atom_site_symmetry_multiplicity
  _atom_site_fract_x
  _atom_site_fract_y
  _atom_site_fract_z
  _atom_site_occupancy
  Rb  Rb1       1.0  0.39642781019210815  0.33735427260398865  0.6198953986167908  1.0000
  Ta  Ta1       1.0  0.13519561290740967  0.6170225143432617  0.09705960750579834  1.0000
  Ta  Ta2       1.0  0.12015276402235031  0.9425812363624573  0.5134260058403015  1.0000
  Tb  Tb1       1.0  0.9730693101882935  0.8268572688102722  0.852054238319397  1.0000
  Te  Te1       1.0  0.3716604709625244  0.8495147228240967  0.9713321924209595  1.0000
  Te  Te2       1.0  0.39009812474250793  0.30671656131744385  0.13641777634620667  1.0000
  Te  Te3       1.0  0.7509461045265198  0.21838273108005524  0.7255648374557495  1.0000
  Te  Te4       1.0  0.39554938673973083  0.9217587113380432  0.6760219931602478  1.0000
  Te  Te5       1.0  0.35307857394218445  0.09696044027805328  0.21428799629211426  1.0000
  Te  Te6       1.0  0.2959148585796356  0.8640764951705933  0.03216215968132019  1.0000
  Te  Te7       1.0  0.7578712105751038  0.09171551465988159  0.8898395895957947  1.0000
  Te  Te8       1.0  0.5196659564971924  0.16732574999332428  0.1589207798242569  1.0000
  Te  Te9       1.0  0.727479100227356  0.27710869908332825  0.4180167615413666  1.0000
  Te  Te10      1.0  0.7367826104164124  0.5457661151885986  0.7695737481117249  1.0000
  Te  Te11      1.0  0.8514745235443115  0.11117801070213318  0.04659263789653777  1.0000
