data_image0
_chemical_formula_structural       GeH2Ho7Ni
_chemical_formula_sum              "Ge1 H2 Ho7 Ni1"
_cell_length_a       4.599585513936887
_cell_length_b       6.807694747249477
_cell_length_c       7.52699613571167
_cell_angle_alpha    115.72393805208321
_cell_angle_beta     89.08093373287504
_cell_angle_gamma    89.83483199249144

_space_group_name_H-M_alt    "P 1"
_space_group_IT_number       1

loop_
  _space_group_symop_operation_xyz
  'x, y, z'

loop_
  _atom_site_type_symbol
  _atom_site_label
  _atom_site_symmetry_multiplicity
  _atom_site_fract_x
  _atom_site_fract_y
  _atom_site_fract_z
  _atom_site_occupancy
  Ge  Ge1       1.0  0.4544001519680023  0.7793865799903871  0.43741899728775024  1.0000
  H   H1        1.0  0.9535192847251892  0.3227972090244293  0.12661311030387878  1.0000
  H   H2        1.0  0.4520297646522522  0.31279993057250977  0.331903874874115  1.0000
  Ho  Ho1       1.0  0.45486724376678467  0.2858598828315735  0.90105140209198  1.0000
  Ho  Ho2       1.0  0.452907532453537  0.7834559679031373  0.7149749994277954  1.0000
  Ho  Ho3       1.0  0.9536736607551575  0.11572226881980897  0.6165652871131897  1.0000
  Ho  Ho4       1.0  0.4557431638240814  0.9607632756233216  0.11360172927379614  1.0000
  Ho  Ho5       1.0  0.45156431198120117  0.29158690571784973  0.5856395959854126  1.0000
  Ho  Ho6       1.0  0.9532866477966309  0.3077094852924347  0.4029451906681061  1.0000
  Ho  Ho7       1.0  0.9527744650840759  0.6855079531669617  0.9138003587722778  1.0000
  Ni  Ni1       1.0  0.9553502202033997  0.7529962062835694  0.09414681047201157  1.0000
