data_image0
_chemical_formula_structural       CuH2Ho7Ni
_chemical_formula_sum              "Cu1 H2 Ho7 Ni1"
_cell_length_a       4.612312223447372
_cell_length_b       6.791543788661052
_cell_length_c       7.598491668701172
_cell_angle_alpha    115.33396747509097
_cell_angle_beta     88.72049095927927
_cell_angle_gamma    89.67923791351645

_space_group_name_H-M_alt    "P 1"
_space_group_IT_number       1

loop_
  _space_group_symop_operation_xyz
  'x, y, z'

loop_
  _atom_site_type_symbol
  _atom_site_label
  _atom_site_symmetry_multiplicity
  _atom_site_fract_x
  _atom_site_fract_y
  _atom_site_fract_z
  _atom_site_occupancy
  Cu  Cu1       1.0  0.8550142645835876  0.21854345500469208  0.8675874471664429  1.0000
  H   H1        1.0  0.35612139105796814  0.8557022213935852  0.5035852789878845  1.0000
  H   H2        1.0  0.34965261816978455  0.4902436435222626  0.7970860004425049  1.0000
  Ho  Ho1       1.0  0.36038392782211304  0.7168200612068176  0.6073912382125854  1.0000
  Ho  Ho2       1.0  0.3585268259048462  0.025453142821788788  0.5950847864151001  1.0000
  Ho  Ho3       1.0  0.3540639877319336  0.7746452689170837  0.9987094402313232  1.0000
  Ho  Ho4       1.0  0.8570592999458313  0.3562164604663849  0.4274151623249054  1.0000
  Ho  Ho5       1.0  0.8548438549041748  0.8606463670730591  0.087018221616745  1.0000
  Ho  Ho6       1.0  0.8522567749023438  0.5601686239242554  0.6386025547981262  1.0000
  Ho  Ho7       1.0  0.1207333579659462  0.6829195022583008  0.3516272008419037  1.0000
  Ni  Ni1       1.0  0.35774853825569153  0.19046060740947723  0.10070647299289703  1.0000
