data_image0
_chemical_formula_structural       BGe2Ho6Ni2
_chemical_formula_sum              "B1 Ge2 Ho6 Ni2"
_cell_length_a       5.329094377140299
_cell_length_b       7.076438901317291
_cell_length_c       7.559049129486084
_cell_angle_alpha    115.10092074225695
_cell_angle_beta     98.43237847836863
_cell_angle_gamma    92.82797877838452

_space_group_name_H-M_alt    "P 1"
_space_group_IT_number       1

loop_
  _space_group_symop_operation_xyz
  'x, y, z'

loop_
  _atom_site_type_symbol
  _atom_site_label
  _atom_site_symmetry_multiplicity
  _atom_site_fract_x
  _atom_site_fract_y
  _atom_site_fract_z
  _atom_site_occupancy
  B   B1        1.0  0.369426429271698  0.030059536918997765  0.2581403851509094  1.0000
  Ge  Ge1       1.0  0.854160726070404  0.7790966033935547  0.08167849481105804  1.0000
  Ge  Ge2       1.0  0.3680952489376068  0.35650840401649475  0.2032690644264221  1.0000
  Ho  Ho1       1.0  0.3543393313884735  0.08862877637147903  0.7534466981887817  1.0000
  Ho  Ho2       1.0  0.3631182909011841  0.5817302465438843  0.6476479172706604  1.0000
  Ho  Ho3       1.0  0.10118043422698975  0.0850546732544899  0.4911580681800842  1.0000
  Ho  Ho4       1.0  0.6136010885238647  0.5777552723884583  0.3326593041419983  1.0000
  Ho  Ho5       1.0  0.8616500496864319  0.4530540406703949  0.14288073778152466  1.0000
  Ho  Ho6       1.0  0.8465027809143066  0.04433012008666992  0.9537764191627501  1.0000
  Ni  Ni1       1.0  0.3637816607952118  0.5875850915908813  0.8374466896057128  1.0000
  Ni  Ni2       1.0  0.34902411699295044  0.04554290696978569  0.17815041542053223  1.0000
