data_image0
_chemical_formula_structural       H2Ho6Ni3
_chemical_formula_sum              "H2 Ho6 Ni3"
_cell_length_a       5.195070972958167
_cell_length_b       6.532148296633197
_cell_length_c       7.076408386230469
_cell_angle_alpha    94.63243526303107
_cell_angle_beta     90.2846806678137
_cell_angle_gamma    113.25036814322847

_space_group_name_H-M_alt    "P 1"
_space_group_IT_number       1

loop_
  _space_group_symop_operation_xyz
  'x, y, z'

loop_
  _atom_site_type_symbol
  _atom_site_label
  _atom_site_symmetry_multiplicity
  _atom_site_fract_x
  _atom_site_fract_y
  _atom_site_fract_z
  _atom_site_occupancy
  H   H1        1.0  0.3536723852157593  0.6826263666152954  0.669183611869812  1.0000
  H   H2        1.0  0.8835772275924683  0.7539666295051575  0.3367030620574951  1.0000
  Ho  Ho1       1.0  0.0771070048213005  0.8884851336479187  0.7280165553092957  1.0000
  Ho  Ho2       1.0  0.5698705911636353  0.031098475679755214  0.5939821004867554  1.0000
  Ho  Ho3       1.0  0.5777159929275513  0.5243327021598816  0.17729167640209198  1.0000
  Ho  Ho4       1.0  0.6650344729423523  0.15435247123241425  0.01629679836332798  1.0000
  Ho  Ho5       1.0  0.8464871048927307  0.24879696965217593  0.5820205807685852  1.0000
  Ho  Ho6       1.0  0.2201148271560669  0.02857302688062191  0.11434268951416014  1.0000
  Ni  Ni1       1.0  0.6454326510429382  0.6375926733016968  0.8263930082321166  1.0000
  Ni  Ni2       1.0  0.09562885016202927  0.6427977681159973  0.8374887704849242  1.0000
  Ni  Ni3       1.0  0.9495697021484375  0.8783265352249146  0.8390162587165831  1.0000
