data_image0
_chemical_formula_structural       CuGeHHo6Ni2
_chemical_formula_sum              "Cu1 Ge1 H1 Ho6 Ni2"
_cell_length_a       5.197307733079737
_cell_length_b       6.916942338189662
_cell_length_c       7.476348400115967
_cell_angle_alpha    114.46441297603785
_cell_angle_beta     89.98640016900973
_cell_angle_gamma    89.35540519224374

_space_group_name_H-M_alt    "P 1"
_space_group_IT_number       1

loop_
  _space_group_symop_operation_xyz
  'x, y, z'

loop_
  _atom_site_type_symbol
  _atom_site_label
  _atom_site_symmetry_multiplicity
  _atom_site_fract_x
  _atom_site_fract_y
  _atom_site_fract_z
  _atom_site_occupancy
  Cu  Cu1       1.0  0.8415893316268921  0.7022850513458252  0.24287888407707217  1.0000
  Ge  Ge1       1.0  0.6022598743438721  0.20574167370796204  0.015998829156160355  1.0000
  H   H1        1.0  0.8442776799201965  0.20019325613975525  0.7278623580932618  1.0000
  Ho  Ho1       1.0  0.5921329259872437  0.20977215468883514  0.3157056868076325  1.0000
  Ho  Ho2       1.0  0.09608322381973267  0.7439488768577576  0.006783850956708223  1.0000
  Ho  Ho3       1.0  0.3577421307563782  0.7095959186553955  0.48062178492546087  1.0000
  Ho  Ho4       1.0  0.09559617936611176  0.7083170413970947  0.9588907957077027  1.0000
  Ho  Ho5       1.0  0.09634967893362045  0.2030954360961914  0.9348177909851075  1.0000
  Ho  Ho6       1.0  0.5950350761413574  0.2325206845998764  0.030131436884403232  1.0000
  Ni  Ni1       1.0  0.09643833339214325  0.4453515112400055  0.5127794146537781  1.0000
  Ni  Ni2       1.0  0.5963849425315857  0.721296489238739  0.01312079466879368  1.0000
