data_image0
_chemical_formula_structural       BGe2HHo6Ni
_chemical_formula_sum              "B1 Ge2 H1 Ho6 Ni1"
_cell_length_a       4.425341818682897
_cell_length_b       7.218791721188323
_cell_length_c       7.899040222167969
_cell_angle_alpha    117.63757769842807
_cell_angle_beta     88.04455356983523
_cell_angle_gamma    89.80079501107753

_space_group_name_H-M_alt    "P 1"
_space_group_IT_number       1

loop_
  _space_group_symop_operation_xyz
  'x, y, z'

loop_
  _atom_site_type_symbol
  _atom_site_label
  _atom_site_symmetry_multiplicity
  _atom_site_fract_x
  _atom_site_fract_y
  _atom_site_fract_z
  _atom_site_occupancy
  B   B1        1.0  0.762582004070282  0.6705577373504639  0.5505770444869995  1.0000
  Ge  Ge1       1.0  0.7674652934074402  0.7874573469161987  0.2030224800109863  1.0000
  Ge  Ge2       1.0  0.7684571743011475  0.8053912520408629  0.875657081604004  1.0000
  H   H1        1.0  0.7647935152053833  0.11821614950895308  0.681298851966858  1.0000
  Ho  Ho1       1.0  0.7673506736755371  0.6968109607696533  0.5862537026405334  1.0000
  Ho  Ho2       1.0  0.267067551612854  0.2771221995353699  0.8912198543548585  1.0000
  Ho  Ho3       1.0  0.7668361067771912  0.29452836513519287  0.16696974635124204  1.0000
  Ho  Ho4       1.0  0.26566556096076965  0.7228517532348633  0.46999993920326233  1.0000
  Ho  Ho5       1.0  0.2662360668182373  0.26690196990966797  0.38284161686897283  1.0000
  Ho  Ho6       1.0  0.26534873247146606  0.0004173913621343672  0.001066379132680595  1.0000
  Ni  Ni1       1.0  0.766211211681366  0.0722634494304657  0.8755707740783693  1.0000
