data_image0
_chemical_formula_structural       CrCsHINiOPbSc
_chemical_formula_sum              "Cr1 Cs1 H1 I1 Ni1 O1 Pb1 Sc1"
_cell_length_a       6.43303266222638
_cell_length_b       5.359858578317182
_cell_length_c       6.073273658752441
_cell_angle_alpha    60.28651994484714
_cell_angle_beta     61.24534587731069
_cell_angle_gamma    60.23578342905425

_space_group_name_H-M_alt    "P 1"
_space_group_IT_number       1

loop_
  _space_group_symop_operation_xyz
  'x, y, z'

loop_
  _atom_site_type_symbol
  _atom_site_label
  _atom_site_symmetry_multiplicity
  _atom_site_fract_x
  _atom_site_fract_y
  _atom_site_fract_z
  _atom_site_occupancy
  Cr  Cr1       1.0  0.11003821343183517  0.5885485410690308  0.857641339302063  1.0000
  Cs  Cs1       1.0  0.11493275314569473  0.2818987965583801  0.6207823753356934  1.0000
  H   H1        1.0  0.6288976669311523  0.27917566895484924  0.10243258625268936  1.0000
  I   I1        1.0  0.6137452721595764  0.013456465676426888  0.05074030160903927  1.0000
  Ni  Ni1       1.0  0.10213171690702438  0.9221545457839966  0.329498827457428  1.0000
  O   O1        1.0  0.6297332048416138  0.6753798723220825  0.2152826339006424  1.0000
  Pb  Pb1       1.0  0.6197611689567566  0.46242132782936096  0.08965238928794861  1.0000
  Sc  Sc1       1.0  0.14000017940998077  0.07755309343338013  0.4806292653083801  1.0000
