data_image0
_chemical_formula_structural       CrH2InK2VZr
_chemical_formula_sum              "Cr1 H2 In1 K2 V1 Zr1"
_cell_length_a       6.251843283536004
_cell_length_b       5.96423697313233
_cell_length_c       6.178522109985352
_cell_angle_alpha    100.06276297488287
_cell_angle_beta     89.10246109369817
_cell_angle_gamma    85.13928754744767

_space_group_name_H-M_alt    "P 1"
_space_group_IT_number       1

loop_
  _space_group_symop_operation_xyz
  'x, y, z'

loop_
  _atom_site_type_symbol
  _atom_site_label
  _atom_site_symmetry_multiplicity
  _atom_site_fract_x
  _atom_site_fract_y
  _atom_site_fract_z
  _atom_site_occupancy
  Cr  Cr1       1.0  0.260043203830719  0.29174911975860596  0.6792529821395874  1.0000
  H   H1        1.0  0.26540622115135193  0.5325336456298828  0.32165253162384033  1.0000
  H   H2        1.0  0.760309398174286  0.6997106671333313  0.3753086030483246  1.0000
  In  In1       1.0  0.7600731253623964  0.6416719555854797  0.6592963337898254  1.0000
  K   K1        1.0  0.26341018080711365  0.937896192073822  0.6326953172683716  1.0000
  K   K2        1.0  0.7628284096717836  0.3207768499851227  0.6644104719161987  1.0000
  V   V1        1.0  0.7637225389480592  0.07037671655416489  0.6533662676811218  1.0000
  Zr  Zr1       1.0  0.25835713744163513  0.6205801963806152  0.8800137639045715  1.0000
