data_image0
_chemical_formula_structural       AsK6Na
_chemical_formula_sum              "As1 K6 Na1"
_cell_length_a       5.8170017610378615
_cell_length_b       6.23425325804928
_cell_length_c       7.162004470825195
_cell_angle_alpha    117.3258261218711
_cell_angle_beta     89.88663877748098
_cell_angle_gamma    88.12118521728395

_space_group_name_H-M_alt    "P 1"
_space_group_IT_number       1

loop_
  _space_group_symop_operation_xyz
  'x, y, z'

loop_
  _atom_site_type_symbol
  _atom_site_label
  _atom_site_symmetry_multiplicity
  _atom_site_fract_x
  _atom_site_fract_y
  _atom_site_fract_z
  _atom_site_occupancy
  As  As1       1.0  0.5387753844261169  0.5770792365074158  0.2670349180698395  1.0000
  K   K1        1.0  0.045014113187789924  0.8941974639892578  0.18788509070873252  1.0000
  K   K2        1.0  0.5351241827011108  0.8475187420845032  0.5749976634979248  1.0000
  K   K3        1.0  0.042938169091939926  0.9645281434059143  0.6280434727668762  1.0000
  K   K4        1.0  0.04201743006706238  0.4697413146495819  0.45322498679161066  1.0000
  K   K5        1.0  0.5402359366416931  0.1868738979101181  0.059562411159276955  1.0000
  K   K6        1.0  0.5455322861671448  0.4363830089569092  0.038317918777465786  1.0000
  Na  Na1       1.0  0.5428652167320251  0.4882969558238983  0.6332550048828125  1.0000
