data_image0
_chemical_formula_structural       K7Na
_chemical_formula_sum              "K7 Na1"
_cell_length_a       5.815179608744649
_cell_length_b       6.458214610193981
_cell_length_c       8.658193588256836
_cell_angle_alpha    116.72554950586674
_cell_angle_beta     88.98871922785747
_cell_angle_gamma    100.31430961054569

_space_group_name_H-M_alt    "P 1"
_space_group_IT_number       1

loop_
  _space_group_symop_operation_xyz
  'x, y, z'

loop_
  _atom_site_type_symbol
  _atom_site_label
  _atom_site_symmetry_multiplicity
  _atom_site_fract_x
  _atom_site_fract_y
  _atom_site_fract_z
  _atom_site_occupancy
  K   K1        1.0  0.989863395690918  0.36336472630500793  0.240071102976799  1.0000
  K   K2        1.0  0.9918464422225952  0.015472431667149067  0.5397451519966125  1.0000
  K   K3        1.0  0.4905683100223541  0.21076877415180206  0.8943548798561096  1.0000
  K   K4        1.0  0.49228236079216003  0.004483799450099468  0.7751258611679077  1.0000
  K   K5        1.0  0.4912475049495697  0.4744355380535126  0.8756189942359924  1.0000
  K   K6        1.0  0.9909353852272034  0.9111392498016357  0.5037700533866882  1.0000
  K   K7        1.0  0.9922873973846436  0.41366827487945557  0.031355537474155426  1.0000
  Na  Na1       1.0  0.48921287059783936  0.48411259055137634  0.7597594261169434  1.0000
