data_image0
_chemical_formula_structural       Ce4CoGeNiSe8
_chemical_formula_sum              "Ce4 Co1 Ge1 Ni1 Se8"
_cell_length_a       4.543503662269086
_cell_length_b       8.565546993350575
_cell_length_c       11.851486206054688
_cell_angle_alpha    89.80779977978506
_cell_angle_beta     89.38003720978834
_cell_angle_gamma    89.4077829873038

_space_group_name_H-M_alt    "P 1"
_space_group_IT_number       1

loop_
  _space_group_symop_operation_xyz
  'x, y, z'

loop_
  _atom_site_type_symbol
  _atom_site_label
  _atom_site_symmetry_multiplicity
  _atom_site_fract_x
  _atom_site_fract_y
  _atom_site_fract_z
  _atom_site_occupancy
  Ce  Ce1       1.0  0.6950631141662598  0.3583511412143707  0.9299643635749818  1.0000
  Ce  Ce2       1.0  0.2033538967370987  0.3439304232597351  0.9119015336036683  1.0000
  Ce  Ce3       1.0  0.7010470032691956  0.3657197952270508  0.7648485302925111  1.0000
  Ce  Ce4       1.0  0.7018643617630005  0.4802946150302887  0.5266675353050232  1.0000
  Co  Co1       1.0  0.7023138999938965  0.13430418074131012  0.7506341338157655  1.0000
  Ge  Ge1       1.0  0.6984502077102661  0.6710242033004761  0.9134993553161622  1.0000
  Ni  Ni1       1.0  0.7078908085823059  0.9694377183914185  0.7777838706970216  1.0000
  Se  Se1       1.0  0.19733403623104095  0.12286745011806488  0.29650065302848816  1.0000
  Se  Se2       1.0  0.20022249221801758  0.619310736656189  0.7867969870567323  1.0000
  Se  Se3       1.0  0.7118199467658997  0.8475938439369202  0.2807251811027527  1.0000
  Se  Se4       1.0  0.6943207383155823  0.12802864611148834  0.2578588128089905  1.0000
  Se  Se5       1.0  0.1999179720878601  0.8875961303710938  0.7508996129035951  1.0000
  Se  Se6       1.0  0.7075735926628113  0.6065230965614319  0.9281621575355531  1.0000
  Se  Se7       1.0  0.19511689245700836  0.8480179905891418  0.7886532545089723  1.0000
  Se  Se8       1.0  0.7041566967964172  0.44899043440818787  0.5902168154716492  1.0000
