data_image0
_chemical_formula_structural       Ce2Co2GdMnScSe8
_chemical_formula_sum              "Ce2 Co2 Gd1 Mn1 Sc1 Se8"
_cell_length_a       4.721109713356708
_cell_length_b       8.266088290099109
_cell_length_c       11.544351577758789
_cell_angle_alpha    89.26777364875981
_cell_angle_beta     89.60550882460643
_cell_angle_gamma    89.88838340888475

_space_group_name_H-M_alt    "P 1"
_space_group_IT_number       1

loop_
  _space_group_symop_operation_xyz
  'x, y, z'

loop_
  _atom_site_type_symbol
  _atom_site_label
  _atom_site_symmetry_multiplicity
  _atom_site_fract_x
  _atom_site_fract_y
  _atom_site_fract_z
  _atom_site_occupancy
  Ce  Ce1       1.0  0.6993110775947571  0.4297389090061188  0.6312358975410461  1.0000
  Ce  Ce2       1.0  0.7037729024887085  0.3792663812637329  0.2699972093105316  1.0000
  Co  Co1       1.0  0.706671416759491  0.0628560408949852  0.676577091217041  1.0000
  Co  Co2       1.0  0.20320819318294525  0.7733195424079895  0.6325374841690063  1.0000
  Gd  Gd1       1.0  0.7048170566558838  0.4466818571090698  0.030597912147641182  1.0000
  Mn  Mn1       1.0  0.7028263807296753  0.9306414723396301  0.6748636364936828  1.0000
  Sc  Sc1       1.0  0.20477455854415894  0.9359880685806274  0.44143202900886536  1.0000
  Se  Se1       1.0  0.21559976041316986  0.8877874612808228  0.8094432950019836  1.0000
  Se  Se2       1.0  0.6961199641227722  0.43268951773643494  0.9446414113044739  1.0000
  Se  Se3       1.0  0.704853355884552  0.1848728060722351  0.4276529848575592  1.0000
  Se  Se4       1.0  0.202242910861969  0.2107752412557602  0.7713157534599304  1.0000
  Se  Se5       1.0  0.20208650827407837  0.9302570819854736  0.5664916038513184  1.0000
  Se  Se6       1.0  0.21658362448215485  0.8983051180839539  0.6597297191619873  1.0000
  Se  Se7       1.0  0.21218298375606537  0.43297630548477173  0.15204867720603943  1.0000
  Se  Se8       1.0  0.7124483585357666  0.6692456007003784  0.8575707674026489  1.0000
