data_image0
_chemical_formula_structural       CeCuGe4Se9
_chemical_formula_sum              "Ce1 Cu1 Ge4 Se9"
_cell_length_a       5.493017860295575
_cell_length_b       7.353740978133481
_cell_length_c       8.745354652404785
_cell_angle_alpha    90.4590007735965
_cell_angle_beta     91.42294711019102
_cell_angle_gamma    91.43231176963398

_space_group_name_H-M_alt    "P 1"
_space_group_IT_number       1

loop_
  _space_group_symop_operation_xyz
  'x, y, z'

loop_
  _atom_site_type_symbol
  _atom_site_label
  _atom_site_symmetry_multiplicity
  _atom_site_fract_x
  _atom_site_fract_y
  _atom_site_fract_z
  _atom_site_occupancy
  Ce  Ce1       1.0  0.2121900171041489  0.6421831250190735  0.4155672490596771  1.0000
  Cu  Cu1       1.0  0.20396317541599274  0.9430614113807678  0.05341179296374321  1.0000
  Ge  Ge1       1.0  0.9764159321784974  0.4525679647922516  0.5453698635101318  1.0000
  Ge  Ge2       1.0  0.47617474198341375  0.17124931514263153  0.01731765642762184  1.0000
  Ge  Ge3       1.0  0.4575412273406983  0.4578544497489929  0.21808961033821106  1.0000
  Ge  Ge4       1.0  0.23791404068470004  0.9824779629707336  0.6917220950126648  1.0000
  Se  Se1       1.0  0.6933865547180176  0.6439493298530579  0.10901708900928497  1.0000
  Se  Se2       1.0  0.9506584405899049  0.7319850325584412  0.7435930967330933  1.0000
  Se  Se3       1.0  0.645130455493927  0.9139059782028198  0.5559993982315063  1.0000
  Se  Se4       1.0  0.5355889201164246  0.9018656015396118  0.8377543687820435  1.0000
  Se  Se5       1.0  0.46858969330787664  0.4603146016597748  0.6103428602218628  1.0000
  Se  Se6       1.0  0.4357936084270478  0.21713685989379883  0.49569401144981384  1.0000
  Se  Se7       1.0  0.9571370482444764  0.971317708492279  0.6214874982833862  1.0000
  Se  Se8       1.0  0.9510620832443238  0.43131881952285767  0.7975195646286011  1.0000
  Se  Se9       1.0  0.9580405354499818  0.9539264440536499  0.2378723919391632  1.0000
