data_image0
_chemical_formula_structural       Ce4GeScSe9
_chemical_formula_sum              "Ce4 Ge1 Sc1 Se9"
_cell_length_a       4.6388709374774475
_cell_length_b       8.22367359627815
_cell_length_c       12.399125099182129
_cell_angle_alpha    92.56258230178614
_cell_angle_beta     89.82677032411522
_cell_angle_gamma    89.35599172515688

_space_group_name_H-M_alt    "P 1"
_space_group_IT_number       1

loop_
  _space_group_symop_operation_xyz
  'x, y, z'

loop_
  _atom_site_type_symbol
  _atom_site_label
  _atom_site_symmetry_multiplicity
  _atom_site_fract_x
  _atom_site_fract_y
  _atom_site_fract_z
  _atom_site_occupancy
  Ce  Ce1       1.0  0.34539011120796204  0.6468341946601868  0.04068981111049652  1.0000
  Ce  Ce2       1.0  0.8431118726730347  0.025412537157535553  0.2976536452770233  1.0000
  Ce  Ce3       1.0  0.3455383777618408  0.999323308467865  0.2577964961528778  1.0000
  Ce  Ce4       1.0  0.8475510478019714  0.8602685928344727  0.7354019284248352  1.0000
  Ge  Ge1       1.0  0.8486819267272949  0.748481273651123  0.4082826375961304  1.0000
  Sc  Sc1       1.0  0.8412238955497742  0.7035797834396362  0.06405535340309143  1.0000
  Se  Se1       1.0  0.3466496765613556  0.5098390579223633  0.964876115322113  1.0000
  Se  Se2       1.0  0.8409732580184937  0.5150837898254395  0.5051051378250122  1.0000
  Se  Se3       1.0  0.8476290106773376  0.34710144996643066  0.7570717930793762  1.0000
  Se  Se4       1.0  0.8413940668106079  0.3554806411266327  0.8433794379234314  1.0000
  Se  Se5       1.0  0.840843141078949  0.4835551083087921  0.6654154658317566  1.0000
  Se  Se6       1.0  0.3478049039840698  0.718769371509552  0.4418482482433319  1.0000
  Se  Se7       1.0  0.33542290329933167  0.07770983874797821  0.7810604572296143  1.0000
  Se  Se8       1.0  0.34092456102371216  0.041948288679122925  0.4386150538921356  1.0000
  Se  Se9       1.0  0.8353480100631714  0.9692928194999695  0.31912463903427124  1.0000
