data_image0
_chemical_formula_structural       Ce3Co2CuSe9
_chemical_formula_sum              "Ce3 Co2 Cu1 Se9"
_cell_length_a       4.525443037993113
_cell_length_b       8.592123677751315
_cell_length_c       11.208500862121582
_cell_angle_alpha    94.60804188189724
_cell_angle_beta     90.03642654177129
_cell_angle_gamma    89.71248665758917

_space_group_name_H-M_alt    "P 1"
_space_group_IT_number       1

loop_
  _space_group_symop_operation_xyz
  'x, y, z'

loop_
  _atom_site_type_symbol
  _atom_site_label
  _atom_site_symmetry_multiplicity
  _atom_site_fract_x
  _atom_site_fract_y
  _atom_site_fract_z
  _atom_site_occupancy
  Ce  Ce1       1.0  0.8200498819351196  0.32527321577072144  0.02341703325510025  1.0000
  Ce  Ce2       1.0  0.8028010129928589  0.9932290315628052  0.007649215869605552  1.0000
  Ce  Ce3       1.0  0.321021169424057  0.6738258600234985  0.905104160308838  1.0000
  Co  Co1       1.0  0.30826178193092346  0.7005998492240906  0.09256410598754883  1.0000
  Co  Co2       1.0  0.8150515556335449  0.18518468737602234  0.5178831219673157  1.0000
  Cu  Cu1       1.0  0.8397350311279297  0.9737985134124756  0.30636581778526306  1.0000
  Se  Se1       1.0  0.30352073907852173  0.00754211749881506  0.29174113273620605  1.0000
  Se  Se2       1.0  0.8178136348724365  0.9648191332817078  0.3518770933151245  1.0000
  Se  Se3       1.0  0.8203846216201782  0.48198631405830383  0.10635824501514436  1.0000
  Se  Se4       1.0  0.7939960360527039  0.47374069690704346  0.6468954682350159  1.0000
  Se  Se5       1.0  0.812442421913147  0.16758477687835693  0.600549578666687  1.0000
  Se  Se6       1.0  0.3195194900035858  0.21133361756801605  0.3028058409690857  1.0000
  Se  Se7       1.0  0.33707746863365173  0.7062680125236511  0.924831509590149  1.0000
  Se  Se8       1.0  0.30375123023986816  0.6701198220252991  0.2747794985771179  1.0000
  Se  Se9       1.0  0.29810279607772827  0.1808757185935974  0.5237799286842346  1.0000
