data_image0
_chemical_formula_structural       Ce3CuGe2Se8Y
_chemical_formula_sum              "Ce3 Cu1 Ge2 Se8 Y1"
_cell_length_a       5.432317747138849
_cell_length_b       8.547180106646456
_cell_length_c       8.704360961914062
_cell_angle_alpha    121.35528142689178
_cell_angle_beta     87.96144948421203
_cell_angle_gamma    90.7484211233101

_space_group_name_H-M_alt    "P 1"
_space_group_IT_number       1

loop_
  _space_group_symop_operation_xyz
  'x, y, z'

loop_
  _atom_site_type_symbol
  _atom_site_label
  _atom_site_symmetry_multiplicity
  _atom_site_fract_x
  _atom_site_fract_y
  _atom_site_fract_z
  _atom_site_occupancy
  Ce  Ce1       1.0  0.3690851926803589  0.44220602512359625  0.3531125783920288  1.0000
  Ce  Ce2       1.0  0.878078043460846  0.7687652707099916  0.6304399967193604  1.0000
  Ce  Ce3       1.0  0.8726270198822021  0.41928273439407354  0.21490277349948883  1.0000
  Cu  Cu1       1.0  0.37440982460975647  0.9116696119308473  0.10248221457004547  1.0000
  Ge  Ge1       1.0  0.8686136603355408  0.5725457668304443  0.5647731423377991  1.0000
  Ge  Ge2       1.0  0.37137049436569214  0.08961084485054018  0.5324601531028748  1.0000
  Se  Se1       1.0  0.8666315674781799  0.8043121695518495  0.3352707028388977  1.0000
  Se  Se2       1.0  0.372142493724823  0.4792440831661225  0.3070947825908661  1.0000
  Se  Se3       1.0  0.8737117648124695  0.7197995185852052  0.938018262386322  1.0000
  Se  Se4       1.0  0.8699130415916443  0.10802396386861803  0.27149516344070435  1.0000
  Se  Se5       1.0  0.37623950839042664  0.7750401496887208  0.8174498081207275  1.0000
  Se  Se6       1.0  0.3722495138645172  0.37821254134178167  0.10487876832485202  1.0000
  Se  Se7       1.0  0.8729427456855774  0.8538377285003663  0.33533889055252075  1.0000
  Se  Se8       1.0  0.8709909915924072  0.5577793121337891  0.20610015094280243  1.0000
  Y   Y1        1.0  0.37591379880905146  0.9889361262321473  0.87066650390625  1.0000
