data_image0
_chemical_formula_structural       Nb2RhRu3
_chemical_formula_sum              "Nb2 Rh1 Ru3"
_cell_length_a       4.220333764211564
_cell_length_b       4.0178368384233245
_cell_length_c       5.015186786651611
_cell_angle_alpha    88.83251387770446
_cell_angle_beta     91.42191976785514
_cell_angle_gamma    90.5830924901866

_space_group_name_H-M_alt    "P 1"
_space_group_IT_number       1

loop_
  _space_group_symop_operation_xyz
  'x, y, z'

loop_
  _atom_site_type_symbol
  _atom_site_label
  _atom_site_symmetry_multiplicity
  _atom_site_fract_x
  _atom_site_fract_y
  _atom_site_fract_z
  _atom_site_occupancy
  Nb  Nb1       1.0  0.7673828601837158  0.32074394822120667  0.9274525046348571  1.0000
  Nb  Nb2       1.0  0.41948723793029785  0.4650244414806366  0.7153584361076354  1.0000
  Rh  Rh1       1.0  0.06682386994361877  0.977760910987854  0.2199358195066452  1.0000
  Ru  Ru1       1.0  0.10081993043422699  0.31802132725715637  0.45903590321540827  1.0000
  Ru  Ru2       1.0  0.4285760223865509  0.514679491519928  0.21544747054576874  1.0000
  Ru  Ru3       1.0  0.057207804173231125  0.9766815900802612  0.7561872005462646  1.0000
