data_image0
_chemical_formula_structural       Nb2RhRu3
_chemical_formula_sum              "Nb2 Rh1 Ru3"
_cell_length_a       4.0444950864328915
_cell_length_b       4.456877163556581
_cell_length_c       4.99913215637207
_cell_angle_alpha    91.85315912580657
_cell_angle_beta     92.6718860312907
_cell_angle_gamma    88.56645923213378

_space_group_name_H-M_alt    "P 1"
_space_group_IT_number       1

loop_
  _space_group_symop_operation_xyz
  'x, y, z'

loop_
  _atom_site_type_symbol
  _atom_site_label
  _atom_site_symmetry_multiplicity
  _atom_site_fract_x
  _atom_site_fract_y
  _atom_site_fract_z
  _atom_site_occupancy
  Nb  Nb1       1.0  0.22988125681877136  0.872348427772522  0.41717368364334106  1.0000
  Nb  Nb2       1.0  0.22890394926071167  0.37633562088012695  0.04954832047224045  1.0000
  Rh  Rh1       1.0  0.7377456426620483  0.03361284360289574  0.16700607538223267  1.0000
  Ru  Ru1       1.0  0.23511850833892822  0.41298845410346985  0.7061672806739807  1.0000
  Ru  Ru2       1.0  0.7376048564910889  0.665347158908844  0.42100465297698975  1.0000
  Ru  Ru3       1.0  0.738625705242157  0.2573567032814026  0.6889619827270508  1.0000
