data_image0
_chemical_formula_structural       NbRu4Tl
_chemical_formula_sum              "Nb1 Ru4 Tl1"
_cell_length_a       3.7873301786971214
_cell_length_b       4.865344528034447
_cell_length_c       4.963415145874023
_cell_angle_alpha    109.45673575491531
_cell_angle_beta     87.58180141001891
_cell_angle_gamma    93.94731152082177

_space_group_name_H-M_alt    "P 1"
_space_group_IT_number       1

loop_
  _space_group_symop_operation_xyz
  'x, y, z'

loop_
  _atom_site_type_symbol
  _atom_site_label
  _atom_site_symmetry_multiplicity
  _atom_site_fract_x
  _atom_site_fract_y
  _atom_site_fract_z
  _atom_site_occupancy
  Nb  Nb1       1.0  0.4381119906902314  0.4136502742767334  0.9986481070518494  1.0000
  Ru  Ru1       1.0  0.4424843788146973  0.7044148445129395  0.23633453249931335  1.0000
  Ru  Ru2       1.0  0.9392325878143312  0.11040833592414856  0.8796323537826538  1.0000
  Ru  Ru3       1.0  0.43407431244850164  0.42263779044151306  0.5047599673271179  1.0000
  Ru  Ru4       1.0  0.9409354925155641  0.10618552565574646  0.6328288912773132  1.0000
  Tl  Tl1       1.0  0.9381611347198487  0.9228647351264954  0.8659674525260925  1.0000
