data_image0
_chemical_formula_structural       Nb3Ru3
_chemical_formula_sum              "Nb3 Ru3"
_cell_length_a       4.356191967133791
_cell_length_b       4.749618010919785
_cell_length_c       4.637870788574219
_cell_angle_alpha    86.64223429193163
_cell_angle_beta     89.00855319253996
_cell_angle_gamma    88.67726780232897

_space_group_name_H-M_alt    "P 1"
_space_group_IT_number       1

loop_
  _space_group_symop_operation_xyz
  'x, y, z'

loop_
  _atom_site_type_symbol
  _atom_site_label
  _atom_site_symmetry_multiplicity
  _atom_site_fract_x
  _atom_site_fract_y
  _atom_site_fract_z
  _atom_site_occupancy
  Nb  Nb1       1.0  0.4307042360305786  0.4978305399417877  0.1526893824338913  1.0000
  Nb  Nb2       1.0  0.4393829107284546  0.3273431360721588  0.5983098149299622  1.0000
  Nb  Nb3       1.0  0.44367027282714844  0.0707227811217308  0.09897001087665558  1.0000
  Ru  Ru1       1.0  0.7051177620887756  0.8121237754821777  0.34655681252479553  1.0000
  Ru  Ru2       1.0  0.9459653496742249  0.520586371421814  0.06630182266235352  1.0000
  Ru  Ru3       1.0  0.9521942138671875  0.8053423762321472  0.8787766695022583  1.0000
