data_image0
_chemical_formula_structural       CuGaO3Pr2RuTiZn3Zr2
_chemical_formula_sum              "Cu1 Ga1 O3 Pr2 Ru1 Ti1 Zn3 Zr2"
_cell_length_a       5.517291820095915
_cell_length_b       5.491313570321178
_cell_length_c       8.027778625488281
_cell_angle_alpha    90.28362630005735
_cell_angle_beta     89.91552748532521
_cell_angle_gamma    118.62311156581039

_space_group_name_H-M_alt    "P 1"
_space_group_IT_number       1

loop_
  _space_group_symop_operation_xyz
  'x, y, z'

loop_
  _atom_site_type_symbol
  _atom_site_label
  _atom_site_symmetry_multiplicity
  _atom_site_fract_x
  _atom_site_fract_y
  _atom_site_fract_z
  _atom_site_occupancy
  Cu  Cu1       1.0  0.5669909119606018  0.008424835279583931  0.8642722368240356  1.0000
  Ga  Ga1       1.0  0.43120619654655457  0.2235177755355835  0.25669175386428833  1.0000
  O   O1        1.0  0.939136803150177  0.18841245770454407  0.01975221186876297  1.0000
  O   O2        1.0  0.4397117495536804  0.7606226801872253  0.13377645611763  1.0000
  O   O3        1.0  0.4696683883666992  0.030634770169854164  0.7106426358222961  1.0000
  Pr  Pr1       1.0  0.3729991614818573  0.7809132933616638  0.6434531807899475  1.0000
  Pr  Pr2       1.0  0.9210023283958435  0.326903760433197  0.5090219378471375  1.0000
  Ru  Ru1       1.0  0.08688730001449585  0.8580201268196106  0.8295785784721375  1.0000
  Ti  Ti1       1.0  0.5484570860862732  0.007190604694187641  0.5818933844566345  1.0000
  Zn  Zn1       1.0  0.09429468214511871  0.33893972635269165  0.39997798204421997  1.0000
  Zn  Zn2       1.0  0.5890492796897888  0.1240251436829567  0.5128037929534912  1.0000
  Zn  Zn3       1.0  0.4260980188846588  0.6877232789993286  0.08268189430236816  1.0000
  Zr  Zr1       1.0  0.09765946865081787  0.36761993169784546  0.5035816431045532  1.0000
  Zr  Zr2       1.0  0.10153991729021072  0.31715500354766846  0.32553258538246155  1.0000
