data_image0
_chemical_formula_structural       AlO6PPr3Zn2Zr
_chemical_formula_sum              "Al1 O6 P1 Pr3 Zn2 Zr1"
_cell_length_a       5.017312405379678
_cell_length_b       5.165518088102886
_cell_length_c       9.995835304260254
_cell_angle_alpha    89.50777065836883
_cell_angle_beta     89.72894352175754
_cell_angle_gamma    89.84036998229591

_space_group_name_H-M_alt    "P 1"
_space_group_IT_number       1

loop_
  _space_group_symop_operation_xyz
  'x, y, z'

loop_
  _atom_site_type_symbol
  _atom_site_label
  _atom_site_symmetry_multiplicity
  _atom_site_fract_x
  _atom_site_fract_y
  _atom_site_fract_z
  _atom_site_occupancy
  Al  Al1       1.0  0.8213866353034973  0.08910920470952988  0.009393190033733845  1.0000
  O   O1        1.0  0.323393851518631  0.5409795641899109  0.31735172867774963  1.0000
  O   O2        1.0  0.8394559621810913  0.9740287661552429  0.14838536083698273  1.0000
  O   O3        1.0  0.8227279782295227  0.7737215161323547  0.8779096603393556  1.0000
  O   O4        1.0  0.8406107425689697  0.9785234928131104  0.12094152718782426  1.0000
  O   O5        1.0  0.325458824634552  0.7036442756652832  0.8653171658515931  1.0000
  O   O6        1.0  0.3073541224002838  0.4087058901786804  0.6756842732429504  1.0000
  P   P1        1.0  0.8240335583686829  0.8736699819564819  0.12421762198209764  1.0000
  Pr  Pr1       1.0  0.3224334120750427  0.21533779799938202  0.5122904777526855  1.0000
  Pr  Pr2       1.0  0.8046233654022217  0.3254625201225281  0.031882915645837784  1.0000
  Pr  Pr3       1.0  0.8193086385726929  0.7913004755973816  0.254171758890152  1.0000
  Zn  Zn1       1.0  0.3222615122795105  0.6750706434249878  0.5150583982467651  1.0000
  Zn  Zn2       1.0  0.3161359131336212  0.5097188353538513  0.025610102340579036  1.0000
  Zr  Zr1       1.0  0.3191264569759369  0.13596989214420319  0.5598449110984802  1.0000
