data_image0
_chemical_formula_structural       HO5Pr7Zn
_chemical_formula_sum              "H1 O5 Pr7 Zn1"
_cell_length_a       6.312996742940098
_cell_length_b       6.159953985976526
_cell_length_c       7.591632843017578
_cell_angle_alpha    64.36308550842894
_cell_angle_beta     72.35913607673727
_cell_angle_gamma    81.9314195425764

_space_group_name_H-M_alt    "P 1"
_space_group_IT_number       1

loop_
  _space_group_symop_operation_xyz
  'x, y, z'

loop_
  _atom_site_type_symbol
  _atom_site_label
  _atom_site_symmetry_multiplicity
  _atom_site_fract_x
  _atom_site_fract_y
  _atom_site_fract_z
  _atom_site_occupancy
  H   H1        1.0  0.16214144229888916  0.3849799335002899  0.9295948147773742  1.0000
  O   O1        1.0  0.580924928188324  0.17457610368728638  0.7814576029777526  1.0000
  O   O2        1.0  0.742352783679962  0.9955888390541077  0.030801439657807347  1.0000
  O   O3        1.0  0.9251214861869811  0.09348393976688385  0.9606030583381652  1.0000
  O   O4        1.0  0.66964191198349  0.22202107310295105  0.5628834962844849  1.0000
  O   O5        1.0  0.5899152755737305  0.4045604169368744  0.14735962450504303  1.0000
  Pr  Pr1       1.0  0.5753813982009888  0.5884736180305481  0.8144327402114867  1.0000
  Pr  Pr2       1.0  0.330920547246933  0.2544694244861603  0.5399119257926941  1.0000
  Pr  Pr3       1.0  0.5662514567375183  0.4061625301837921  0.13708072900772095  1.0000
  Pr  Pr4       1.0  0.5594482421875  0.635021448135376  0.48325431346893305  1.0000
  Pr  Pr5       1.0  0.061805743724107735  0.3768119513988495  0.9773579239845275  1.0000
  Pr  Pr6       1.0  0.5516937375068665  0.7030333876609802  0.5927545428276062  1.0000
  Pr  Pr7       1.0  0.06388091295957565  0.27086347341537476  0.2188913822174072  1.0000
  Zn  Zn1       1.0  0.07560580968856812  0.8541624546051025  0.8282317519187926  1.0000
