data_image0
_chemical_formula_structural       BaCuO5Pr7
_chemical_formula_sum              "Ba1 Cu1 O5 Pr7"
_cell_length_a       5.863272278864522
_cell_length_b       5.531281529293704
_cell_length_c       7.037997245788574
_cell_angle_alpha    105.20366863631575
_cell_angle_beta     105.20653774370714
_cell_angle_gamma    108.42075137130102

_space_group_name_H-M_alt    "P 1"
_space_group_IT_number       1

loop_
  _space_group_symop_operation_xyz
  'x, y, z'

loop_
  _atom_site_type_symbol
  _atom_site_label
  _atom_site_symmetry_multiplicity
  _atom_site_fract_x
  _atom_site_fract_y
  _atom_site_fract_z
  _atom_site_occupancy
  Ba  Ba1       1.0  0.05336705595254898  0.6837224364280701  0.9857142567634583  1.0000
  Cu  Cu1       1.0  0.28790581226348877  0.9625834226608276  0.662804901599884  1.0000
  O   O1        1.0  0.02952923811972141  0.9053699970245361  0.4984123408794403  1.0000
  O   O2        1.0  0.019981127232313163  0.1245185285806656  0.08441165834665298  1.0000
  O   O3        1.0  0.5285560488700867  0.5429229140281677  0.4472455680370331  1.0000
  O   O4        1.0  0.054554060101509094  0.5141952633857727  0.7637497782707214  1.0000
  O   O5        1.0  0.025208598002791405  0.5046111345291138  0.8182941675186158  1.0000
  Pr  Pr1       1.0  0.8009653687477112  0.30587539076805115  0.11629676073789597  1.0000
  Pr  Pr2       1.0  0.5521619915962219  0.9280896186828613  0.3510589003562927  1.0000
  Pr  Pr3       1.0  0.5262531042098999  0.10574869066476822  0.11453275382518768  1.0000
  Pr  Pr4       1.0  0.555728018283844  0.8858782649040222  0.978644073009491  1.0000
  Pr  Pr5       1.0  0.03258918225765228  0.2685174345970154  0.10240273177623749  1.0000
  Pr  Pr6       1.0  0.7211406230926514  0.24308311939239502  0.6099913716316223  1.0000
  Pr  Pr7       1.0  0.5434774160385132  0.4980804324150086  0.7670129537582397  1.0000
