data_image0
_chemical_formula_structural       BaCu2O3Pr8
_chemical_formula_sum              "Ba1 Cu2 O3 Pr8"
_cell_length_a       5.16284181866719
_cell_length_b       3.0597689302669955
_cell_length_c       7.995806694030762
_cell_angle_alpha    92.05303308253822
_cell_angle_beta     89.86501996357043
_cell_angle_gamma    93.63058227809661

_space_group_name_H-M_alt    "P 1"
_space_group_IT_number       1

loop_
  _space_group_symop_operation_xyz
  'x, y, z'

loop_
  _atom_site_type_symbol
  _atom_site_label
  _atom_site_symmetry_multiplicity
  _atom_site_fract_x
  _atom_site_fract_y
  _atom_site_fract_z
  _atom_site_occupancy
  Ba  Ba1       1.0  0.7863935232162476  0.009171541780233383  0.4429576098918915  1.0000
  Cu  Cu1       1.0  0.8027494549751282  0.09517808258533478  0.9965922832489014  1.0000
  Cu  Cu2       1.0  0.8026877641677856  0.8007751703262329  0.8598661422729492  1.0000
  O   O1        1.0  0.04897623881697655  0.03963197022676468  0.21195594966411588  1.0000
  O   O2        1.0  0.3106720447540283  0.4659733176231384  0.20240682363510132  1.0000
  O   O3        1.0  0.3319973349571228  0.8358478546142578  0.8506587147712708  1.0000
  Pr  Pr1       1.0  0.2927621603012085  0.3194415271282196  0.40539559721946716  1.0000
  Pr  Pr2       1.0  0.7934820652008057  0.5558182001113892  0.3746056854724884  1.0000
  Pr  Pr3       1.0  0.3008735775947571  0.2571735084056854  0.23544161021709442  1.0000
  Pr  Pr4       1.0  0.79701828956604  0.8466829657554626  0.3112717270851135  1.0000
  Pr  Pr5       1.0  0.3000071048736572  0.3578173518180847  0.1788841336965561  1.0000
  Pr  Pr6       1.0  0.0027278419584035873  0.9070832133293152  0.3340734839439392  1.0000
  Pr  Pr7       1.0  0.2982332110404968  0.27446460723876953  0.06014756113290787  1.0000
  Pr  Pr8       1.0  0.7961841821670532  0.6569133400917053  0.6812385320663451  1.0000
