data_image0
_chemical_formula_structural       O4Pr8Zn2
_chemical_formula_sum              "O4 Pr8 Zn2"
_cell_length_a       6.333622802228982
_cell_length_b       7.219751107059599
_cell_length_c       9.08222484588623
_cell_angle_alpha    103.81570726054495
_cell_angle_beta     89.56732608879364
_cell_angle_gamma    90.00197595156317

_space_group_name_H-M_alt    "P 1"
_space_group_IT_number       1

loop_
  _space_group_symop_operation_xyz
  'x, y, z'

loop_
  _atom_site_type_symbol
  _atom_site_label
  _atom_site_symmetry_multiplicity
  _atom_site_fract_x
  _atom_site_fract_y
  _atom_site_fract_z
  _atom_site_occupancy
  O   O1        1.0  0.7554808855056763  0.5994598865509033  0.5419095754623413  1.0000
  O   O2        1.0  0.24124543368816376  0.675086498260498  0.9354773163795471  1.0000
  O   O3        1.0  0.7487940192222595  0.9227426648139954  0.11803869158029559  1.0000
  O   O4        1.0  0.7448383569717407  0.4325105547904968  0.9787874817848206  1.0000
  Pr  Pr1       1.0  0.7546493411064148  0.7356896996498108  0.114412322640419  1.0000
  Pr  Pr2       1.0  0.7511094212532043  0.7112511396408081  0.1425317078828812  1.0000
  Pr  Pr3       1.0  0.25372472405433655  0.28027763962745667  0.33057111501693726  1.0000
  Pr  Pr4       1.0  0.7528542280197144  0.32740873098373413  0.33446359634399414  1.0000
  Pr  Pr5       1.0  0.2534467875957489  0.6503788828849792  0.36912912130355835  1.0000
  Pr  Pr6       1.0  0.25337740778923035  0.4604259133338928  0.5734783411026001  1.0000
  Pr  Pr7       1.0  0.7539108991622925  0.7636460065841675  0.9146145582199097  1.0000
  Pr  Pr8       1.0  0.2532580494880676  0.029737338423728943  0.46651941537857056  1.0000
  Zn  Zn1       1.0  0.2560694217681885  0.09062676876783371  0.6303701400756836  1.0000
  Zn  Zn2       1.0  0.25083601474761963  0.7912080883979797  0.8083761930465698  1.0000
