data_image0
_chemical_formula_structural       PdRbSScTaTe2WZr
_chemical_formula_sum              "Pd1 Rb1 S1 Sc1 Ta1 Te2 W1 Zr1"
_cell_length_a       6.51968259937961
_cell_length_b       6.504902953525964
_cell_length_c       6.9322896003723145
_cell_angle_alpha    62.36885126244954
_cell_angle_beta     62.436675997368496
_cell_angle_gamma    59.99212534214112

_space_group_name_H-M_alt    "P 1"
_space_group_IT_number       1

loop_
  _space_group_symop_operation_xyz
  'x, y, z'

loop_
  _atom_site_type_symbol
  _atom_site_label
  _atom_site_symmetry_multiplicity
  _atom_site_fract_x
  _atom_site_fract_y
  _atom_site_fract_z
  _atom_site_occupancy
  Pd  Pd1       1.0  0.6531822085380554  0.035470180213451385  0.45743459463119507  1.0000
  Rb  Rb1       1.0  0.5694857239723206  0.49591562151908875  0.9744853973388671  1.0000
  S   S1        1.0  0.21939246356487274  0.32257136702537537  0.43254992365837097  1.0000
  Sc  Sc1       1.0  0.2947351634502411  0.2191956490278244  0.7879849672317505  1.0000
  Ta  Ta1       1.0  0.018321681767702103  0.06909193843603134  0.1376779526472092  1.0000
  Te  Te1       1.0  0.8393662571907043  0.9047546982765198  0.815438985824585  1.0000
  Te  Te2       1.0  0.4955928325653076  0.6484223008155823  0.45612162351608276  1.0000
  W   W1        1.0  0.10634909570217133  0.03811826929450035  0.4255967140197754  1.0000
  Zr  Zr1       1.0  0.9236083030700684  0.7239251732826233  0.23364926874637604  1.0000
