data_image0
_chemical_formula_structural       BiCuGePdSc2Te2W
_chemical_formula_sum              "Bi1 Cu1 Ge1 Pd1 Sc2 Te2 W1"
_cell_length_a       6.1993866072564625
_cell_length_b       6.165771253571342
_cell_length_c       6.617478847503662
_cell_angle_alpha    90.01369541835388
_cell_angle_beta     90.00334687825956
_cell_angle_gamma    120.17471976577258

_space_group_name_H-M_alt    "P 1"
_space_group_IT_number       1

loop_
  _space_group_symop_operation_xyz
  'x, y, z'

loop_
  _atom_site_type_symbol
  _atom_site_label
  _atom_site_symmetry_multiplicity
  _atom_site_fract_x
  _atom_site_fract_y
  _atom_site_fract_z
  _atom_site_occupancy
  Bi  Bi1       1.0  0.272195428609848  0.3276308476924896  0.38492593169212336  1.0000
  Cu  Cu1       1.0  0.675462543964386  0.4907607436180115  0.6482008695602417  1.0000
  Ge  Ge1       1.0  0.42928072810173035  0.18426938354969025  0.895986497402191  1.0000
  Pd  Pd1       1.0  0.15586456656455994  0.5771754384040833  0.6478413939476013  1.0000
  Sc  Sc1       1.0  0.9847686290740967  0.144853413105011  0.9642179012298585  1.0000
  Sc  Sc2       1.0  0.4051266610622406  0.9299795031547546  0.26990845799446106  1.0000
  Te  Te1       1.0  0.6942833065986633  0.9130355715751648  0.5940474271774292  1.0000
  Te  Te2       1.0  0.968346357345581  0.6456446051597595  0.006746411323547363  1.0000
  W   W1        1.0  0.49672722816467285  0.6495130658149719  0.9663115739822388  1.0000
