data_image0
_chemical_formula_structural       Pd2Sc3Tl4
_chemical_formula_sum              "Pd2 Sc3 Tl4"
_cell_length_a       4.093694017900009
_cell_length_b       6.5115807828833585
_cell_length_c       8.622203826904297
_cell_angle_alpha    112.32460931231498
_cell_angle_beta     103.78708311730603
_cell_angle_gamma    90.00461564852147

_space_group_name_H-M_alt    "P 1"
_space_group_IT_number       1

loop_
  _space_group_symop_operation_xyz
  'x, y, z'

loop_
  _atom_site_type_symbol
  _atom_site_label
  _atom_site_symmetry_multiplicity
  _atom_site_fract_x
  _atom_site_fract_y
  _atom_site_fract_z
  _atom_site_occupancy
  Pd  Pd1       1.0  0.4883646070957184  0.368269681930542  0.2951161563396454  1.0000
  Pd  Pd2       1.0  0.8729753494262695  0.4980739951133728  0.08102384954690933  1.0000
  Sc  Sc1       1.0  0.0998234674334526  0.7331464290618896  0.5343819260597229  1.0000
  Sc  Sc2       1.0  0.8779316544532776  0.9580261707305908  0.08582514524459839  1.0000
  Sc  Sc3       1.0  0.681983470916748  0.19717879593372345  0.688786506652832  1.0000
  Tl  Tl1       1.0  0.07081680744886398  0.23598478734493256  0.4592331647872925  1.0000
  Tl  Tl2       1.0  0.48250192403793335  0.8099053502082825  0.29604601860046387  1.0000
  Tl  Tl3       1.0  0.2924136817455292  0.12154252827167511  0.9151735901832581  1.0000
  Tl  Tl4       1.0  0.2550950348377228  0.5945164561271667  0.8528308272361755  1.0000
