data_image0
_chemical_formula_structural       Ge2HI2P3SrTi
_chemical_formula_sum              "Ge2 H1 I2 P3 Sr1 Ti1"
_cell_length_a       5.341283050247536
_cell_length_b       5.56546534585363
_cell_length_c       7.07462739944458
_cell_angle_alpha    89.69262461863788
_cell_angle_beta     89.70603519357745
_cell_angle_gamma    89.67773512203635

_space_group_name_H-M_alt    "P 1"
_space_group_IT_number       1

loop_
  _space_group_symop_operation_xyz
  'x, y, z'

loop_
  _atom_site_type_symbol
  _atom_site_label
  _atom_site_symmetry_multiplicity
  _atom_site_fract_x
  _atom_site_fract_y
  _atom_site_fract_z
  _atom_site_occupancy
  Ge  Ge1       1.0  0.8068328499794006  0.01462241169065237  0.21813760697841644  1.0000
  Ge  Ge2       1.0  0.2927514314651489  0.5876845121383667  0.45294642448425293  1.0000
  H   H1        1.0  0.29187703132629395  0.2510508894920349  0.6472489237785339  1.0000
  I   I1        1.0  0.2901723086833954  0.9707623720169067  0.4605230987071991  1.0000
  I   I2        1.0  0.3019731640815735  0.273942232131958  0.9968200325965881  1.0000
  P   P1        1.0  0.7977267503738403  0.50475013256073  0.8051832914352417  1.0000
  P   P2        1.0  0.4897446632385254  0.8032548427581787  0.847740888595581  1.0000
  P   P3        1.0  0.7793477773666382  0.8143512010574341  0.028047414496541023  1.0000
  Sr  Sr1       1.0  0.291841596364975  0.179080992937088  0.9089064002037048  1.0000
  Ti  Ti1       1.0  0.8126384019851685  0.3304716646671295  0.6554628014564514  1.0000
