data_image0
_chemical_formula_structural       GaGe2I3O3Sc
_chemical_formula_sum              "Ga1 Ge2 I3 O3 Sc1"
_cell_length_a       6.251575575127421
_cell_length_b       5.960797611059133
_cell_length_c       8.335939407348633
_cell_angle_alpha    115.714484807646
_cell_angle_beta     109.90555169088094
_cell_angle_gamma    88.26354434927512

_space_group_name_H-M_alt    "P 1"
_space_group_IT_number       1

loop_
  _space_group_symop_operation_xyz
  'x, y, z'

loop_
  _atom_site_type_symbol
  _atom_site_label
  _atom_site_symmetry_multiplicity
  _atom_site_fract_x
  _atom_site_fract_y
  _atom_site_fract_z
  _atom_site_occupancy
  Ga  Ga1       1.0  0.489848792552948  0.8316675424575806  0.6324337720870972  1.0000
  Ge  Ge1       1.0  0.7807604074478149  0.9052427411079407  0.6905900239944458  1.0000
  Ge  Ge2       1.0  0.02581936866044998  0.5210587382316589  0.5939329266548157  1.0000
  I   I1        1.0  0.025652814656496048  0.033221300691366196  0.38171014189720154  1.0000
  I   I2        1.0  0.7669903635978699  0.21056433022022247  0.1531624048948288  1.0000
  I   I3        1.0  0.3478354513645172  0.8352159261703491  0.3937825560569764  1.0000
  O   O1        1.0  0.07611314207315445  0.5241394639015198  0.2133298367261887  1.0000
  O   O2        1.0  0.32821664214134216  0.5915526151657104  0.017145350575447083  1.0000
  O   O3        1.0  0.8244351744651794  0.5933128595352173  0.901085376739502  1.0000
  Sc  Sc1       1.0  0.5506216883659363  0.09725091606378555  0.3237021267414093  1.0000
