data_image0
_chemical_formula_structural       GeIIrO4Sc2Zr
_chemical_formula_sum              "Ge1 I1 Ir1 O4 Sc2 Zr1"
_cell_length_a       6.257118821301335
_cell_length_b       6.167716746006364
_cell_length_c       6.966775894165039
_cell_angle_alpha    109.8935095052425
_cell_angle_beta     110.48386711216386
_cell_angle_gamma    109.28194118173846

_space_group_name_H-M_alt    "P 1"
_space_group_IT_number       1

loop_
  _space_group_symop_operation_xyz
  'x, y, z'

loop_
  _atom_site_type_symbol
  _atom_site_label
  _atom_site_symmetry_multiplicity
  _atom_site_fract_x
  _atom_site_fract_y
  _atom_site_fract_z
  _atom_site_occupancy
  Ge  Ge1       1.0  0.09214379638433456  0.30189359188079834  0.6861925721168518  1.0000
  I   I1        1.0  0.8320359587669373  0.47555378079414373  0.3439536690711975  1.0000
  Ir  Ir1       1.0  0.7745083570480347  0.30291056632995605  0.14485988020896912  1.0000
  O   O1        1.0  0.5004550814628601  0.7976111173629761  0.9352161288261414  1.0000
  O   O2        1.0  0.1598932296037674  0.3040000796318054  0.6414071917533875  1.0000
  O   O3        1.0  0.32511359453201294  0.5895126461982727  0.24350003898143766  1.0000
  O   O4        1.0  0.16917458176612854  0.1330592781305313  0.6459357738494873  1.0000
  Sc  Sc1       1.0  0.5948808789253235  0.6559348106384277  0.5561526417732239  1.0000
  Sc  Sc2       1.0  0.5487717390060425  0.801898717880249  0.9375922679901122  1.0000
  Zr  Zr1       1.0  0.3351571261882782  0.2171703279018402  0.43160703778266907  1.0000
