data_image0
_chemical_formula_structural       Nd8O2
_chemical_formula_sum              "Nd8 O2"
_cell_length_a       6.336574700848465
_cell_length_b       5.855015099399115
_cell_length_c       6.540325164794922
_cell_angle_alpha    107.33929725163756
_cell_angle_beta     103.52909183170014
_cell_angle_gamma    110.64709759887873

_space_group_name_H-M_alt    "P 1"
_space_group_IT_number       1

loop_
  _space_group_symop_operation_xyz
  'x, y, z'

loop_
  _atom_site_type_symbol
  _atom_site_label
  _atom_site_symmetry_multiplicity
  _atom_site_fract_x
  _atom_site_fract_y
  _atom_site_fract_z
  _atom_site_occupancy
  Nd  Nd1       1.0  0.5834344029426575  0.8013925552368164  0.2561994791030883  1.0000
  Nd  Nd2       1.0  0.08949794620275497  0.15905112028121948  0.6119272708892822  1.0000
  Nd  Nd3       1.0  0.5936205387115479  0.18527236580848694  0.8050876259803773  1.0000
  Nd  Nd4       1.0  0.5845307111740112  0.19968806207180023  0.7777856588363649  1.0000
  Nd  Nd5       1.0  0.5712334513664246  0.5748192667961121  0.5064073204994202  1.0000
  Nd  Nd6       1.0  0.09253278374671936  0.10480576753616333  0.0006818466354161502  1.0000
  Nd  Nd7       1.0  0.5875420570373535  0.8792015910148621  0.7065875530242921  1.0000
  Nd  Nd8       1.0  0.08191885054111481  0.709304928779602  0.8023208975791932  1.0000
  O   O1        1.0  0.7716997861862183  0.5237299203872681  0.8729859590530397  1.0000
  O   O2        1.0  0.7342295050621033  0.5530038475990295  0.45745080709457403  1.0000
