data_image0
_chemical_formula_structural       I2O5PScSi
_chemical_formula_sum              "I2 O5 P1 Sc1 Si1"
_cell_length_a       4.989081881697643
_cell_length_b       4.594090610929014
_cell_length_c       9.071430206298828
_cell_angle_alpha    92.10886963331039
_cell_angle_beta     90.219881507628
_cell_angle_gamma    95.15255550932623

_space_group_name_H-M_alt    "P 1"
_space_group_IT_number       1

loop_
  _space_group_symop_operation_xyz
  'x, y, z'

loop_
  _atom_site_type_symbol
  _atom_site_label
  _atom_site_symmetry_multiplicity
  _atom_site_fract_x
  _atom_site_fract_y
  _atom_site_fract_z
  _atom_site_occupancy
  I   I1        1.0  0.8961778879165649  0.8120913505554199  0.468408316373825  1.0000
  I   I2        1.0  0.27958306670188904  0.17171087861061096  0.33608293533325195  1.0000
  O   O1        1.0  0.26566725969314575  0.5805078148841858  0.7411018013954163  1.0000
  O   O2        1.0  0.2523737847805023  0.6780123114585876  0.00110759981907904  1.0000
  O   O3        1.0  0.39862412214279175  0.021667947992682457  0.18595479428768158  1.0000
  O   O4        1.0  0.5100675821304321  0.177720844745636  0.46674415469169617  1.0000
  O   O5        1.0  0.7355486750602722  0.02140130288898945  0.21228647232055664  1.0000
  P   P1        1.0  0.8967867493629456  0.001136824837885797  0.9751996397972107  1.0000
  Sc  Sc1       1.0  0.9101653695106506  0.5776647925376892  0.8696812391281128  1.0000
  Si  Si1       1.0  0.40502622723579407  0.4761876165866852  0.5163699388504028  1.0000
