data_image0
_chemical_formula_structural       Nd10
_chemical_formula_sum              "Nd10"
_cell_length_a       5.61587490828394
_cell_length_b       5.629481282887094
_cell_length_c       6.016590595245361
_cell_angle_alpha    101.76511734315227
_cell_angle_beta     97.27112705559551
_cell_angle_gamma    105.23134400299955

_space_group_name_H-M_alt    "P 1"
_space_group_IT_number       1

loop_
  _space_group_symop_operation_xyz
  'x, y, z'

loop_
  _atom_site_type_symbol
  _atom_site_label
  _atom_site_symmetry_multiplicity
  _atom_site_fract_x
  _atom_site_fract_y
  _atom_site_fract_z
  _atom_site_occupancy
  Nd  Nd1       1.0  0.554218053817749  0.39727768301963806  0.6550357937812805  1.0000
  Nd  Nd2       1.0  0.5671385526657104  0.49715632200241083  0.6288032531738281  1.0000
  Nd  Nd3       1.0  0.8505921959877014  0.5352975130081177  0.8869174718856812  1.0000
  Nd  Nd4       1.0  0.5076075196266174  0.1218157336115837  0.8529398441314697  1.0000
  Nd  Nd5       1.0  0.8508521914482117  0.45027762651443476  0.02627771720290184  1.0000
  Nd  Nd6       1.0  0.5082036852836609  0.6733283400535583  0.06431227922439575  1.0000
  Nd  Nd7       1.0  0.09539248049259184  0.44979321956634516  0.4494152069091797  1.0000
  Nd  Nd8       1.0  0.5788981914520264  0.66087806224823  0.8759241104125977  1.0000
  Nd  Nd9       1.0  0.837823748588562  0.6060932874679565  0.07304326444864273  1.0000
  Nd  Nd10      1.0  0.06369964778423305  0.8707968592643737  0.760341227054596  1.0000
