data_image0
_chemical_formula_structural       AsF8Ga2I3O2PZn
_chemical_formula_sum              "As1 F8 Ga2 I3 O2 P1 Zn1"
_cell_length_a       5.46320817309197
_cell_length_b       5.587387064473896
_cell_length_c       8.800308227539062
_cell_angle_alpha    108.94269502533058
_cell_angle_beta     89.44271318579358
_cell_angle_gamma    89.9537534026241

_space_group_name_H-M_alt    "P 1"
_space_group_IT_number       1

loop_
  _space_group_symop_operation_xyz
  'x, y, z'

loop_
  _atom_site_type_symbol
  _atom_site_label
  _atom_site_symmetry_multiplicity
  _atom_site_fract_x
  _atom_site_fract_y
  _atom_site_fract_z
  _atom_site_occupancy
  As  As1       1.0  0.11632262170314789  0.04188878834247589  0.03215445578098297  1.0000
  F   F1        1.0  0.8290804028511047  0.5336572527885437  0.605462908744812  1.0000
  F   F2        1.0  0.11215697228908539  0.4730023443698883  0.16624391078948975  1.0000
  F   F3        1.0  0.4764341711997986  0.5989349484443665  0.8202987313270569  1.0000
  F   F4        1.0  0.0828978419303894  0.3529115319252014  0.27186787128448486  1.0000
  F   F5        1.0  0.07895880192518234  0.37119680643081665  0.030245812609791756  1.0000
  F   F6        1.0  0.5845674872398376  0.02974548749625683  0.15918290615081787  1.0000
  F   F7        1.0  0.10697057098150253  0.37388065457344055  0.25000056624412537  1.0000
  F   F8        1.0  0.7335845828056335  0.09034557640552521  0.056711193174123764  1.0000
  Ga  Ga1       1.0  0.5798293352127075  0.9330675601959229  0.9700719118118286  1.0000
  Ga  Ga2       1.0  0.8314918279647827  0.10808635503053665  0.23349791765213013  1.0000
  I   I1        1.0  0.2189294844865799  0.3960829973220825  0.6588732600212097  1.0000
  I   I2        1.0  0.7345446348190308  0.8211050033569336  0.33468613028526306  1.0000
  I   I3        1.0  0.8082478642463684  0.777586042881012  0.6818118691444397  1.0000
  O   O1        1.0  0.2846897542476654  0.2593232989311218  0.8564196228981018  1.0000
  O   O2        1.0  0.6312817335128784  0.3011458218097687  0.7144199013710022  1.0000
  P   P1        1.0  0.5754176378250122  0.07612655311822891  0.054897475987672806  1.0000
  Zn  Zn1       1.0  0.7129632234573364  0.1546139270067215  0.12847167253494263  1.0000
