data_image0
_chemical_formula_structural       AsCoF4GaI5P2PbPtSbZn
_chemical_formula_sum              "As1 Co1 F4 Ga1 I5 P2 Pb1 Pt1 Sb1 Zn1"
_cell_length_a       3.6466755393695283
_cell_length_b       8.034093551824563
_cell_length_c       11.70756721496582
_cell_angle_alpha    93.86633744273614
_cell_angle_beta     89.56156730031351
_cell_angle_gamma    89.14891823685207

_space_group_name_H-M_alt    "P 1"
_space_group_IT_number       1

loop_
  _space_group_symop_operation_xyz
  'x, y, z'

loop_
  _atom_site_type_symbol
  _atom_site_label
  _atom_site_symmetry_multiplicity
  _atom_site_fract_x
  _atom_site_fract_y
  _atom_site_fract_z
  _atom_site_occupancy
  As  As1       1.0  0.5506582260131836  0.925436794757843  0.5989713072776794  1.0000
  Co  Co1       1.0  0.1086879149079323  0.5294772386550903  0.5174539685249329  1.0000
  F   F1        1.0  0.6022828817367554  0.073581263422966  0.6006288528442383  1.0000
  F   F2        1.0  0.126301109790802  0.08695586025714874  0.1347896307706833  1.0000
  F   F3        1.0  0.1051120087504387  0.4158005714416504  0.04049559310078621  1.0000
  F   F4        1.0  0.6141785979270935  0.26657697558403015  0.7998332381248475  1.0000
  Ga  Ga1       1.0  0.613504946231842  0.056411951780319214  0.923186480998993  1.0000
  I   I1        1.0  0.1001185327768326  0.5524086356163025  0.6420156955718994  1.0000
  I   I2        1.0  0.11381845921278001  0.6718946099281311  0.6613363027572632  1.0000
  I   I3        1.0  0.11808735877275468  0.7664399147033691  0.6297487616539001  1.0000
  I   I4        1.0  0.6132575869560242  0.16919028759002686  0.9645068049430848  1.0000
  I   I5        1.0  0.6164374351501465  0.5240087509155273  0.3504254221916199  1.0000
  P   P1        1.0  0.6026301980018616  0.32708242535591125  0.6481694579124451  1.0000
  P   P2        1.0  0.12150876969099046  0.952235758304596  0.35281527042388916  1.0000
  Pb  Pb1       1.0  0.6288483738899231  0.9404121041297913  0.02843558415770531  1.0000
  Pt  Pt1       1.0  0.11711400002241136  0.696677029132843  0.25727683305740356  1.0000
  Sb  Sb1       1.0  0.11128684878349306  0.11995546519756317  0.6418653130531311  1.0000
  Zn  Zn1       1.0  0.1146850883960724  0.9872647523880005  0.9666744470596315  1.0000
