data_image0
_chemical_formula_structural       F10Ga2O2PPb2Zn
_chemical_formula_sum              "F10 Ga2 O2 P1 Pb2 Zn1"
_cell_length_a       5.57636532548511
_cell_length_b       3.6313977805990523
_cell_length_c       9.7399320602417
_cell_angle_alpha    100.399806015367
_cell_angle_beta     85.17666635194571
_cell_angle_gamma    28.099746334739024

_space_group_name_H-M_alt    "P 1"
_space_group_IT_number       1

loop_
  _space_group_symop_operation_xyz
  'x, y, z'

loop_
  _atom_site_type_symbol
  _atom_site_label
  _atom_site_symmetry_multiplicity
  _atom_site_fract_x
  _atom_site_fract_y
  _atom_site_fract_z
  _atom_site_occupancy
  F   F1        1.0  0.48452016711235046  0.9619931578636169  0.9773083329200745  1.0000
  F   F2        1.0  0.05132841691374779  0.5233869552612305  0.24146404862403875  1.0000
  F   F3        1.0  0.5455272197723389  0.7749146223068237  0.4556881785392761  1.0000
  F   F4        1.0  0.5438773036003113  0.16373825073242188  0.8731133937835693  1.0000
  F   F5        1.0  0.10703963786363602  0.08800529688596725  0.30237841606140137  1.0000
  F   F6        1.0  0.21200034022331238  0.03340766578912735  0.05474470183253288  1.0000
  F   F7        1.0  0.5250523686408997  0.07833962887525558  0.7779950499534607  1.0000
  F   F8        1.0  0.6447277069091797  0.5227357745170593  0.8582667708396912  1.0000
  F   F9        1.0  0.687049925327301  0.2594909965991974  0.6603206396102905  1.0000
  F   F10       1.0  0.052121229469776154  0.8304151296615601  0.33333849906921387  1.0000
  Ga  Ga1       1.0  0.485525518655777  0.5298741459846497  0.6177619099617004  1.0000
  Ga  Ga2       1.0  0.8521287441253662  0.787616491317749  0.8163532614707947  1.0000
  O   O1        1.0  0.8596095442771912  0.5720165967941284  0.8736546635627747  1.0000
  O   O2        1.0  0.5078104734420776  0.9158153533935547  0.8200145363807678  1.0000
  P   P1        1.0  0.4505041837692261  0.42697426676750183  0.25982093811035156  1.0000
  Pb  Pb1       1.0  0.06430124491453171  0.8743467330932617  0.5508908033370972  1.0000
  Pb  Pb2       1.0  0.6182095408439636  0.028379984200000763  0.8236623406410217  1.0000
  Zn  Zn1       1.0  0.9772847294807434  0.8466342091560364  0.18237876892089844  1.0000
