data_image0
_chemical_formula_structural       AgAs4F6MoO4PV
_chemical_formula_sum              "Ag1 As4 F6 Mo1 O4 P1 V1"
_cell_length_a       6.100476979630693
_cell_length_b       4.7359089735954445
_cell_length_c       6.990044116973877
_cell_angle_alpha    123.78616469329314
_cell_angle_beta     110.03992974693244
_cell_angle_gamma    124.10072023263001

_space_group_name_H-M_alt    "P 1"
_space_group_IT_number       1

loop_
  _space_group_symop_operation_xyz
  'x, y, z'

loop_
  _atom_site_type_symbol
  _atom_site_label
  _atom_site_symmetry_multiplicity
  _atom_site_fract_x
  _atom_site_fract_y
  _atom_site_fract_z
  _atom_site_occupancy
  Ag  Ag1       1.0  0.8529003858566283  0.13966532051563266  0.41340297460556025  1.0000
  As  As1       1.0  0.3206377029418946  0.8062387704849244  0.5443217158317566  1.0000
  As  As2       1.0  0.7688385248184204  0.3424113094806671  0.8566477298736571  1.0000
  As  As3       1.0  0.36287215352058416  0.5049896240234376  0.9306225776672363  1.0000
  As  As4       1.0  0.06975082308053977  0.6963113546371461  0.9250754714012146  1.0000
  F   F1        1.0  0.5814522504806519  0.9585530757904054  0.7028545141220093  1.0000
  F   F2        1.0  0.9806738495826722  0.07938873022794746  0.5115389227867128  1.0000
  F   F3        1.0  0.8575092554092406  0.6141248345375062  0.5992978811264038  1.0000
  F   F4        1.0  0.6605964303016663  0.12461578100919724  0.06371185183525084  1.0000
  F   F5        1.0  0.17451290786266327  0.058555889874696725  0.05046239867806433  1.0000
  F   F6        1.0  0.6828866600990295  0.6707041859626771  0.7226829528808594  1.0000
  Mo  Mo1       1.0  0.370688796043396  0.16461336612701422  0.18698793649673462  1.0000
  O   O1        1.0  0.29253950715065  0.38954886794090277  0.1556170284748077  1.0000
  O   O2        1.0  0.7097477316856384  0.3655210733413697  0.21447120606899261  1.0000
  O   O3        1.0  0.27247327566146856  0.6170170307159425  0.3705575466156006  1.0000
  O   O4        1.0  0.36698362231254583  0.9717223048210145  0.6143094301223755  1.0000
  P   P1        1.0  0.3675462901592256  0.8699778914451601  0.33475518226623535  1.0000
  V   V1        1.0  0.4009998440742493  0.5177385210990907  0.5318508148193359  1.0000
