data_image0
_chemical_formula_structural       As2F6Ga3OPb2PrZn3
_chemical_formula_sum              "As2 F6 Ga3 O1 Pb2 Pr1 Zn3"
_cell_length_a       6.635851997350114
_cell_length_b       7.008054530853163
_cell_length_c       8.988717079162598
_cell_angle_alpha    95.71214468408581
_cell_angle_beta     89.9606144668465
_cell_angle_gamma    89.75734751884346

_space_group_name_H-M_alt    "P 1"
_space_group_IT_number       1

loop_
  _space_group_symop_operation_xyz
  'x, y, z'

loop_
  _atom_site_type_symbol
  _atom_site_label
  _atom_site_symmetry_multiplicity
  _atom_site_fract_x
  _atom_site_fract_y
  _atom_site_fract_z
  _atom_site_occupancy
  As  As1       1.0  0.48082950711250305  0.08761393278837204  0.14292514324188232  1.0000
  As  As2       1.0  0.986363410949707  0.9977091550827026  0.6174308061599731  1.0000
  F   F1        1.0  0.8648122549057007  0.8557654023170471  0.22244250774383545  1.0000
  F   F2        1.0  0.6906959414482117  0.5994811654090881  0.41305819153785706  1.0000
  F   F3        1.0  0.48162731528282166  0.07121513038873672  0.3289695084095001  1.0000
  F   F4        1.0  0.9944320321083069  0.3169878423213959  0.003739370498806238  1.0000
  F   F5        1.0  0.9976368546485901  0.9003522396087646  0.45328277349472046  1.0000
  F   F6        1.0  0.047120269387960434  0.07063885033130646  0.813244104385376  1.0000
  Ga  Ga1       1.0  0.9917786121368408  0.8294088244438171  0.23740525543689728  1.0000
  Ga  Ga2       1.0  0.17102737724781036  0.32667970657348633  0.826839029788971  1.0000
  Ga  Ga3       1.0  0.49818962812423706  0.6607848405838013  0.4835098087787628  1.0000
  O   O1        1.0  0.49271833896636963  0.25516530871391296  0.818141758441925  1.0000
  Pb  Pb1       1.0  0.0028360127471387386  0.6297237873077393  0.999663233757019  1.0000
  Pb  Pb2       1.0  0.6579000353813171  0.9643206000328064  0.6147843599319458  1.0000
  Pr  Pr1       1.0  0.012424987740814686  0.5730217099189758  0.6844127178192139  1.0000
  Zn  Zn1       1.0  0.49427884817123413  0.8314436078071594  0.5800989866256714  1.0000
  Zn  Zn2       1.0  0.9916704893112183  0.9745822548866272  0.33844253420829773  1.0000
  Zn  Zn3       1.0  0.5030785202980042  0.07097625732421875  0.9607264995574951  1.0000
