data_image0
_chemical_formula_structural       As7F6O4P
_chemical_formula_sum              "As7 F6 O4 P1"
_cell_length_a       6.651769438585437
_cell_length_b       6.492889945782152
_cell_length_c       7.468386650085449
_cell_angle_alpha    116.5986557326654
_cell_angle_beta     113.54087533827195
_cell_angle_gamma    96.65806042949279

_space_group_name_H-M_alt    "P 1"
_space_group_IT_number       1

loop_
  _space_group_symop_operation_xyz
  'x, y, z'

loop_
  _atom_site_type_symbol
  _atom_site_label
  _atom_site_symmetry_multiplicity
  _atom_site_fract_x
  _atom_site_fract_y
  _atom_site_fract_z
  _atom_site_occupancy
  As  As1       1.0  0.2244938462972641  0.4296269118785858  0.8642144203186036  1.0000
  As  As2       1.0  0.27460867166519165  0.9405766129493713  0.675938606262207  1.0000
  As  As3       1.0  0.6232410669326782  0.42641735076904297  0.41620022058486944  1.0000
  As  As4       1.0  0.23341344296932223  0.5596171021461487  0.08988111466169357  1.0000
  As  As5       1.0  0.25747495889663696  0.14583098888397217  0.7171801328659058  1.0000
  As  As6       1.0  0.1509389579296112  0.6341198086738586  0.31261223554611206  1.0000
  As  As7       1.0  0.865796685218811  0.23213055729866028  0.7503193020820619  1.0000
  F   F1        1.0  0.7578260898590088  0.3074442148208618  0.3244094252586365  1.0000
  F   F2        1.0  0.7469938397407532  0.987514078617096  0.662379264831543  1.0000
  F   F3        1.0  0.7260284423828125  0.3822663128376007  0.40338113903999334  1.0000
  F   F4        1.0  0.7507984042167664  0.29879462718963623  0.5402479767799377  1.0000
  F   F5        1.0  0.8634817600250244  0.5318155288696289  0.2168109714984894  1.0000
  F   F6        1.0  0.1275511085987091  0.23942403495311737  0.6322743892669678  1.0000
  O   O1        1.0  0.6123840808868408  0.4633898138999939  0.08611522614955902  1.0000
  O   O2        1.0  0.8491464853286743  0.39563900232315063  0.161712646484375  1.0000
  O   O3        1.0  0.22277231514453888  0.9205127358436584  0.4802928566932679  1.0000
  O   O4        1.0  0.11984843015670778  0.1752297580242157  0.07510948181152344  1.0000
  P   P1        1.0  0.26792454719543457  0.03672174736857414  0.7967675328254701  1.0000
