data_image0
_chemical_formula_structural       BaPSiZr4
_chemical_formula_sum              "Ba1 P1 Si1 Zr4"
_cell_length_a       5.608342448248856
_cell_length_b       5.254563862196503
_cell_length_c       6.031025409698486
_cell_angle_alpha    61.47825377141189
_cell_angle_beta     64.20499054682092
_cell_angle_gamma    58.80174516424849

_space_group_name_H-M_alt    "P 1"
_space_group_IT_number       1

loop_
  _space_group_symop_operation_xyz
  'x, y, z'

loop_
  _atom_site_type_symbol
  _atom_site_label
  _atom_site_symmetry_multiplicity
  _atom_site_fract_x
  _atom_site_fract_y
  _atom_site_fract_z
  _atom_site_occupancy
  Ba  Ba1       1.0  0.18777583539485931  0.05767164006829262  0.8276680707931519  1.0000
  P   P1        1.0  0.44777390360832214  0.7016602754592896  0.9009870886802673  1.0000
  Si  Si1       1.0  0.4387771785259247  0.9864321947097778  0.9360129833221436  1.0000
  Zr  Zr1       1.0  0.9247702956199646  0.7323216199874878  0.3998996615409851  1.0000
  Zr  Zr2       1.0  0.1918513923883438  0.4571184515953064  0.11854256689548492  1.0000
  Zr  Zr3       1.0  0.6734797358512878  0.9778803586959839  0.6159470081329346  1.0000
  Zr  Zr4       1.0  0.9150112271308899  0.23029716312885284  0.3201825022697449  1.0000
