data_image0
_chemical_formula_structural       Co2HHoI2IrPTiZn
_chemical_formula_sum              "Co2 H1 Ho1 I2 Ir1 P1 Ti1 Zn1"
_cell_length_a       5.72023882176882
_cell_length_b       7.149586978837209
_cell_length_c       7.430397987365723
_cell_angle_alpha    116.58492969012818
_cell_angle_beta     90.74690712799256
_cell_angle_gamma    90.14877830386052

_space_group_name_H-M_alt    "P 1"
_space_group_IT_number       1

loop_
  _space_group_symop_operation_xyz
  'x, y, z'

loop_
  _atom_site_type_symbol
  _atom_site_label
  _atom_site_symmetry_multiplicity
  _atom_site_fract_x
  _atom_site_fract_y
  _atom_site_fract_z
  _atom_site_occupancy
  Co  Co1       1.0  0.7329686880111694  0.7314542531967163  0.935671329498291  1.0000
  Co  Co2       1.0  0.7372803092002869  0.2530139684677124  0.051314420998096466  1.0000
  H   H1        1.0  0.23626506328582764  0.06714292615652084  0.7098281383514404  1.0000
  Ho  Ho1       1.0  0.2362598478794098  0.22645774483680728  0.28913217782974243  1.0000
  I   I1        1.0  0.7363489270210266  0.8538236021995546  0.6787706017494202  1.0000
  I   I2        1.0  0.7372615337371826  0.37338024377822876  0.23379845917224887  1.0000
  Ir  Ir1       1.0  0.7213864922523499  0.5824466943740845  0.8437119126319885  1.0000
  P   P1        1.0  0.24021951854228973  0.799716055393219  0.2747311592102051  1.0000
  Ti  Ti1       1.0  0.2395868450403214  0.20856828987598422  0.06554468721151353  1.0000
  Zn  Zn1       1.0  0.23457229137420654  0.9255015254020692  0.029825104400515615  1.0000
