data_image0
_chemical_formula_structural       H2IInIr2Tb2TiZn
_chemical_formula_sum              "H2 I1 In1 Ir2 Tb2 Ti1 Zn1"
_cell_length_a       6.345102659827805
_cell_length_b       6.443083129439547
_cell_length_c       6.962839126586914
_cell_angle_alpha    107.74260530483977
_cell_angle_beta     109.5604123504623
_cell_angle_gamma    108.03570914333163

_space_group_name_H-M_alt    "P 1"
_space_group_IT_number       1

loop_
  _space_group_symop_operation_xyz
  'x, y, z'

loop_
  _atom_site_type_symbol
  _atom_site_label
  _atom_site_symmetry_multiplicity
  _atom_site_fract_x
  _atom_site_fract_y
  _atom_site_fract_z
  _atom_site_occupancy
  H   H1        1.0  0.7635295391082764  0.8445785641670226  0.4604295790195465  1.0000
  H   H2        1.0  0.7498521208763123  0.09411438554525374  0.47855210304260254  1.0000
  I   I1        1.0  0.022015146911144257  0.3554602265357971  0.9513636231422424  1.0000
  In  In1       1.0  0.2572210431098937  0.9308137893676757  0.37698996067047114  1.0000
  Ir  Ir1       1.0  0.2628604173660278  0.4531093537807464  0.2344623208045959  1.0000
  Ir  Ir2       1.0  0.26599317789077753  0.4203134179115295  0.7484035491943359  1.0000
  Tb  Tb1       1.0  0.261050909757614  0.768271505832672  0.5251160860061644  1.0000
  Tb  Tb2       1.0  0.545974314212799  0.9039518833160399  0.9423256516456604  1.0000
  Ti  Ti1       1.0  0.7767502665519714  0.4069758057594299  0.6051993370056152  1.0000
  Zn  Zn1       1.0  0.7598146796226501  0.9701875448226928  0.943030297756195  1.0000
