data_image0
_chemical_formula_structural       Ga2H2Ho2IIrPZn
_chemical_formula_sum              "Ga2 H2 Ho2 I1 Ir1 P1 Zn1"
_cell_length_a       5.470201945365575
_cell_length_b       6.270504749455019
_cell_length_c       7.128024101257324
_cell_angle_alpha    121.82954687814254
_cell_angle_beta     91.09891410468516
_cell_angle_gamma    93.50574046638036

_space_group_name_H-M_alt    "P 1"
_space_group_IT_number       1

loop_
  _space_group_symop_operation_xyz
  'x, y, z'

loop_
  _atom_site_type_symbol
  _atom_site_label
  _atom_site_symmetry_multiplicity
  _atom_site_fract_x
  _atom_site_fract_y
  _atom_site_fract_z
  _atom_site_occupancy
  Ga  Ga1       1.0  0.5993497371673584  0.32886672019958496  0.2740191221237183  1.0000
  Ga  Ga2       1.0  0.599216103553772  0.4298703670501709  0.2659325897693634  1.0000
  H   H1        1.0  0.5958918929100037  0.9937397837638855  0.5541899800300598  1.0000
  H   H2        1.0  0.10074850171804428  0.7399150133132935  0.7462812066078186  1.0000
  Ho  Ho1       1.0  0.6003316640853882  0.21346664428710938  0.6577490568161011  1.0000
  Ho  Ho2       1.0  0.09928925335407257  0.7140791416168213  0.9222058057785034  1.0000
  I   I1        1.0  0.5989892482757568  0.7044692039489746  0.19300642609596258  1.0000
  Ir  Ir1       1.0  0.5986837148666382  0.004324589390307665  0.2811756134033203  1.0000
  P   P1        1.0  0.09575716406106949  0.019055666401982307  0.5545978546142578  1.0000
  Zn  Zn1       1.0  0.09761886298656464  0.711766242980957  0.16610407829284668  1.0000
