data_image0
_chemical_formula_structural       B2EuHo6Ti
_chemical_formula_sum              "B2 Eu1 Ho6 Ti1"
_cell_length_a       4.696225546339369
_cell_length_b       4.784959697352263
_cell_length_c       6.898993015289307
_cell_angle_alpha    108.48769295200768
_cell_angle_beta     90.50384428429534
_cell_angle_gamma    91.20394957457128

_space_group_name_H-M_alt    "P 1"
_space_group_IT_number       1

loop_
  _space_group_symop_operation_xyz
  'x, y, z'

loop_
  _atom_site_type_symbol
  _atom_site_label
  _atom_site_symmetry_multiplicity
  _atom_site_fract_x
  _atom_site_fract_y
  _atom_site_fract_z
  _atom_site_occupancy
  B   B1        1.0  0.6619714498519897  0.23716028034687042  0.5037575364112854  1.0000
  B   B2        1.0  0.16244255006313324  0.8382847309112549  0.08664815127849583  1.0000
  Eu  Eu1       1.0  0.16104643046855927  0.4613237679004669  0.037151124328374883  1.0000
  Ho  Ho1       1.0  0.6597963571548462  0.7253507375717163  0.7179736495018005  1.0000
  Ho  Ho2       1.0  0.1592334806919098  0.6525452136993408  0.5068714618682861  1.0000
  Ho  Ho3       1.0  0.6618674397468567  0.4490901529788971  0.7732681035995485  1.0000
  Ho  Ho4       1.0  0.661043643951416  0.7020149230957031  0.9212929010391236  1.0000
  Ho  Ho5       1.0  0.16176088154315948  0.7272124290466309  0.8058529496192933  1.0000
  Ho  Ho6       1.0  0.6607965230941772  0.7543472051620483  0.10481376200914387  1.0000
  Ti  Ti1       1.0  0.16135774552822113  0.6253415942192078  0.65776526927948  1.0000
