data_image0
_chemical_formula_structural       B2HHo7
_chemical_formula_sum              "B2 H1 Ho7"
_cell_length_a       4.926253614162953
_cell_length_b       4.685207071524634
_cell_length_c       7.094788551330566
_cell_angle_alpha    90.149480000013
_cell_angle_beta     89.01146030998768
_cell_angle_gamma    90.88208865899988

_space_group_name_H-M_alt    "P 1"
_space_group_IT_number       1

loop_
  _space_group_symop_operation_xyz
  'x, y, z'

loop_
  _atom_site_type_symbol
  _atom_site_label
  _atom_site_symmetry_multiplicity
  _atom_site_fract_x
  _atom_site_fract_y
  _atom_site_fract_z
  _atom_site_occupancy
  B   B1        1.0  0.22361035645008087  0.8881667256355286  0.7362470626831055  1.0000
  B   B2        1.0  0.7180969715118408  0.7374514937400818  0.12626580893993378  1.0000
  H   H1        1.0  0.7384309768676758  0.6762956380844116  0.5935054421424866  1.0000
  Ho  Ho1       1.0  0.7206597924232483  0.4465034306049347  0.1268821358680725  1.0000
  Ho  Ho2       1.0  0.21913883090019226  0.37726348638534546  0.2639853060245514  1.0000
  Ho  Ho3       1.0  0.21211859583854675  0.7877290844917297  0.2175987958908081  1.0000
  Ho  Ho4       1.0  0.7204612493515015  0.9830595850944519  0.5656974911689758  1.0000
  Ho  Ho5       1.0  0.718746542930603  0.6157806515693665  0.9000656008720398  1.0000
  Ho  Ho6       1.0  0.22235165536403656  0.9055615067481995  0.09753289818763733  1.0000
  Ho  Ho7       1.0  0.21872557699680328  0.3347413241863251  0.936924934387207  1.0000
