data_image0
_chemical_formula_structural       CuLaLu3O3Ru3SmZn3
_chemical_formula_sum              "Cu1 La1 Lu3 O3 Ru3 Sm1 Zn3"
_cell_length_a       5.023626719654549
_cell_length_b       4.87594026180449
_cell_length_c       8.906292915344238
_cell_angle_alpha    90.69670933390425
_cell_angle_beta     89.80853672555072
_cell_angle_gamma    87.8241647963398

_space_group_name_H-M_alt    "P 1"
_space_group_IT_number       1

loop_
  _space_group_symop_operation_xyz
  'x, y, z'

loop_
  _atom_site_type_symbol
  _atom_site_label
  _atom_site_symmetry_multiplicity
  _atom_site_fract_x
  _atom_site_fract_y
  _atom_site_fract_z
  _atom_site_occupancy
  Cu  Cu1       1.0  0.6740345358848572  0.34622129797935486  0.720317006111145  1.0000
  La  La1       1.0  0.16228623688220978  0.23170548677444458  0.0716748908162117  1.0000
  Lu  Lu1       1.0  0.6507773995399475  0.3055691719055176  0.6922880411148071  1.0000
  Lu  Lu2       1.0  0.6584682464599609  0.16648972034454346  0.9481098055839539  1.0000
  Lu  Lu3       1.0  0.15884946286678314  0.34521156549453735  0.3244304060935974  1.0000
  O   O1        1.0  0.6635310649871826  0.2877025902271271  0.32915738224983215  1.0000
  O   O2        1.0  0.15063534677028656  0.28495582938194275  0.9923068284988403  1.0000
  O   O3        1.0  0.13830439746379852  0.9736689925193787  0.9434117078781128  1.0000
  Ru  Ru1       1.0  0.15019309520721436  0.57854825258255  0.3469986021518707  1.0000
  Ru  Ru2       1.0  0.6579204201698303  0.5821161866188049  0.4454836845397949  1.0000
  Ru  Ru3       1.0  0.6473737955093384  0.5103403925895691  0.09777016192674637  1.0000
  Sm  Sm1       1.0  0.6582174301147461  0.19726602733135223  0.48201602697372437  1.0000
  Zn  Zn1       1.0  0.6590204238891602  0.3857409954071045  0.8169385194778442  1.0000
  Zn  Zn2       1.0  0.6580187678337097  0.6539364457130432  0.16180983185768127  1.0000
  Zn  Zn3       1.0  0.1555093377828598  0.8761978149414062  0.12249861657619476  1.0000
