data_image0
_chemical_formula_structural       CdDyFH2O2PrRu4Zn2Zr
_chemical_formula_sum              "Cd1 Dy1 F1 H2 O2 Pr1 Ru4 Zn2 Zr1"
_cell_length_a       5.973352128422902
_cell_length_b       5.087696482974001
_cell_length_c       5.8377909660339355
_cell_angle_alpha    71.94403321578409
_cell_angle_beta     52.95671035509274
_cell_angle_gamma    44.93358670743783

_space_group_name_H-M_alt    "P 1"
_space_group_IT_number       1

loop_
  _space_group_symop_operation_xyz
  'x, y, z'

loop_
  _atom_site_type_symbol
  _atom_site_label
  _atom_site_symmetry_multiplicity
  _atom_site_fract_x
  _atom_site_fract_y
  _atom_site_fract_z
  _atom_site_occupancy
  Cd  Cd1       1.0  0.7303368449211121  0.18126082420349118  0.48669612407684326  1.0000
  Dy  Dy1       1.0  0.14679180085659027  0.6517334580421448  0.4479742050170898  1.0000
  F   F1        1.0  0.17283618450164803  0.7849739789962767  0.30931901931762695  1.0000
  H   H1        1.0  0.6411342024803163  0.791703164577484  0.9940283894538879  1.0000
  H   H2        1.0  0.7073772549629211  0.05757005885243415  0.051762308925390244  1.0000
  O   O1        1.0  0.21378195285797125  0.3859541714191436  0.9549496173858643  1.0000
  O   O2        1.0  0.9549400806427002  0.4042558372020721  0.8002719879150391  1.0000
  Pr  Pr1       1.0  0.43436068296432506  0.8132433295249938  0.6780644059181213  1.0000
  Ru  Ru1       1.0  0.6161721348762512  0.4549208283424377  0.9574205279350281  1.0000
  Ru  Ru2       1.0  0.12567336857318887  0.6932908296585082  0.4694698452949524  1.0000
  Ru  Ru3       1.0  0.6402904987335205  0.6396491527557373  0.8990039825439453  1.0000
  Ru  Ru4       1.0  0.46623337268829357  0.9587676525115966  0.7552800178527831  1.0000
  Zn  Zn1       1.0  0.8717517256736755  0.30180084705352783  0.41268596053123474  1.0000
  Zn  Zn2       1.0  0.3858118951320648  0.574652910232544  0.8535822629928589  1.0000
  Zr  Zr1       1.0  0.02262600697577002  0.21573999524116513  0.9947261214256287  1.0000
