data_image0
_chemical_formula_structural       Cu2O5PPrRu2TbZn3
_chemical_formula_sum              "Cu2 O5 P1 Pr1 Ru2 Tb1 Zn3"
_cell_length_a       5.10274206209714
_cell_length_b       4.778432456987199
_cell_length_c       6.761244773864746
_cell_angle_alpha    90.88864234443841
_cell_angle_beta     89.30612512455914
_cell_angle_gamma    89.06661088440202

_space_group_name_H-M_alt    "P 1"
_space_group_IT_number       1

loop_
  _space_group_symop_operation_xyz
  'x, y, z'

loop_
  _atom_site_type_symbol
  _atom_site_label
  _atom_site_symmetry_multiplicity
  _atom_site_fract_x
  _atom_site_fract_y
  _atom_site_fract_z
  _atom_site_occupancy
  Cu  Cu1       1.0  0.7897619605064392  0.5673258900642395  0.14511440694332123  1.0000
  Cu  Cu2       1.0  0.08676673471927643  0.94474858045578  0.6415663957595825  1.0000
  O   O1        1.0  0.7788150906562805  0.6013966202735901  0.19901077449321747  1.0000
  O   O2        1.0  0.2765621244907379  0.8388306498527527  0.012943386100232601  1.0000
  O   O3        1.0  0.2758311331272125  0.5240139961242676  0.656785249710083  1.0000
  O   O4        1.0  0.2569548189640045  0.11144760996103287  0.1677415519952774  1.0000
  O   O5        1.0  0.7604897618293762  0.1943746954202652  0.6153095364570618  1.0000
  P   P1        1.0  0.7894003987312317  0.8360059261322021  0.13267730176448822  1.0000
  Pr  Pr1       1.0  0.29711174964904785  0.2442566305398941  0.9186513423919678  1.0000
  Ru  Ru1       1.0  0.7840108871459961  0.48615431785583496  0.7327484488487244  1.0000
  Ru  Ru2       1.0  0.26950398087501526  0.40756985545158386  0.7818827629089355  1.0000
  Tb  Tb1       1.0  0.09047462046146393  0.9465171098709106  0.719397783279419  1.0000
  Zn  Zn1       1.0  0.29565149545669556  0.7969591617584229  0.3042445778846741  1.0000
  Zn  Zn2       1.0  0.7547784447669983  0.907516360282898  0.23330821096897125  1.0000
  Zn  Zn3       1.0  0.7886919379234314  0.6866539716720581  0.8594473600387573  1.0000
