data_image0
_chemical_formula_structural       La5O8Ru2
_chemical_formula_sum              "La5 O8 Ru2"
_cell_length_a       5.506882246795857
_cell_length_b       5.726993110474255
_cell_length_c       6.2676496505737305
_cell_angle_alpha    91.00893450638213
_cell_angle_beta     90.02520689085077
_cell_angle_gamma    90.48490972265226

_space_group_name_H-M_alt    "P 1"
_space_group_IT_number       1

loop_
  _space_group_symop_operation_xyz
  'x, y, z'

loop_
  _atom_site_type_symbol
  _atom_site_label
  _atom_site_symmetry_multiplicity
  _atom_site_fract_x
  _atom_site_fract_y
  _atom_site_fract_z
  _atom_site_occupancy
  La  La1       1.0  0.043901506811380386  0.09360183030366898  0.3964504599571228  1.0000
  La  La2       1.0  0.5345649719238281  0.9092727899551392  0.9197200536727905  1.0000
  La  La3       1.0  0.04475850984454155  0.8552164435386658  0.5206097960472107  1.0000
  La  La4       1.0  0.5513973832130432  0.7589415907859802  0.8646678328514099  1.0000
  La  La5       1.0  0.5500133633613586  0.7201731204986572  0.11025168746709824  1.0000
  O   O1        1.0  0.07240723818540573  0.8943443894386292  0.8476420640945435  1.0000
  O   O2        1.0  0.32037049531936646  0.9105854034423828  0.051012072712183  1.0000
  O   O3        1.0  0.8607823848724365  0.8963543772697449  0.46034976840019226  1.0000
  O   O4        1.0  0.368318647146225  0.8996987342834473  0.20205546915531158  1.0000
  O   O5        1.0  0.8581598997116089  0.3146020472049713  0.8225249648094177  1.0000
  O   O6        1.0  0.5100297331809998  0.17983992397785187  0.24616850912570953  1.0000
  O   O7        1.0  0.763877809047699  0.1944439709186554  0.8176648020744324  1.0000
  O   O8        1.0  0.35621893405914307  0.4721577763557434  0.9493798613548279  1.0000
  Ru  Ru1       1.0  0.2951037883758545  0.8765885233879089  0.4785453677177429  1.0000
  Ru  Ru2       1.0  0.5136713981628418  0.6752392649650574  0.8953626155853271  1.0000
