data_image0
_chemical_formula_structural       LaLuOP2Ru5Se2Zn3
_chemical_formula_sum              "La1 Lu1 O1 P2 Ru5 Se2 Zn3"
_cell_length_a       6.366999447941887
_cell_length_b       6.458584535890278
_cell_length_c       7.197101593017578
_cell_angle_alpha    68.45345356469096
_cell_angle_beta     72.43537129460849
_cell_angle_gamma    84.70110053842554

_space_group_name_H-M_alt    "P 1"
_space_group_IT_number       1

loop_
  _space_group_symop_operation_xyz
  'x, y, z'

loop_
  _atom_site_type_symbol
  _atom_site_label
  _atom_site_symmetry_multiplicity
  _atom_site_fract_x
  _atom_site_fract_y
  _atom_site_fract_z
  _atom_site_occupancy
  La  La1       1.0  0.675911009311676  0.7437829971313477  0.7897145748138428  1.0000
  Lu  Lu1       1.0  0.23830869793891907  0.7670779228210449  0.8488397002220154  1.0000
  O   O1        1.0  0.6730778813362122  0.6848136186599731  0.2732267677783966  1.0000
  P   P1        1.0  0.12175767123699188  0.018163293600082397  0.9787709712982178  1.0000
  P   P2        1.0  0.6390513181686401  0.9636510014533997  0.03648696839809424  1.0000
  Ru  Ru1       1.0  0.25520437955856323  0.2503756284713745  0.7144144177436829  1.0000
  Ru  Ru2       1.0  0.18417024612426758  0.46136218309402466  0.6075640320777893  1.0000
  Ru  Ru3       1.0  0.07545184344053268  0.28446391224861145  0.6285049915313721  1.0000
  Ru  Ru4       1.0  0.7039965391159058  0.35478395223617554  0.5731423497200012  1.0000
  Ru  Ru5       1.0  0.07804316282272339  0.23830701410770416  0.002628754125908017  1.0000
  Se  Se1       1.0  0.6523635387420654  0.8397682309150696  0.24362142384052277  1.0000
  Se  Se2       1.0  0.20062564313411713  0.8240131735801697  0.14134463667869568  1.0000
  Zn  Zn1       1.0  0.1404104083776474  0.8843991756439209  0.41016262769699097  1.0000
  Zn  Zn2       1.0  0.1407376527786255  0.40143635869026184  0.8584853410720825  1.0000
  Zn  Zn3       1.0  0.672723650932312  0.7729067802429199  0.08729348331689835  1.0000
