data_image0
_chemical_formula_structural       CuLa3O7RhRu3
_chemical_formula_sum              "Cu1 La3 O7 Rh1 Ru3"
_cell_length_a       5.4791080061596675
_cell_length_b       5.622755730774701
_cell_length_c       6.463934898376465
_cell_angle_alpha    68.27161888176637
_cell_angle_beta     65.99842514001594
_cell_angle_gamma    61.33773015448089

_space_group_name_H-M_alt    "P 1"
_space_group_IT_number       1

loop_
  _space_group_symop_operation_xyz
  'x, y, z'

loop_
  _atom_site_type_symbol
  _atom_site_label
  _atom_site_symmetry_multiplicity
  _atom_site_fract_x
  _atom_site_fract_y
  _atom_site_fract_z
  _atom_site_occupancy
  Cu  Cu1       1.0  0.659176766872406  0.7628732919692993  0.8809106349945068  1.0000
  La  La1       1.0  0.19756683707237244  0.06865980476140976  0.9953327775001526  1.0000
  La  La2       1.0  0.5095975399017334  0.8875153660774231  0.7052751779556274  1.0000
  La  La3       1.0  0.8540064692497253  0.13146503269672394  0.5046485066413879  1.0000
  O   O1        1.0  0.6617308259010315  0.7086185812950134  0.5936944484710693  1.0000
  O   O2        1.0  0.8462569117546082  0.0693727359175682  0.5517765283584595  1.0000
  O   O3        1.0  0.9401923418045044  0.4953251779079437  0.6427726745605469  1.0000
  O   O4        1.0  0.28837865591049194  0.3330684304237366  0.8295729160308838  1.0000
  O   O5        1.0  0.9269460439682007  0.7863367199897766  0.6820619702339172  1.0000
  O   O6        1.0  0.4621488153934479  0.19336195290088654  0.24279570579528809  1.0000
  O   O7        1.0  0.4347161054611206  0.5365001559257507  0.6142063140869141  1.0000
  Rh  Rh1       1.0  0.868468701839447  0.4065498411655426  0.12817111611366272  1.0000
  Ru  Ru1       1.0  0.22532342374324799  0.13957296311855316  0.9551592469215393  1.0000
  Ru  Ru2       1.0  0.3833109438419342  0.6740545630455017  0.4880174398422241  1.0000
  Ru  Ru3       1.0  0.2378329336643219  0.2631107568740845  0.023246919736266136  1.0000
