data_image0
_chemical_formula_structural       Ca4Pd3Rh2
_chemical_formula_sum              "Ca4 Pd3 Rh2"
_cell_length_a       5.322569652039005
_cell_length_b       5.401407435961373
_cell_length_c       7.745971202850342
_cell_angle_alpha    81.7651623829548
_cell_angle_beta     73.12368467713512
_cell_angle_gamma    60.67349881328331

_space_group_name_H-M_alt    "P 1"
_space_group_IT_number       1

loop_
  _space_group_symop_operation_xyz
  'x, y, z'

loop_
  _atom_site_type_symbol
  _atom_site_label
  _atom_site_symmetry_multiplicity
  _atom_site_fract_x
  _atom_site_fract_y
  _atom_site_fract_z
  _atom_site_occupancy
  Ca  Ca1       1.0  0.8742704391479492  0.31030991673469543  0.033220048993825926  1.0000
  Ca  Ca2       1.0  0.5469051599502563  0.9498476982116699  0.04066856577992438  1.0000
  Ca  Ca3       1.0  0.24339310824871063  0.7461695671081543  0.7634358406066895  1.0000
  Ca  Ca4       1.0  0.9471081495285034  0.45112499594688416  0.5341609716415405  1.0000
  Pd  Pd1       1.0  0.4755321443080902  0.5129631757736206  0.3731890022754669  1.0000
  Pd  Pd2       1.0  0.9742230772972107  0.9810440540313721  0.39490842819213867  1.0000
  Pd  Pd3       1.0  0.5202306509017944  0.205743208527565  0.6906944513320923  1.0000
  Rh  Rh1       1.0  0.15929529070854187  0.6057810187339783  0.132097065448761  1.0000
  Rh  Rh2       1.0  0.4798699915409088  0.9875504970550537  0.4001610875129699  1.0000
