data_image0
_chemical_formula_structural       Ca4Pd3Rh2
_chemical_formula_sum              "Ca4 Pd3 Rh2"
_cell_length_a       5.663722384642718
_cell_length_b       5.638527926275611
_cell_length_c       6.913017272949219
_cell_angle_alpha    72.62938902509364
_cell_angle_beta     72.4204774251073
_cell_angle_gamma    66.58372581365988

_space_group_name_H-M_alt    "P 1"
_space_group_IT_number       1

loop_
  _space_group_symop_operation_xyz
  'x, y, z'

loop_
  _atom_site_type_symbol
  _atom_site_label
  _atom_site_symmetry_multiplicity
  _atom_site_fract_x
  _atom_site_fract_y
  _atom_site_fract_z
  _atom_site_occupancy
  Ca  Ca1       1.0  0.4625592529773712  0.7587184309959412  0.3779362738132477  1.0000
  Ca  Ca2       1.0  0.3538559079170227  0.34274551272392273  0.13777802884578705  1.0000
  Ca  Ca3       1.0  0.1245189756155014  0.9830976724624634  0.899921178817749  1.0000
  Ca  Ca4       1.0  0.7641286849975586  0.13813813030719757  0.5080031156539917  1.0000
  Pd  Pd1       1.0  0.6285379528999329  0.9254931211471558  0.9224385023117067  1.0000
  Pd  Pd2       1.0  0.18469104170799255  0.49949362874031067  0.7447097301483154  1.0000
  Pd  Pd3       1.0  0.9936429858207703  0.6546133160591125  0.38182219862937933  1.0000
  Rh  Rh1       1.0  0.6882374882698059  0.5050350427627563  0.7504873275756836  1.0000
  Rh  Rh2       1.0  0.841019868850708  0.44775110483169556  0.08842247724533084  1.0000
