data_image0
_chemical_formula_structural       BaCaPdPrRhSnTeWZr
_chemical_formula_sum              "Ba1 Ca1 Pd1 Pr1 Rh1 Sn1 Te1 W1 Zr1"
_cell_length_a       5.651079208101987
_cell_length_b       6.936867498211113
_cell_length_c       6.913889408111572
_cell_angle_alpha    120.10218528412071
_cell_angle_beta     89.92913965106726
_cell_angle_gamma    90.02585564497387

_space_group_name_H-M_alt    "P 1"
_space_group_IT_number       1

loop_
  _space_group_symop_operation_xyz
  'x, y, z'

loop_
  _atom_site_type_symbol
  _atom_site_label
  _atom_site_symmetry_multiplicity
  _atom_site_fract_x
  _atom_site_fract_y
  _atom_site_fract_z
  _atom_site_occupancy
  Ba  Ba1       1.0  0.03547804057598114  0.3286494016647339  0.8795085549354553  1.0000
  Ca  Ca1       1.0  0.029913488775491714  0.26671159267425537  0.36197972297668457  1.0000
  Pd  Pd1       1.0  0.2754649519920349  0.8348421454429626  0.13869380950927737  1.0000
  Pr  Pr1       1.0  0.5324177145957947  0.5967633724212646  0.37045833468437195  1.0000
  Rh  Rh1       1.0  0.7836577296257019  0.837577760219574  0.1383810490369797  1.0000
  Sn  Sn1       1.0  0.532640278339386  0.1363685578107834  0.5084622502326965  1.0000
  Te  Te1       1.0  0.03127734735608101  0.7632785439491272  0.7238941788673401  1.0000
  W   W1        1.0  0.5330230593681335  0.5772925615310669  0.7986181974411011  1.0000
  Zr  Zr1       1.0  0.5312293767929077  0.03343560919165611  0.9290685057640076  1.0000
