data_image0
_chemical_formula_structural       BaCaNPdRhSeTe2Zr
_chemical_formula_sum              "Ba1 Ca1 N1 Pd1 Rh1 Se1 Te2 Zr1"
_cell_length_a       6.700400571816306
_cell_length_b       6.6579429905886744
_cell_length_c       6.664211750030518
_cell_angle_alpha    65.1072021302071
_cell_angle_beta     65.36043650181377
_cell_angle_gamma    64.66713257106552

_space_group_name_H-M_alt    "P 1"
_space_group_IT_number       1

loop_
  _space_group_symop_operation_xyz
  'x, y, z'

loop_
  _atom_site_type_symbol
  _atom_site_label
  _atom_site_symmetry_multiplicity
  _atom_site_fract_x
  _atom_site_fract_y
  _atom_site_fract_z
  _atom_site_occupancy
  Ba  Ba1       1.0  0.38937467336654663  0.9904327392578125  0.9984712004661561  1.0000
  Ca  Ca1       1.0  0.035175904631614685  0.6575338840484619  0.0805933475494385  1.0000
  N   N1        1.0  0.07205481827259064  0.2689112722873688  0.3204200863838196  1.0000
  Pd  Pd1       1.0  0.037241678684949875  0.048355769366025925  0.6364421844482422  1.0000
  Rh  Rh1       1.0  0.345930814743042  0.3058531582355499  0.3474797606468201  1.0000
  Se  Se1       1.0  0.6924734115600586  0.903896689414978  0.42878606915473944  1.0000
  Te  Te1       1.0  0.7336294054985046  0.3635985255241394  0.9059611558914186  1.0000
  Te  Te2       1.0  0.2640641927719116  0.5728437304496765  0.5887677669525148  1.0000
  Zr  Zr1       1.0  0.7325103878974915  0.30894774198532104  0.3574150502681733  1.0000
