data_image0
_chemical_formula_structural       O7P2SZr3
_chemical_formula_sum              "O7 P2 S1 Zr3"
_cell_length_a       6.15544057100306
_cell_length_b       6.51646631797083
_cell_length_c       6.535792827606201
_cell_angle_alpha    65.64142502873679
_cell_angle_beta     62.222453637941
_cell_angle_gamma    62.51842906195148

_space_group_name_H-M_alt    "P 1"
_space_group_IT_number       1

loop_
  _space_group_symop_operation_xyz
  'x, y, z'

loop_
  _atom_site_type_symbol
  _atom_site_label
  _atom_site_symmetry_multiplicity
  _atom_site_fract_x
  _atom_site_fract_y
  _atom_site_fract_z
  _atom_site_occupancy
  O   O1        1.0  0.5738121867179871  0.21021859347820282  0.6863109469413757  1.0000
  O   O2        1.0  0.5825933218002319  0.7811198234558105  0.3372099697589875  1.0000
  O   O3        1.0  0.31967777013778687  0.5234323740005493  0.15237899124622345  1.0000
  O   O4        1.0  0.034094180911779404  0.8585783243179321  0.6722283363342285  1.0000
  O   O5        1.0  0.5416946411132812  0.5323913097381592  0.5808224081993103  1.0000
  O   O6        1.0  0.3601882755756378  0.5163857340812683  0.9560568332672118  1.0000
  O   O7        1.0  0.8314907550811768  0.8427503705024719  0.24712963402271268  1.0000
  P   P1        1.0  0.8832223415374756  0.17404009401798248  0.4530306458473206  1.0000
  P   P2        1.0  0.6285591125488281  0.6365901827812195  0.6332201361656189  1.0000
  S   S1        1.0  0.9098880290985107  0.8184884190559387  0.08357653021812439  1.0000
  Zr  Zr1       1.0  0.8532607555389404  0.12605991959571838  0.9232299327850341  1.0000
  Zr  Zr2       1.0  0.8516102433204651  0.49788421392440796  0.3091172575950623  1.0000
  Zr  Zr3       1.0  0.28894051909446716  0.15930721163749695  0.6852960586547852  1.0000
