data_image0
_chemical_formula_structural       O7P2ScZr3
_chemical_formula_sum              "O7 P2 Sc1 Zr3"
_cell_length_a       6.852883698479323
_cell_length_b       7.034019600694549
_cell_length_c       7.126124858856201
_cell_angle_alpha    62.61791768891502
_cell_angle_beta     62.24630875278317
_cell_angle_gamma    60.47935165153451

_space_group_name_H-M_alt    "P 1"
_space_group_IT_number       1

loop_
  _space_group_symop_operation_xyz
  'x, y, z'

loop_
  _atom_site_type_symbol
  _atom_site_label
  _atom_site_symmetry_multiplicity
  _atom_site_fract_x
  _atom_site_fract_y
  _atom_site_fract_z
  _atom_site_occupancy
  O   O1        1.0  0.3952072858810425  0.17129981517791748  0.33021625876426697  1.0000
  O   O2        1.0  0.39916500449180603  0.6796603202819824  0.14113885164260864  1.0000
  O   O3        1.0  0.8584707975387573  0.7150324583053589  0.22959500551223755  1.0000
  O   O4        1.0  0.6041721701622009  0.18587017059326172  0.9842078685760498  1.0000
  O   O5        1.0  0.8458802103996277  0.6423068046569824  0.824117124080658  1.0000
  O   O6        1.0  0.28355643153190613  0.6637924313545227  0.6783038377761841  1.0000
  O   O7        1.0  0.31406548619270325  0.17845860123634338  0.6193283796310425  1.0000
  P   P1        1.0  0.8594197630882263  0.4528829753398895  0.6917080879211426  1.0000
  P   P2        1.0  0.8575706481933594  0.962565004825592  0.31154710054397583  1.0000
  Sc  Sc1       1.0  0.2169768065214157  0.4224022328853607  0.4794926941394806  1.0000
  Zr  Zr1       1.0  0.17163950204849243  0.6628435850143433  0.8457857966423035  1.0000
  Zr  Zr2       1.0  0.547093391418457  0.16180013120174408  0.8152432441711426  1.0000
  Zr  Zr3       1.0  0.8762948513031006  0.9140499234199524  0.8173694014549255  1.0000
