data_image0
_chemical_formula_structural       O7P3Zr3
_chemical_formula_sum              "O7 P3 Zr3"
_cell_length_a       6.39682991390266
_cell_length_b       6.640561656902587
_cell_length_c       6.438369274139404
_cell_angle_alpha    64.34540725286509
_cell_angle_beta     62.23410345360147
_cell_angle_gamma    63.603950632557655

_space_group_name_H-M_alt    "P 1"
_space_group_IT_number       1

loop_
  _space_group_symop_operation_xyz
  'x, y, z'

loop_
  _atom_site_type_symbol
  _atom_site_label
  _atom_site_symmetry_multiplicity
  _atom_site_fract_x
  _atom_site_fract_y
  _atom_site_fract_z
  _atom_site_occupancy
  O   O1        1.0  0.12756820023059845  0.8856033682823181  0.7718337178230286  1.0000
  O   O2        1.0  0.36890628933906555  0.5209699869155884  0.03818679600954056  1.0000
  O   O3        1.0  0.47010692954063416  0.014763394370675087  0.3280569314956665  1.0000
  O   O4        1.0  0.6561631560325623  0.1380862444639206  0.03368439897894859  1.0000
  O   O5        1.0  0.5615997314453125  0.2078796923160553  0.5565087795257568  1.0000
  O   O6        1.0  0.1367727518081665  0.34304356575012207  0.43485090136528015  1.0000
  O   O7        1.0  0.8048072457313538  0.12420885264873505  0.24414566159248344  1.0000
  P   P1        1.0  0.5718614459037781  0.5772068500518799  0.3657727539539337  1.0000
  P   P2        1.0  0.2888624668121338  0.5758439898490906  0.8474347591400146  1.0000
  P   P3        1.0  0.044641051441431046  0.6180318593978882  0.2526484429836273  1.0000
  Zr  Zr1       1.0  0.7288594245910645  0.06951148808002472  0.06778702139854424  1.0000
  Zr  Zr2       1.0  0.22302520275115967  0.5655520558357239  0.5605782866477966  1.0000
  Zr  Zr3       1.0  0.703403890132904  0.058829229325056076  0.7293719053268433  1.0000
