data_image0
_chemical_formula_structural       O3PSr4Zr5
_chemical_formula_sum              "O3 P1 Sr4 Zr5"
_cell_length_a       6.3397713568805045
_cell_length_b       6.686313459505957
_cell_length_c       8.442431449890137
_cell_angle_alpha    94.35566698969781
_cell_angle_beta     90.02414581157014
_cell_angle_gamma    89.89938427994566

_space_group_name_H-M_alt    "P 1"
_space_group_IT_number       1

loop_
  _space_group_symop_operation_xyz
  'x, y, z'

loop_
  _atom_site_type_symbol
  _atom_site_label
  _atom_site_symmetry_multiplicity
  _atom_site_fract_x
  _atom_site_fract_y
  _atom_site_fract_z
  _atom_site_occupancy
  O   O1        1.0  0.7042841911315918  0.9754930734634399  0.5174398422241211  1.0000
  O   O2        1.0  0.9399088621139526  0.4403753876686096  0.8764979839324951  1.0000
  O   O3        1.0  0.8438597917556763  0.7983778119087219  0.23362669348716736  1.0000
  P   P1        1.0  0.7029114961624146  0.3948327302932739  0.6911043524742126  1.0000
  Sr  Sr1       1.0  0.1866273283958435  0.019973408430814743  0.1548157036304474  1.0000
  Sr  Sr2       1.0  0.448047935962677  0.6919717788696289  0.8621075749397278  1.0000
  Sr  Sr3       1.0  0.7386360764503479  0.980110228061676  0.43449175357818604  1.0000
  Sr  Sr4       1.0  0.7977826595306396  0.668212354183197  0.10704752057790756  1.0000
  Zr  Zr1       1.0  0.8111109733581543  0.6839550137519836  0.9356569051742554  1.0000
  Zr  Zr2       1.0  0.31253281235694885  0.1737888604402542  0.8757035732269287  1.0000
  Zr  Zr3       1.0  0.9930465221405029  0.18285179138183594  0.9315905570983887  1.0000
  Zr  Zr4       1.0  0.790602445602417  0.17747297883033752  0.07336094975471497  1.0000
  Zr  Zr5       1.0  0.19466501474380493  0.3766814172267914  0.05262263864278793  1.0000
