data_image0
_chemical_formula_structural       O7P3Zr3
_chemical_formula_sum              "O7 P3 Zr3"
_cell_length_a       5.7727428604928805
_cell_length_b       7.2697159141271035
_cell_length_c       7.555926322937012
_cell_angle_alpha    118.68485517569061
_cell_angle_beta     102.34700165694339
_cell_angle_gamma    89.2662156516118

_space_group_name_H-M_alt    "P 1"
_space_group_IT_number       1

loop_
  _space_group_symop_operation_xyz
  'x, y, z'

loop_
  _atom_site_type_symbol
  _atom_site_label
  _atom_site_symmetry_multiplicity
  _atom_site_fract_x
  _atom_site_fract_y
  _atom_site_fract_z
  _atom_site_occupancy
  O   O1        1.0  0.9359301328659057  0.5211277008056641  0.15710976719856262  1.0000
  O   O2        1.0  0.870329201221466  0.8571676015853882  0.8961857557296753  1.0000
  O   O3        1.0  0.8810636401176452  0.5412319898605347  0.781700074672699  1.0000
  O   O4        1.0  0.14011162519454956  0.8361528515815735  0.6815135478973389  1.0000
  O   O5        1.0  0.5102372765541077  0.4367973208427429  0.573330283164978  1.0000
  O   O6        1.0  0.39638927578926086  0.330159068107605  0.7976215481758118  1.0000
  O   O7        1.0  0.8874541521072387  0.30809521675109863  0.7878938913345337  1.0000
  P   P1        1.0  0.40244215726852417  0.05932300165295601  0.06012674793601036  1.0000
  P   P2        1.0  0.6551088094711304  0.036580074578523636  0.8051336407661438  1.0000
  P   P3        1.0  0.9065958857536315  0.08363908529281616  0.08347021788358688  1.0000
  Zr  Zr1       1.0  0.28657981753349304  0.4766349494457245  0.06967953592538834  1.0000
  Zr  Zr2       1.0  0.06055579707026481  0.3439851701259613  0.5430215001106262  1.0000
  Zr  Zr3       1.0  0.6446114778518677  0.0666307881474495  0.2952018082141876  1.0000
