data_image0
_chemical_formula_structural       O3P3Sr3Zr4
_chemical_formula_sum              "O3 P3 Sr3 Zr4"
_cell_length_a       6.3579470404706
_cell_length_b       7.090923411370518
_cell_length_c       7.0477070808410645
_cell_angle_alpha    116.53754559050421
_cell_angle_beta     104.3234168174438
_cell_angle_gamma    100.38253317742704

_space_group_name_H-M_alt    "P 1"
_space_group_IT_number       1

loop_
  _space_group_symop_operation_xyz
  'x, y, z'

loop_
  _atom_site_type_symbol
  _atom_site_label
  _atom_site_symmetry_multiplicity
  _atom_site_fract_x
  _atom_site_fract_y
  _atom_site_fract_z
  _atom_site_occupancy
  O   O1        1.0  0.16376668214797974  0.2502892315387726  0.03393571078777313  1.0000
  O   O2        1.0  0.13261646032333374  0.5517550706863403  0.7946910858154297  1.0000
  O   O3        1.0  0.840789794921875  0.5257919430732727  0.27015024423599243  1.0000
  P   P1        1.0  0.5692178606987  0.25813108682632446  0.3748103380203247  1.0000
  P   P2        1.0  0.6656401753425598  0.5289944410324097  0.14456287026405334  1.0000
  P   P3        1.0  0.06744102388620377  0.7594085335731506  0.5761991143226624  1.0000
  Sr  Sr1       1.0  0.28187844157218933  0.5825340747833252  0.7854469418525696  1.0000
  Sr  Sr2       1.0  0.28458523750305176  0.5859083533287048  0.7843359708786011  1.0000
  Sr  Sr3       1.0  0.5585780143737793  0.13329453766345978  0.506562352180481  1.0000
  Zr  Zr1       1.0  0.15151605010032654  0.8442330360412598  0.1547699272632599  1.0000
  Zr  Zr2       1.0  0.4406200647354126  0.29834648966789246  0.9772273302078247  1.0000
  Zr  Zr3       1.0  0.648135244846344  0.831118106842041  0.6608282327651978  1.0000
  Zr  Zr4       1.0  0.8018940091133118  0.09185223281383514  0.9752421379089355  1.0000
