data_image0
_chemical_formula_structural       AlBF2HfScTeY
_chemical_formula_sum              "Al1 B1 F2 Hf1 Sc1 Te1 Y1"
_cell_length_a       5.3686731452748315
_cell_length_b       5.360218188498138
_cell_length_c       5.351215839385986
_cell_angle_alpha    96.25938468221747
_cell_angle_beta     96.42929294375625
_cell_angle_gamma    95.79376431788509

_space_group_name_H-M_alt    "P 1"
_space_group_IT_number       1

loop_
  _space_group_symop_operation_xyz
  'x, y, z'

loop_
  _atom_site_type_symbol
  _atom_site_label
  _atom_site_symmetry_multiplicity
  _atom_site_fract_x
  _atom_site_fract_y
  _atom_site_fract_z
  _atom_site_occupancy
  Al  Al1       1.0  0.892848014831543  0.12962816655635834  0.6942158937454224  1.0000
  B   B1        1.0  0.12642692029476166  0.8754850029945374  0.6956878900527954  1.0000
  F   F1        1.0  0.6305318474769592  0.3793871998786926  0.6926618814468383  1.0000
  F   F2        1.0  0.1856832653284073  0.39505547285079956  0.2724270224571228  1.0000
  Hf  Hf1       1.0  0.34026622772216797  0.06806948781013489  0.4323424100875855  1.0000
  Sc  Sc1       1.0  0.8545833826065063  0.5687842965126038  0.4289848804473877  1.0000
  Te  Te1       1.0  0.7381273508071899  0.982658326625824  0.1514153778553009  1.0000
  Y   Y1        1.0  0.3507295846939087  0.5676288604736328  0.9312528371810913  1.0000
