data_image0
_chemical_formula_structural       AlBBiFHLaNSc
_chemical_formula_sum              "Al1 B1 Bi1 F1 H1 La1 N1 Sc1"
_cell_length_a       5.282930293225306
_cell_length_b       5.251791654221486
_cell_length_c       5.256005764007568
_cell_angle_alpha    98.08995729654852
_cell_angle_beta     97.56798072051666
_cell_angle_gamma    97.7531335442751

_space_group_name_H-M_alt    "P 1"
_space_group_IT_number       1

loop_
  _space_group_symop_operation_xyz
  'x, y, z'

loop_
  _atom_site_type_symbol
  _atom_site_label
  _atom_site_symmetry_multiplicity
  _atom_site_fract_x
  _atom_site_fract_y
  _atom_site_fract_z
  _atom_site_occupancy
  Al  Al1       1.0  0.853140115737915  0.07113905996084213  0.08717469871044158  1.0000
  B   B1        1.0  0.8785443902015686  0.10937904566526413  0.6176964044570922  1.0000
  Bi  Bi1       1.0  0.6149036884307861  0.5159845352172852  0.10300295799970627  1.0000
  F   F1        1.0  0.11871366202831268  0.872909665107727  0.3171229660511017  1.0000
  H   H1        1.0  0.1252063661813736  0.23933552205562592  0.6940723657608032  1.0000
  La  La1       1.0  0.13789069652557373  0.6856225728988647  0.745093047618866  1.0000
  N   N1        1.0  0.7235870361328125  0.9608394503593445  0.7006672620773315  1.0000
  Sc  Sc1       1.0  0.45262160897254944  0.19028253853321075  0.4671137034893036  1.0000
