data_image0
_chemical_formula_structural       H2ScZn3Zr4
_chemical_formula_sum              "H2 Sc1 Zn3 Zr4"
_cell_length_a       5.613830232610173
_cell_length_b       7.022233021186183
_cell_length_c       6.814859390258789
_cell_angle_alpha    121.71580217512918
_cell_angle_beta     89.91717808669503
_cell_angle_gamma    90.22386002135173

_space_group_name_H-M_alt    "P 1"
_space_group_IT_number       1

loop_
  _space_group_symop_operation_xyz
  'x, y, z'

loop_
  _atom_site_type_symbol
  _atom_site_label
  _atom_site_symmetry_multiplicity
  _atom_site_fract_x
  _atom_site_fract_y
  _atom_site_fract_z
  _atom_site_occupancy
  H   H1        1.0  0.8718318343162537  0.8655767440795898  0.2814364433288573  1.0000
  H   H2        1.0  0.6101818680763245  0.33587464690208435  0.9626568555831908  1.0000
  Sc  Sc1       1.0  0.3692522943019867  0.39294669032096863  0.5471013188362122  1.0000
  Zn  Zn1       1.0  0.3693220317363739  0.9175525307655334  0.7380535006523131  1.0000
  Zn  Zn2       1.0  0.871706485748291  0.6413659453392029  0.8774449229240416  1.0000
  Zn  Zn3       1.0  0.8589692711830139  0.14455434679985046  0.28356581926345825  1.0000
  Zr  Zr1       1.0  0.8519282937049866  0.4285776615142822  0.7820276021957396  1.0000
  Zr  Zr2       1.0  0.3466717600822449  0.4419317841529846  0.050068784505128854  1.0000
  Zr  Zr3       1.0  0.8662664294242859  0.1489543467760086  0.23866960406303403  1.0000
  Zr  Zr4       1.0  0.35981327295303345  0.0924907699227333  0.22613602876663205  1.0000
