data_image0
_chemical_formula_structural       HNi3PYZnZr3
_chemical_formula_sum              "H1 Ni3 P1 Y1 Zn1 Zr3"
_cell_length_a       5.0536405435299
_cell_length_b       6.885359396880042
_cell_length_c       7.091559410095215
_cell_angle_alpha    120.59912204181973
_cell_angle_beta     89.73969876716109
_cell_angle_gamma    90.80167399886372

_space_group_name_H-M_alt    "P 1"
_space_group_IT_number       1

loop_
  _space_group_symop_operation_xyz
  'x, y, z'

loop_
  _atom_site_type_symbol
  _atom_site_label
  _atom_site_symmetry_multiplicity
  _atom_site_fract_x
  _atom_site_fract_y
  _atom_site_fract_z
  _atom_site_occupancy
  H   H1        1.0  0.7772449254989624  0.2617676854133606  0.45991575717926025  1.0000
  Ni  Ni1       1.0  0.672953724861145  0.5180138349533081  0.898126482963562  1.0000
  Ni  Ni2       1.0  0.9212341904640198  0.2693020701408386  0.9104725122451782  1.0000
  Ni  Ni3       1.0  0.16497325897216797  0.4446631669998169  0.7899541854858398  1.0000
  P   P1        1.0  0.9267998933792114  0.762083888053894  0.09983105957508087  1.0000
  Y   Y1        1.0  0.4310276210308075  0.766070544719696  0.8523138761520386  1.0000
  Zn  Zn1       1.0  0.6749313473701477  0.7645218372344971  0.6503049731254578  1.0000
  Zr  Zr1       1.0  0.6703233122825623  0.26095330715179443  0.16249695420265198  1.0000
  Zr  Zr2       1.0  0.17364934086799622  0.9803072214126587  0.6128692626953125  1.0000
  Zr  Zr3       1.0  0.17448203265666962  0.21783727407455444  0.29148587584495544  1.0000
