data_image0
_chemical_formula_structural       AlGdH2NiSc2ZnZr2
_chemical_formula_sum              "Al1 Gd1 H2 Ni1 Sc2 Zn1 Zr2"
_cell_length_a       5.563140818623733
_cell_length_b       5.760928585082956
_cell_length_c       5.65605354309082
_cell_angle_alpha    58.484835674625366
_cell_angle_beta     59.658474807938205
_cell_angle_gamma    60.517090441079546

_space_group_name_H-M_alt    "P 1"
_space_group_IT_number       1

loop_
  _space_group_symop_operation_xyz
  'x, y, z'

loop_
  _atom_site_type_symbol
  _atom_site_label
  _atom_site_symmetry_multiplicity
  _atom_site_fract_x
  _atom_site_fract_y
  _atom_site_fract_z
  _atom_site_occupancy
  Al  Al1       1.0  0.9743061065673828  0.2564704120159149  0.9294205904006958  1.0000
  Gd  Gd1       1.0  0.33177921175956726  0.7450643181800842  0.9206150770187378  1.0000
  H   H1        1.0  0.5611065626144409  0.21770009398460388  0.7272198796272278  1.0000
  H   H2        1.0  0.014372162520885468  0.24664661288261414  0.21996541321277618  1.0000
  Ni  Ni1       1.0  0.980694591999054  0.2710970938205719  0.48542827367782587  1.0000
  Sc  Sc1       1.0  0.3177967369556427  0.489670068025589  0.1453997641801834  1.0000
  Sc  Sc2       1.0  0.9723250269889832  0.7560495138168335  0.6594347357749939  1.0000
  Zn  Zn1       1.0  0.9761605262756348  0.25807783007621765  0.9333708882331848  1.0000
  Zr  Zr1       1.0  0.3254542052745819  0.99561607837677  0.9485108852386475  1.0000
  Zr  Zr2       1.0  0.4915192127227783  0.7480385899543762  0.4445847272872925  1.0000
