data_image0
_chemical_formula_structural       AlGaHMoSc2ZnZr3
_chemical_formula_sum              "Al1 Ga1 H1 Mo1 Sc2 Zn1 Zr3"
_cell_length_a       5.816764941861966
_cell_length_b       5.985519175188048
_cell_length_c       6.167551040649414
_cell_angle_alpha    62.9791302155935
_cell_angle_beta     60.02887662689616
_cell_angle_gamma    60.38367860142537

_space_group_name_H-M_alt    "P 1"
_space_group_IT_number       1

loop_
  _space_group_symop_operation_xyz
  'x, y, z'

loop_
  _atom_site_type_symbol
  _atom_site_label
  _atom_site_symmetry_multiplicity
  _atom_site_fract_x
  _atom_site_fract_y
  _atom_site_fract_z
  _atom_site_occupancy
  Al  Al1       1.0  0.36889809370040894  0.9238439798355103  0.1260526478290558  1.0000
  Ga  Ga1       1.0  0.39517462253570557  0.23517575860023499  0.838374137878418  1.0000
  H   H1        1.0  0.6918294429779053  0.8742507696151733  0.43594077229499817  1.0000
  Mo  Mo1       1.0  0.7844904661178589  0.42044562101364136  0.4201048016548157  1.0000
  Sc  Sc1       1.0  0.7036383748054504  0.4190603494644165  0.6727913618087769  1.0000
  Sc  Sc2       1.0  0.7584221363067627  0.42253220081329346  0.1692133992910385  1.0000
  Zn  Zn1       1.0  0.23822033405303955  0.7134671211242676  0.9079241752624512  1.0000
  Zr  Zr1       1.0  0.6933478116989136  0.12617190182209015  0.9318244457244873  1.0000
  Zr  Zr2       1.0  0.2769586741924286  0.9361761808395386  0.9501328468322754  1.0000
  Zr  Zr3       1.0  0.26725438237190247  0.4271312952041626  0.49169957637786865  1.0000
