data_image0
_chemical_formula_structural       Co7HO4Pb2Pr
_chemical_formula_sum              "Co7 H1 O4 Pb2 Pr1"
_cell_length_a       6.342804055651073
_cell_length_b       6.329754595155114
_cell_length_c       7.145147323608398
_cell_angle_alpha    65.29308587900289
_cell_angle_beta     69.18426349983604
_cell_angle_gamma    60.7760422132018

_space_group_name_H-M_alt    "P 1"
_space_group_IT_number       1

loop_
  _space_group_symop_operation_xyz
  'x, y, z'

loop_
  _atom_site_type_symbol
  _atom_site_label
  _atom_site_symmetry_multiplicity
  _atom_site_fract_x
  _atom_site_fract_y
  _atom_site_fract_z
  _atom_site_occupancy
  Co  Co1       1.0  0.0030159950256347656  0.26699551939964294  0.4889475107192993  1.0000
  Co  Co2       1.0  0.4540549814701081  0.5937691330909729  0.9049168229103088  1.0000
  Co  Co3       1.0  0.0569346733391285  0.9766384363174438  0.5838906168937683  1.0000
  Co  Co4       1.0  0.5162059664726257  0.12043251842260361  0.23931673169136042  1.0000
  Co  Co5       1.0  0.7468758821487427  0.06575034558773041  0.2634798586368561  1.0000
  Co  Co6       1.0  0.7112628221511841  0.5477933883666992  0.35452535748481745  1.0000
  Co  Co7       1.0  0.2684639096260071  0.007589749526232481  0.32139456272125244  1.0000
  H   H1        1.0  0.03131197392940521  0.07622670382261276  0.9106099009513855  1.0000
  O   O1        1.0  0.6896615028381348  0.5728142857551575  0.07265294343233109  1.0000
  O   O2        1.0  0.579845130443573  0.16478237509727478  0.7497698068618774  1.0000
  O   O3        1.0  0.19237349927425385  0.5904222130775452  0.673243522644043  1.0000
  O   O4        1.0  0.8501374721527101  0.5490610599517822  0.16375097632408134  1.0000
  Pb  Pb1       1.0  0.779909610748291  0.8840043544769287  0.9676902890205383  1.0000
  Pb  Pb2       1.0  0.021973872557282448  0.3097723126411438  0.8784932494163513  1.0000
  Pr  Pr1       1.0  0.007199098356068135  0.8507168292999268  0.8065585494041443  1.0000
