data_image0
_chemical_formula_structural       Co4F2HfO6PbRb
_chemical_formula_sum              "Co4 F2 Hf1 O6 Pb1 Rb1"
_cell_length_a       6.31890771033713
_cell_length_b       6.310190747424005
_cell_length_c       6.866373062133789
_cell_angle_alpha    117.55177640417577
_cell_angle_beta     109.34231948130972
_cell_angle_gamma    97.9122318046607

_space_group_name_H-M_alt    "P 1"
_space_group_IT_number       1

loop_
  _space_group_symop_operation_xyz
  'x, y, z'

loop_
  _atom_site_type_symbol
  _atom_site_label
  _atom_site_symmetry_multiplicity
  _atom_site_fract_x
  _atom_site_fract_y
  _atom_site_fract_z
  _atom_site_occupancy
  Co  Co1       1.0  0.41059747338294983  0.6863806843757629  0.9520868062973021  1.0000
  Co  Co2       1.0  0.7014791965484619  0.6440266966819763  0.09300588071346282  1.0000
  Co  Co3       1.0  0.045225661247968674  0.7847767472267151  0.20207075774669644  1.0000
  Co  Co4       1.0  0.3598605692386627  0.36657604575157166  0.7349267601966857  1.0000
  F   F1        1.0  0.2755415141582489  0.43107306957244873  0.6707091331481934  1.0000
  F   F2        1.0  0.5885289907455444  0.273952841758728  0.849026322364807  1.0000
  Hf  Hf1       1.0  0.08107639849185944  0.29695501923561096  0.22728431224822995  1.0000
  O   O1        1.0  0.8701632618904114  0.8999906182289124  0.9468435049057006  1.0000
  O   O2        1.0  0.9264026880264281  0.8179875016212463  0.2160944491624832  1.0000
  O   O3        1.0  0.3413583040237427  0.22280298173427582  0.7047663331031799  1.0000
  O   O4        1.0  0.4124414920806885  0.3385331630706787  0.1770598143339157  1.0000
  O   O5        1.0  0.019165335223078728  0.6007500290870667  0.5529074668884277  1.0000
  O   O6        1.0  0.664650559425354  0.4609781503677368  0.5873498916625977  1.0000
  Pb  Pb1       1.0  0.855968177318573  0.33726513385772705  0.7069091796875  1.0000
  Rb  Rb1       1.0  0.5572286248207092  0.4607803523540497  0.014540463685989378  1.0000
