data_image0
_chemical_formula_structural       Ag3As5O7
_chemical_formula_sum              "Ag3 As5 O7"
_cell_length_a       5.835835401767091
_cell_length_b       3.549861307849299
_cell_length_c       4.8696417808532715
_cell_angle_alpha    145.89023499427068
_cell_angle_beta     111.25935097970158
_cell_angle_gamma    102.44510054958339

_space_group_name_H-M_alt    "P 1"
_space_group_IT_number       1

loop_
  _space_group_symop_operation_xyz
  'x, y, z'

loop_
  _atom_site_type_symbol
  _atom_site_label
  _atom_site_symmetry_multiplicity
  _atom_site_fract_x
  _atom_site_fract_y
  _atom_site_fract_z
  _atom_site_occupancy
  Ag  Ag1       1.0  0.7477402687072754  0.6218366622924806  0.6629612445831299  1.0000
  Ag  Ag2       1.0  0.32156476378440857  0.558116614818573  0.6723774075508118  1.0000
  Ag  Ag3       1.0  0.607251763343811  0.10169113427400582  0.4712697863578796  1.0000
  As  As1       1.0  0.48524647951126093  0.20403352379798892  0.1842934638261795  1.0000
  As  As2       1.0  0.5645080804824829  0.31354185938835144  0.452616810798645  1.0000
  As  As3       1.0  0.18383954465389263  0.9586541652679447  0.9905622601509095  1.0000
  As  As4       1.0  0.83023202419281  0.4161655008792878  0.6550387144088745  1.0000
  As  As5       1.0  0.9553160667419432  0.3803629577159882  0.4311676025390625  1.0000
  O   O1        1.0  0.8996011018753051  0.6432854533195496  0.15941719710826868  1.0000
  O   O2        1.0  0.48339405655860895  0.617367148399353  0.01296706777065988  1.0000
  O   O3        1.0  0.0985502004623413  0.26377806067466736  0.40415534377098083  1.0000
  O   O4        1.0  0.7482599020004272  0.4057467877864838  0.08031005412340163  1.0000
  O   O5        1.0  0.09636266529560088  0.13652223348617556  0.3185314238071442  1.0000
  O   O6        1.0  0.47739762067794794  0.3459041714668274  0.005133911035954958  1.0000
  O   O7        1.0  0.742306649684906  0.2742211818695069  0.7685490846633912  1.0000
