data_image0
_chemical_formula_structural       AgAs4O10
_chemical_formula_sum              "Ag1 As4 O10"
_cell_length_a       5.2427467366416485
_cell_length_b       5.3961957515945596
_cell_length_c       6.014870643615723
_cell_angle_alpha    67.90762305691493
_cell_angle_beta     71.20827894816013
_cell_angle_gamma    71.11367467176981

_space_group_name_H-M_alt    "P 1"
_space_group_IT_number       1

loop_
  _space_group_symop_operation_xyz
  'x, y, z'

loop_
  _atom_site_type_symbol
  _atom_site_label
  _atom_site_symmetry_multiplicity
  _atom_site_fract_x
  _atom_site_fract_y
  _atom_site_fract_z
  _atom_site_occupancy
  Ag  Ag1       1.0  0.0631399005651474  0.7723850011825562  0.9243857264518738  1.0000
  As  As1       1.0  0.9790139198303223  0.9452279210090637  0.2974584698677063  1.0000
  As  As2       1.0  0.11223100125789642  0.08597847819328308  0.3267901539802551  1.0000
  As  As3       1.0  0.5733914971351624  0.8865789175033569  0.732922375202179  1.0000
  As  As4       1.0  0.0943007692694664  0.31066757440567017  0.7166907787322998  1.0000
  O   O1        1.0  0.4706811308860779  0.4539020359516144  0.8750742673873901  1.0000
  O   O2        1.0  0.4214895963668823  0.6717027425765991  0.41558343172073364  1.0000
  O   O3        1.0  0.5214691758155823  0.08421197533607483  0.36206167936325073  1.0000
  O   O4        1.0  0.5143988132476807  0.9910915493965149  0.6605935096740723  1.0000
  O   O5        1.0  0.05029093101620674  0.24003660678863525  0.8798807263374329  1.0000
  O   O6        1.0  0.4504217505455017  0.4829869866371155  0.7870615124702454  1.0000
  O   O7        1.0  0.4611069858074188  0.9515075087547302  0.10111343115568161  1.0000
  O   O8        1.0  0.9176011681556702  0.2480362355709076  0.8004612326622009  1.0000
  O   O9        1.0  0.4791373312473297  0.17788733541965485  0.6395455002784729  1.0000
  O   O10       1.0  0.9535415768623352  0.23204199969768524  0.6871278285980225  1.0000
