data_image0
_chemical_formula_structural       As5CoCsO5PPbZn
_chemical_formula_sum              "As5 Co1 Cs1 O5 P1 Pb1 Zn1"
_cell_length_a       6.692810479699703
_cell_length_b       6.48734079903346
_cell_length_c       8.295917510986328
_cell_angle_alpha    89.47650700009589
_cell_angle_beta     89.50590963594966
_cell_angle_gamma    89.12263067367199

_space_group_name_H-M_alt    "P 1"
_space_group_IT_number       1

loop_
  _space_group_symop_operation_xyz
  'x, y, z'

loop_
  _atom_site_type_symbol
  _atom_site_label
  _atom_site_symmetry_multiplicity
  _atom_site_fract_x
  _atom_site_fract_y
  _atom_site_fract_z
  _atom_site_occupancy
  As  As1       1.0  0.8849084973335266  0.4696871340274811  0.6861506104469299  1.0000
  As  As2       1.0  0.5495582222938538  0.3913653790950775  0.6737291812896729  1.0000
  As  As3       1.0  0.8427345156669617  0.7892215847969055  0.7168344855308533  1.0000
  As  As4       1.0  0.33913058042526245  0.9176083207130432  0.17772333323955536  1.0000
  As  As5       1.0  0.8411845564842224  0.20263460278511047  0.48843568563461304  1.0000
  Co  Co1       1.0  0.33119258284568787  0.17763707041740417  0.41041621565818787  1.0000
  Cs  Cs1       1.0  0.0901709645986557  0.9905518889427185  0.018236741423606873  1.0000
  O   O1        1.0  0.12115438282489777  0.20000463724136353  0.9963200092315674  1.0000
  O   O2        1.0  0.44285324215888977  0.9805909395217896  0.9085499048233032  1.0000
  O   O3        1.0  0.8016659617424011  0.49751415848731995  0.6619328856468201  1.0000
  O   O4        1.0  0.31155484914779663  0.3916177451610565  0.775580883026123  1.0000
  O   O5        1.0  0.37436768412590027  0.06826596707105637  0.16751936078071594  1.0000
  P   P1        1.0  0.32869043946266174  0.7062808275222778  0.7691224217414856  1.0000
  Pb  Pb1       1.0  0.3409690260887146  0.09987321496009827  0.1987656056880951  1.0000
  Zn  Zn1       1.0  0.8475209474563599  0.4448773264884949  0.2128981202840805  1.0000
