data_image0
_chemical_formula_structural       As3CdCoFO4PPbRbV2
_chemical_formula_sum              "As3 Cd1 Co1 F1 O4 P1 Pb1 Rb1 V2"
_cell_length_a       8.02946654347934
_cell_length_b       7.710391517698295
_cell_length_c       8.393808364868164
_cell_angle_alpha    86.56303224672807
_cell_angle_beta     65.14349027146038
_cell_angle_gamma    57.639107724374036

_space_group_name_H-M_alt    "P 1"
_space_group_IT_number       1

loop_
  _space_group_symop_operation_xyz
  'x, y, z'

loop_
  _atom_site_type_symbol
  _atom_site_label
  _atom_site_symmetry_multiplicity
  _atom_site_fract_x
  _atom_site_fract_y
  _atom_site_fract_z
  _atom_site_occupancy
  As  As1       1.0  0.9082810878753663  0.08769607543945312  0.3110792338848114  1.0000
  As  As2       1.0  0.3717759251594544  0.7009330987930298  0.42546066641807556  1.0000
  As  As3       1.0  0.03183882683515537  0.998774290084839  0.767400860786438  1.0000
  Cd  Cd1       1.0  0.012457675300538542  0.3886471688747406  0.788115382194519  1.0000
  Co  Co1       1.0  0.3857163786888122  0.8990651965141297  0.25387483835220337  1.0000
  F   F1        1.0  0.38060799241065985  0.4240514934062958  0.08057072758674624  1.0000
  O   O1        1.0  0.006492044776678086  0.3951735496520996  0.3648780584335327  1.0000
  O   O2        1.0  0.37687733769416815  0.30863049626350403  0.2594030201435089  1.0000
  O   O3        1.0  0.5030815005302429  0.42241427302360535  0.31232959032058716  1.0000
  O   O4        1.0  0.15304118394851685  0.7452030181884766  0.9157326817512512  1.0000
  P   P1        1.0  0.7597250342369081  0.5422559380531311  0.4548334777355194  1.0000
  Pb  Pb1       1.0  0.38062033057212835  0.44014912843704224  0.9429703950881958  1.0000
  Rb  Rb1       1.0  0.6051894426345825  0.5669748783111572  0.00031882734037935734  1.0000
  V   V1        1.0  0.2629983723163605  0.1277422308921814  0.6683780550956726  1.0000
  V   V2        1.0  0.09186524152755732  0.8952616453170777  0.012323212809860758  1.0000
