data_image0
_chemical_formula_structural       LaPSe3SiZn
_chemical_formula_sum              "La1 P1 Se3 Si1 Zn1"
_cell_length_a       6.068111413204844
_cell_length_b       5.841696380616612
_cell_length_c       7.251250743865967
_cell_angle_alpha    90.63578009304462
_cell_angle_beta     90.23050809825608
_cell_angle_gamma    111.3998152090126

_space_group_name_H-M_alt    "P 1"
_space_group_IT_number       1

loop_
  _space_group_symop_operation_xyz
  'x, y, z'

loop_
  _atom_site_type_symbol
  _atom_site_label
  _atom_site_symmetry_multiplicity
  _atom_site_fract_x
  _atom_site_fract_y
  _atom_site_fract_z
  _atom_site_occupancy
  La  La1       1.0  0.03984490782022476  0.24133102595806122  0.00237335916608572  1.0000
  P   P1        1.0  0.28211459517478943  0.04172954335808754  0.493838369846344  1.0000
  Se  Se1       1.0  0.3868206143379211  0.5475373864173889  0.5306367874145508  1.0000
  Se  Se2       1.0  0.9265860319137572  0.023786582052707672  0.7450796365737915  1.0000
  Se  Se3       1.0  0.11891092360019682  0.5523235201835632  0.14501678943634033  1.0000
  Si  Si1       1.0  0.7451082468032837  0.40733271837234497  0.4813779294490814  1.0000
  Zn  Zn1       1.0  0.3717426061630249  0.513551652431488  0.7019804120063782  1.0000
