data_image0
_chemical_formula_structural       Se6U
_chemical_formula_sum              "Se6 U1"
_cell_length_a       4.872786275736179
_cell_length_b       5.294143638450081
_cell_length_c       7.891536712646484
_cell_angle_alpha    92.71237453891553
_cell_angle_beta     90.29828668322092
_cell_angle_gamma    89.03447400921209

_space_group_name_H-M_alt    "P 1"
_space_group_IT_number       1

loop_
  _space_group_symop_operation_xyz
  'x, y, z'

loop_
  _atom_site_type_symbol
  _atom_site_label
  _atom_site_symmetry_multiplicity
  _atom_site_fract_x
  _atom_site_fract_y
  _atom_site_fract_z
  _atom_site_occupancy
  Se  Se1       1.0  0.740243136882782  0.6041656136512756  0.0018703436944633722  1.0000
  Se  Se2       1.0  0.9491248726844788  0.9966242909431458  0.6942757964134216  1.0000
  Se  Se3       1.0  0.25366654992103577  0.31703585386276245  0.28080353140830994  1.0000
  Se  Se4       1.0  0.24277018010616302  0.8199292421340942  0.7126240134239197  1.0000
  Se  Se5       1.0  0.7411754131317139  0.3527967631816864  0.27442458271980286  1.0000
  Se  Se6       1.0  0.2601720988750458  0.3208370804786682  0.760746955871582  1.0000
  U   U1        1.0  0.7480002045631409  0.3196001350879669  0.49218142032623297  1.0000
