data_image0
_chemical_formula_structural       Se6U
_chemical_formula_sum              "Se6 U1"
_cell_length_a       6.164293285557424
_cell_length_b       6.071061450737262
_cell_length_c       8.394240379333496
_cell_angle_alpha    90.65849928428912
_cell_angle_beta     90.11266396270571
_cell_angle_gamma    119.35267651908612

_space_group_name_H-M_alt    "P 1"
_space_group_IT_number       1

loop_
  _space_group_symop_operation_xyz
  'x, y, z'

loop_
  _atom_site_type_symbol
  _atom_site_label
  _atom_site_symmetry_multiplicity
  _atom_site_fract_x
  _atom_site_fract_y
  _atom_site_fract_z
  _atom_site_occupancy
  Se  Se1       1.0  0.4499421715736389  0.032995130866765976  0.7676500678062439  1.0000
  Se  Se2       1.0  0.9240332841873169  0.3593601584434509  0.5773959755897522  1.0000
  Se  Se3       1.0  0.09287697076797485  0.09906981140375137  0.08508803695440292  1.0000
  Se  Se4       1.0  0.261223167181015  0.5847347378730774  0.5687540769577026  1.0000
  Se  Se5       1.0  0.6123525500297546  0.10219934582710266  0.5748770833015442  1.0000
  Se  Se6       1.0  0.40492668747901917  0.8627394437789917  0.28343290090560913  1.0000
  U   U1        1.0  0.8005717992782593  0.5990067720413208  0.25439074635505676  1.0000
