data_image0
_chemical_formula_structural       HP5
_chemical_formula_sum              "H1 P5"
_cell_length_a       4.333582631689276
_cell_length_b       4.695846964513336
_cell_length_c       7.551512718200684
_cell_angle_alpha    103.01197038889556
_cell_angle_beta     100.44248736434838
_cell_angle_gamma    99.61130654201746

_space_group_name_H-M_alt    "P 1"
_space_group_IT_number       1

loop_
  _space_group_symop_operation_xyz
  'x, y, z'

loop_
  _atom_site_type_symbol
  _atom_site_label
  _atom_site_symmetry_multiplicity
  _atom_site_fract_x
  _atom_site_fract_y
  _atom_site_fract_z
  _atom_site_occupancy
  H   H1        1.0  0.6635437607765198  0.6710177659988403  0.21561877429485318  1.0000
  P   P1        1.0  0.45750892162323  0.08566219359636307  0.34415918588638306  1.0000
  P   P2        1.0  0.5358425378799438  0.6676648259162903  0.002595889614894986  1.0000
  P   P3        1.0  0.9462259411811829  0.6621619462966919  0.012318478897213934  1.0000
  P   P4        1.0  0.051750168204307556  0.1594012826681137  0.2238599509000778  1.0000
  P   P5        1.0  0.1710846722126007  0.9774891138076782  0.4605694115161895  1.0000
