data_image0
_chemical_formula_structural       As4Mn5OPb3Zr
_chemical_formula_sum              "As4 Mn5 O1 Pb3 Zr1"
_cell_length_a       6.476243142613135
_cell_length_b       6.768884358142394
_cell_length_c       7.775784015655518
_cell_angle_alpha    94.82264287958587
_cell_angle_beta     88.13852694810237
_cell_angle_gamma    90.56733089536218

_space_group_name_H-M_alt    "P 1"
_space_group_IT_number       1

loop_
  _space_group_symop_operation_xyz
  'x, y, z'

loop_
  _atom_site_type_symbol
  _atom_site_label
  _atom_site_symmetry_multiplicity
  _atom_site_fract_x
  _atom_site_fract_y
  _atom_site_fract_z
  _atom_site_occupancy
  As  As1       1.0  0.38451045751571655  0.051622409373521805  0.41213661432266235  1.0000
  As  As2       1.0  0.8777890205383301  0.3360132575035095  0.6839845776557923  1.0000
  As  As3       1.0  0.886968731880188  0.007940017618238926  0.3496907055377961  1.0000
  As  As4       1.0  0.8848493099212646  0.8967422842979431  0.6558423638343812  1.0000
  Mn  Mn1       1.0  0.8916475176811218  0.9999143481254578  0.6323261260986329  1.0000
  Mn  Mn2       1.0  0.8930087089538574  0.9618152379989624  0.7850767374038697  1.0000
  Mn  Mn3       1.0  0.3907187581062317  0.49390485882759094  0.8586854338645936  1.0000
  Mn  Mn4       1.0  0.8953189253807068  0.5537573099136353  0.30122616887092596  1.0000
  Mn  Mn5       1.0  0.3917433023452759  0.3973931670188904  0.5564696788787842  1.0000
  O   O1        1.0  0.07345063984394073  0.3544599413871765  0.71347713470459  1.0000
  Pb  Pb1       1.0  0.3909367024898529  0.06817732006311417  0.9159681797027589  1.0000
  Pb  Pb2       1.0  0.39045602083206177  0.03901379555463791  0.08162929862737657  1.0000
  Pb  Pb3       1.0  0.8971471786499023  0.1340509057044983  0.5226031541824341  1.0000
  Zr  Zr1       1.0  0.40117090940475464  0.09778503328561783  0.5676802992820739  1.0000
