data_image0
_chemical_formula_structural       AsMgMn5O4PPbS
_chemical_formula_sum              "As1 Mg1 Mn5 O4 P1 Pb1 S1"
_cell_length_a       6.033901272983768
_cell_length_b       6.070629329051253
_cell_length_c       6.532290458679199
_cell_angle_alpha    61.214916467506534
_cell_angle_beta     64.98293720126397
_cell_angle_gamma    61.21165793128419

_space_group_name_H-M_alt    "P 1"
_space_group_IT_number       1

loop_
  _space_group_symop_operation_xyz
  'x, y, z'

loop_
  _atom_site_type_symbol
  _atom_site_label
  _atom_site_symmetry_multiplicity
  _atom_site_fract_x
  _atom_site_fract_y
  _atom_site_fract_z
  _atom_site_occupancy
  As  As1       1.0  0.012796726077795029  0.041767045855522156  0.5332967042922974  1.0000
  Mg  Mg1       1.0  0.5627489686012268  0.685328483581543  0.6025696992874146  1.0000
  Mn  Mn1       1.0  0.822618305683136  0.035180337727069855  0.5253269076347351  1.0000
  Mn  Mn2       1.0  0.02275458350777626  0.21511788666248322  0.49147012829780584  1.0000
  Mn  Mn3       1.0  0.5499052405357361  0.1587359458208084  0.7548431754112244  1.0000
  Mn  Mn4       1.0  0.5771804451942444  0.8092304468154907  0.011590958572924137  1.0000
  Mn  Mn5       1.0  0.896090567111969  0.613476037979126  0.38499587774276733  1.0000
  O   O1        1.0  0.7650986909866333  0.4463631808757782  0.44092965126037603  1.0000
  O   O2        1.0  0.021888772025704384  0.004432206507772207  0.3120652139186859  1.0000
  O   O3        1.0  0.06412538886070251  0.6188201308250427  0.5866119265556335  1.0000
  O   O4        1.0  0.4431118071079254  0.8814508318901062  0.6228444576263428  1.0000
  P   P1        1.0  0.4337218701839447  0.6340777277946472  0.02428716979920864  1.0000
  Pb  Pb1       1.0  0.8708846569061279  0.07989900559186935  0.21559816598892215  1.0000
  S   S1        1.0  0.3202647268772125  0.9492282867431641  0.10783137381076814  1.0000
