data_image0
_chemical_formula_structural       Mn5O3Pb6
_chemical_formula_sum              "Mn5 O3 Pb6"
_cell_length_a       6.032290954662091
_cell_length_b       6.633402270113785
_cell_length_c       7.375608921051025
_cell_angle_alpha    81.35622523473243
_cell_angle_beta     66.56320193901855
_cell_angle_gamma    60.501205258059784

_space_group_name_H-M_alt    "P 1"
_space_group_IT_number       1

loop_
  _space_group_symop_operation_xyz
  'x, y, z'

loop_
  _atom_site_type_symbol
  _atom_site_label
  _atom_site_symmetry_multiplicity
  _atom_site_fract_x
  _atom_site_fract_y
  _atom_site_fract_z
  _atom_site_occupancy
  Mn  Mn1       1.0  0.7584637403488159  0.8473835587501526  0.630227267742157  1.0000
  Mn  Mn2       1.0  0.23157899081707  0.5055834054946899  0.2937186658382416  1.0000
  Mn  Mn3       1.0  0.2638167142868042  0.8606129288673401  0.32850101590156555  1.0000
  Mn  Mn4       1.0  0.7528666853904724  0.5097418427467346  0.3104747533798218  1.0000
  Mn  Mn5       1.0  0.7252627015113831  0.107121542096138  6.961822509765625e-05  1.0000
  O   O1        1.0  0.7181032299995422  0.631512463092804  0.011189306154847145  1.0000
  O   O2        1.0  0.7798377275466919  0.37756016850471497  0.3129391372203827  1.0000
  O   O3        1.0  0.06894184648990631  0.21055099368095398  0.8897141218185425  1.0000
  Pb  Pb1       1.0  0.2435699999332428  0.3209603726863861  0.23495660722255707  1.0000
  Pb  Pb2       1.0  0.2487490475177765  0.18597270548343658  0.16091366112232208  1.0000
  Pb  Pb3       1.0  0.5023955702781677  0.5138154029846191  0.8952183127403259  1.0000
  Pb  Pb4       1.0  0.7511260509490967  0.7695215344429016  0.3088569641113281  1.0000
  Pb  Pb5       1.0  0.6933887600898743  0.5428515672683716  0.7192822694778442  1.0000
  Pb  Pb6       1.0  0.9143924117088318  0.7100921273231506  0.5531826019287109  1.0000
