data_image0
_chemical_formula_structural       AsNpO3PPb4ZnZr3
_chemical_formula_sum              "As1 Np1 O3 P1 Pb4 Zn1 Zr3"
_cell_length_a       5.857591848709723
_cell_length_b       6.534264174603633
_cell_length_c       8.201197624206543
_cell_angle_alpha    96.90447144543089
_cell_angle_beta     90.47574138001086
_cell_angle_gamma    89.93976509063972

_space_group_name_H-M_alt    "P 1"
_space_group_IT_number       1

loop_
  _space_group_symop_operation_xyz
  'x, y, z'

loop_
  _atom_site_type_symbol
  _atom_site_label
  _atom_site_symmetry_multiplicity
  _atom_site_fract_x
  _atom_site_fract_y
  _atom_site_fract_z
  _atom_site_occupancy
  As  As1       1.0  0.5285679697990417  0.27839407324790955  0.047675710171461105  1.0000
  Np  Np1       1.0  0.5114825367927551  0.954221487045288  0.3941096067428589  1.0000
  O   O1        1.0  0.7913762927055359  0.39712062478065485  0.11710904538631439  1.0000
  O   O2        1.0  0.28821539878845215  0.6790716052055359  0.05149229243397711  1.0000
  O   O3        1.0  0.2949606478214264  0.69834166765213  0.46808716654777527  1.0000
  P   P1        1.0  0.2725851833820343  0.14602212607860565  0.686043918132782  1.0000
  Pb  Pb1       1.0  0.012163378298282623  0.13615357875823975  0.4204942584037781  1.0000
  Pb  Pb2       1.0  0.9165167212486267  0.3277999758720398  0.2842019498348236  1.0000
  Pb  Pb3       1.0  0.004083395004272461  0.6750659346580505  0.44524577260017395  1.0000
  Pb  Pb4       1.0  0.01669975556433201  0.19194641709327695  0.9690127968788147  1.0000
  Zn  Zn1       1.0  0.2813183069229126  0.9030590653419494  0.326768159866333  1.0000
  Zr  Zr1       1.0  0.5261703729629517  0.36077642440795893  0.7066681385040283  1.0000
  Zr  Zr2       1.0  0.012313815765082836  0.19739814102649686  0.4519331753253936  1.0000
  Zr  Zr3       1.0  0.7740245461463928  0.17504288256168363  0.8933616280555725  1.0000
