data_image0
_chemical_formula_structural       As3Mn2OP2Pb4Zr2
_chemical_formula_sum              "As3 Mn2 O1 P2 Pb4 Zr2"
_cell_length_a       7.292635695145201
_cell_length_b       7.186861918576705
_cell_length_c       7.852602481842041
_cell_angle_alpha    65.28617314353549
_cell_angle_beta     63.27980826829775
_cell_angle_gamma    61.453124811868065

_space_group_name_H-M_alt    "P 1"
_space_group_IT_number       1

loop_
  _space_group_symop_operation_xyz
  'x, y, z'

loop_
  _atom_site_type_symbol
  _atom_site_label
  _atom_site_symmetry_multiplicity
  _atom_site_fract_x
  _atom_site_fract_y
  _atom_site_fract_z
  _atom_site_occupancy
  As  As1       1.0  0.06506910920143132  0.48482763767242426  0.14089691638946533  1.0000
  As  As2       1.0  0.5885379910469055  0.34612277150154114  0.7310491800308228  1.0000
  As  As3       1.0  0.5551325082778931  0.147628054022789  0.07090571522712708  1.0000
  Mn  Mn1       1.0  0.09605421125888824  0.524646520614624  0.48415684700012207  1.0000
  Mn  Mn2       1.0  0.30889227986335754  0.5498290061950684  0.8230798244476318  1.0000
  O   O1        1.0  0.8937814235687256  0.7485997676849365  0.33868902921676636  1.0000
  P   P1        1.0  0.79021817445755  0.774557888507843  0.5608453750610352  1.0000
  P   P2        1.0  0.5963505506515504  0.9295746684074401  0.4409681558609009  1.0000
  Pb  Pb1       1.0  0.6503931283950806  0.4517994821071624  0.4815986454486847  1.0000
  Pb  Pb2       1.0  0.6059390306472778  0.8437657952308655  0.705194354057312  1.0000
  Pb  Pb3       1.0  0.07389789074659348  0.7182797193527222  0.16712215542793274  1.0000
  Pb  Pb4       1.0  0.1081920117139817  0.9512023329734801  0.45952603220939636  1.0000
  Zr  Zr1       1.0  0.3343532979488373  0.12895146012306213  0.13976697623729706  1.0000
  Zr  Zr2       1.0  0.56190425157547  0.3307962119579315  0.8663644194602966  1.0000
