data_image0
_chemical_formula_structural       Mn4O6Pb4
_chemical_formula_sum              "Mn4 O6 Pb4"
_cell_length_a       5.662343454557336
_cell_length_b       6.6992407459205
_cell_length_c       6.933816909790039
_cell_angle_alpha    117.30994481591536
_cell_angle_beta     89.93823220501324
_cell_angle_gamma    89.10668950814846

_space_group_name_H-M_alt    "P 1"
_space_group_IT_number       1

loop_
  _space_group_symop_operation_xyz
  'x, y, z'

loop_
  _atom_site_type_symbol
  _atom_site_label
  _atom_site_symmetry_multiplicity
  _atom_site_fract_x
  _atom_site_fract_y
  _atom_site_fract_z
  _atom_site_occupancy
  Mn  Mn1       1.0  0.09575501829385757  0.06953370571136475  0.7980384826660156  1.0000
  Mn  Mn2       1.0  0.09710999578237534  0.9075880646705629  0.7991983890533447  1.0000
  Mn  Mn3       1.0  0.09597121179103851  0.9538917541503907  0.11229453980922699  1.0000
  Mn  Mn4       1.0  0.833170473575592  0.0996125489473343  0.9153199195861816  1.0000
  O   O1        1.0  0.3323889672756195  0.2691272497177124  0.08173263072967528  1.0000
  O   O2        1.0  0.044246748089790344  0.7255249023437501  0.06383603811264038  1.0000
  O   O3        1.0  0.5337464213371277  0.5097096562385559  0.6948364973068237  1.0000
  O   O4        1.0  0.8759709596633911  0.12486889958381654  0.9500479102134705  1.0000
  O   O5        1.0  0.8543559908866882  0.4237456023693085  0.46233707666397095  1.0000
  O   O6        1.0  0.34083017706871027  0.19405888020992282  0.9585309624671937  1.0000
  Pb  Pb1       1.0  0.5928113460540771  0.5479226112365723  0.7083886861801147  1.0000
  Pb  Pb2       1.0  0.5785446763038635  0.7505387067794801  0.9342858195304871  1.0000
  Pb  Pb3       1.0  0.5974499583244324  0.8283388018608094  0.30038812756538386  1.0000
  Pb  Pb4       1.0  0.08579118549823761  0.2606205344200134  0.4486333727836609  1.0000
