data_image0
_chemical_formula_structural       INiP2Pb5SbZr
_chemical_formula_sum              "I1 Ni1 P2 Pb5 Sb1 Zr1"
_cell_length_a       4.9087740621574
_cell_length_b       6.416663151707264
_cell_length_c       7.695620059967041
_cell_angle_alpha    116.46796348338466
_cell_angle_beta     90.47672827890844
_cell_angle_gamma    91.639471296908

_space_group_name_H-M_alt    "P 1"
_space_group_IT_number       1

loop_
  _space_group_symop_operation_xyz
  'x, y, z'

loop_
  _atom_site_type_symbol
  _atom_site_label
  _atom_site_symmetry_multiplicity
  _atom_site_fract_x
  _atom_site_fract_y
  _atom_site_fract_z
  _atom_site_occupancy
  I   I1        1.0  0.34755295515060425  0.30440667271614075  0.14874674379825592  1.0000
  Ni  Ni1       1.0  0.05141148716211319  0.6884763240814209  0.5149800777435303  1.0000
  P   P1        1.0  0.05148065835237503  0.23644152283668518  0.3560466468334198  1.0000
  P   P2        1.0  0.5480846762657166  0.0518718957901001  0.3561266362667084  1.0000
  Pb  Pb1       1.0  0.0486525222659111  0.0015480014262720942  0.8646062016487122  1.0000
  Pb  Pb2       1.0  0.7781983017921448  0.9011282324790955  0.7952183485031128  1.0000
  Pb  Pb3       1.0  0.05616139620542526  0.3353390395641327  0.19626395404338837  1.0000
  Pb  Pb4       1.0  0.05214966833591461  0.4712097942829132  0.35787829756736755  1.0000
  Pb  Pb5       1.0  0.5503812432289124  0.9444212317466736  0.8472201824188232  1.0000
  Sb  Sb1       1.0  0.5518977046012878  0.49843084812164307  0.3698868453502655  1.0000
  Zr  Zr1       1.0  0.5525256395339966  0.6925229430198669  0.36114394664764404  1.0000
