data_image0
_chemical_formula_structural       GeINiPPb6Zn
_chemical_formula_sum              "Ge1 I1 Ni1 P1 Pb6 Zn1"
_cell_length_a       5.521138710924035
_cell_length_b       5.966936904290399
_cell_length_c       9.126753807067871
_cell_angle_alpha    110.54297933246711
_cell_angle_beta     98.20084896311309
_cell_angle_gamma    90.74510738614518

_space_group_name_H-M_alt    "P 1"
_space_group_IT_number       1

loop_
  _space_group_symop_operation_xyz
  'x, y, z'

loop_
  _atom_site_type_symbol
  _atom_site_label
  _atom_site_symmetry_multiplicity
  _atom_site_fract_x
  _atom_site_fract_y
  _atom_site_fract_z
  _atom_site_occupancy
  Ge  Ge1       1.0  0.35368648171424866  0.060966067016124725  0.9042336940765381  1.0000
  I   I1        1.0  0.8337299227714539  0.852311909198761  0.46718665957450867  1.0000
  Ni  Ni1       1.0  0.873103141784668  0.3848184049129486  0.24282218515872955  1.0000
  P   P1        1.0  0.8287479281425476  0.9306297302246094  0.45667555928230286  1.0000
  Pb  Pb1       1.0  0.3392093777656555  0.6879221796989441  0.05188576877117157  1.0000
  Pb  Pb2       1.0  0.6317240595817566  0.6967122554779053  0.4601488709449768  1.0000
  Pb  Pb3       1.0  0.8658067584037781  0.9312299489974976  0.749000608921051  1.0000
  Pb  Pb4       1.0  0.35203054547309875  0.22448737919330597  0.3169260025024414  1.0000
  Pb  Pb5       1.0  0.8428495526313782  0.29337847232818604  0.6754727959632874  1.0000
  Pb  Pb6       1.0  0.36696019768714905  0.19954808056354523  0.33484122157096863  1.0000
  Zn  Zn1       1.0  0.3402057886123657  0.3234208822250366  0.3621285557746887  1.0000
