data_image0
_chemical_formula_structural       GeINi2PPb6
_chemical_formula_sum              "Ge1 I1 Ni2 P1 Pb6"
_cell_length_a       6.90300469155898
_cell_length_b       6.8408117633459655
_cell_length_c       6.8913469314575195
_cell_angle_alpha    111.9044118372421
_cell_angle_beta     107.7604962563347
_cell_angle_gamma    109.6217099111449

_space_group_name_H-M_alt    "P 1"
_space_group_IT_number       1

loop_
  _space_group_symop_operation_xyz
  'x, y, z'

loop_
  _atom_site_type_symbol
  _atom_site_label
  _atom_site_symmetry_multiplicity
  _atom_site_fract_x
  _atom_site_fract_y
  _atom_site_fract_z
  _atom_site_occupancy
  Ge  Ge1       1.0  0.6870557069778442  0.6896243691444397  0.044228222221136156  1.0000
  I   I1        1.0  0.17199356853961945  0.3801848590373993  0.7630954384803772  1.0000
  Ni  Ni1       1.0  0.17669013142585754  0.1671135425567627  0.357885479927063  1.0000
  Ni  Ni2       1.0  0.9629580974578859  0.7530054450035095  0.7703941464424133  1.0000
  P   P1        1.0  0.6642765402793884  0.3656708896160126  0.7726487517356873  1.0000
  Pb  Pb1       1.0  0.6737450361251831  0.5070345997810364  0.8302131295204163  1.0000
  Pb  Pb2       1.0  0.4924371540546418  0.07878181338310242  0.35700640082359314  1.0000
  Pb  Pb3       1.0  0.016347071155905724  0.9894680976867676  0.609187662601471  1.0000
  Pb  Pb4       1.0  0.6512438058853149  0.42910051345825195  0.7685814499855042  1.0000
  Pb  Pb5       1.0  0.6594458222389221  0.08045223355293274  0.768221914768219  1.0000
  Pb  Pb6       1.0  0.15591628849506378  0.8839687705039978  0.06093098595738417  1.0000
