data_image0
_chemical_formula_structural       La2Ni4Pb5
_chemical_formula_sum              "La2 Ni4 Pb5"
_cell_length_a       6.195136583302883
_cell_length_b       7.230073327818377
_cell_length_c       6.797267913818359
_cell_angle_alpha    127.54183417553723
_cell_angle_beta     92.52429171734693
_cell_angle_gamma    91.65135410301947

_space_group_name_H-M_alt    "P 1"
_space_group_IT_number       1

loop_
  _space_group_symop_operation_xyz
  'x, y, z'

loop_
  _atom_site_type_symbol
  _atom_site_label
  _atom_site_symmetry_multiplicity
  _atom_site_fract_x
  _atom_site_fract_y
  _atom_site_fract_z
  _atom_site_occupancy
  La  La1       1.0  0.9371798634529114  0.895627498626709  0.8148074746131898  1.0000
  La  La2       1.0  0.9390955567359924  0.3217047154903412  0.6544557809829712  1.0000
  Ni  Ni1       1.0  0.9243475794792175  0.19811077415943146  0.6233838796615601  1.0000
  Ni  Ni2       1.0  0.43422502279281616  0.6705561876296997  0.3106245696544648  1.0000
  Ni  Ni3       1.0  0.9409833550453186  0.36819735169410706  0.8003592491149902  1.0000
  Ni  Ni4       1.0  0.43366286158561707  0.5273888111114502  0.06472592800855644  1.0000
  Pb  Pb1       1.0  0.6630959510803223  0.5818654298782349  0.8669745922088623  1.0000
  Pb  Pb2       1.0  0.9347149729728699  0.3457837998867035  0.48725518584251404  1.0000
  Pb  Pb3       1.0  0.43287062644958496  0.270182728767395  0.38122084736824036  1.0000
  Pb  Pb4       1.0  0.17834292352199554  0.10938408225774765  0.17296576499938965  1.0000
  Pb  Pb5       1.0  0.4128575325012207  0.4435153901576996  0.6033005714416504  1.0000
