data_image0
_chemical_formula_structural       La3Ni4Pb4
_chemical_formula_sum              "La3 Ni4 Pb4"
_cell_length_a       6.077228983329556
_cell_length_b       6.344433687161324
_cell_length_c       7.771063327789307
_cell_angle_alpha    119.59714255159386
_cell_angle_beta     108.45762562742846
_cell_angle_gamma    95.38103384230402

_space_group_name_H-M_alt    "P 1"
_space_group_IT_number       1

loop_
  _space_group_symop_operation_xyz
  'x, y, z'

loop_
  _atom_site_type_symbol
  _atom_site_label
  _atom_site_symmetry_multiplicity
  _atom_site_fract_x
  _atom_site_fract_y
  _atom_site_fract_z
  _atom_site_occupancy
  La  La1       1.0  0.6273109316825867  0.9786896705627443  0.18193508684635162  1.0000
  La  La2       1.0  0.3124091923236847  0.42465183138847357  0.5024029612541199  1.0000
  La  La3       1.0  0.38310831785202026  0.16684342920780182  0.0978035032749176  1.0000
  Ni  Ni1       1.0  0.2859167754650116  0.627906084060669  0.5725229382514954  1.0000
  Ni  Ni2       1.0  0.3358753919601441  0.9214720129966737  0.6524661779403687  1.0000
  Ni  Ni3       1.0  0.20123153924942017  0.5053920149803162  0.3578304648399353  1.0000
  Ni  Ni4       1.0  0.12540981173515323  0.3904158174991608  0.008334703743457794  1.0000
  Pb  Pb1       1.0  0.7241341471672058  0.16146504878997803  0.4925191700458527  1.0000
  Pb  Pb2       1.0  0.5759456157684326  0.07583187520503998  0.3394966721534729  1.0000
  Pb  Pb3       1.0  0.816288948059082  0.9868844747543336  0.14187955856323242  1.0000
  Pb  Pb4       1.0  0.786518394947052  0.11875297874212266  0.6161849498748779  1.0000
