data_image0
_chemical_formula_structural       LaNi2PPb7
_chemical_formula_sum              "La1 Ni2 P1 Pb7"
_cell_length_a       5.452067410747635
_cell_length_b       7.870676175857872
_cell_length_c       8.351300239562988
_cell_angle_alpha    123.31772737780024
_cell_angle_beta     90.37051818555962
_cell_angle_gamma    87.65720914001126

_space_group_name_H-M_alt    "P 1"
_space_group_IT_number       1

loop_
  _space_group_symop_operation_xyz
  'x, y, z'

loop_
  _atom_site_type_symbol
  _atom_site_label
  _atom_site_symmetry_multiplicity
  _atom_site_fract_x
  _atom_site_fract_y
  _atom_site_fract_z
  _atom_site_occupancy
  La  La1       1.0  0.1830514520406723  0.6485477685928345  0.3825842142105102  1.0000
  Ni  Ni1       1.0  0.666462779045105  0.28276848793029785  0.7742837071418762  1.0000
  Ni  Ni2       1.0  0.6937162280082703  0.775299310684204  0.1196901798248291  1.0000
  P   P1        1.0  0.18754075467586517  0.7180078625679016  0.27085772156715393  1.0000
  Pb  Pb1       1.0  0.6780824065208435  0.10852352529764174  0.0795881524682045  1.0000
  Pb  Pb2       1.0  0.1880711019039154  0.7816090583801268  0.64131098985672  1.0000
  Pb  Pb3       1.0  0.3565432131290436  0.4107994139194488  0.33682018518447876  1.0000
  Pb  Pb4       1.0  0.172639399766922  0.2734333574771881  0.8850053548812866  1.0000
  Pb  Pb5       1.0  0.6518412232398987  0.9125422239303588  0.6766045093536377  1.0000
  Pb  Pb6       1.0  0.1986057609319687  0.789519429206848  0.9645121693611145  1.0000
  Pb  Pb7       1.0  0.7832015752792358  0.6128650307655334  0.6111456751823425  1.0000
