data_image0
_chemical_formula_structural       ClFGeHfLaNa2Te2
_chemical_formula_sum              "Cl1 F1 Ge1 Hf1 La1 Na2 Te2"
_cell_length_a       6.404787953038905
_cell_length_b       6.360975509306632
_cell_length_c       6.344889163970947
_cell_angle_alpha    99.77387639128071
_cell_angle_beta     99.74648654762957
_cell_angle_gamma    99.29497251861444

_space_group_name_H-M_alt    "P 1"
_space_group_IT_number       1

loop_
  _space_group_symop_operation_xyz
  'x, y, z'

loop_
  _atom_site_type_symbol
  _atom_site_label
  _atom_site_symmetry_multiplicity
  _atom_site_fract_x
  _atom_site_fract_y
  _atom_site_fract_z
  _atom_site_occupancy
  Cl  Cl1       1.0  0.9075918197631836  0.3008168637752533  0.533875048160553  1.0000
  F   F1        1.0  0.9348108172416687  0.75889652967453  0.40159139037132263  1.0000
  Ge  Ge1       1.0  0.06708575040102005  0.9056813716888428  0.9735125303268433  1.0000
  Hf  Hf1       1.0  0.8359366059303284  0.6598385572433472  0.6804297566413879  1.0000
  La  La1       1.0  0.12029377371072769  0.5138912796974182  0.161312997341156  1.0000
  Na  Na1       1.0  0.672075629234314  0.9485905766487122  0.16108304262161255  1.0000
  Na  Na2       1.0  0.24221554398536682  0.10389847308397293  0.6231056451797485  1.0000
  Te  Te1       1.0  0.4661386013031006  0.7403185963630676  0.5384215116500853  1.0000
  Te  Te2       1.0  0.5907192230224609  0.4074404835700989  0.9797287583351135  1.0000
