data_image0
_chemical_formula_structural       CClGe2Na3Te2
_chemical_formula_sum              "C1 Cl1 Ge2 Na3 Te2"
_cell_length_a       6.438851525826329
_cell_length_b       6.4384603533063505
_cell_length_c       6.472340106964111
_cell_angle_alpha    99.33153557547861
_cell_angle_beta     98.81998138625345
_cell_angle_gamma    98.73903821586134

_space_group_name_H-M_alt    "P 1"
_space_group_IT_number       1

loop_
  _space_group_symop_operation_xyz
  'x, y, z'

loop_
  _atom_site_type_symbol
  _atom_site_label
  _atom_site_symmetry_multiplicity
  _atom_site_fract_x
  _atom_site_fract_y
  _atom_site_fract_z
  _atom_site_occupancy
  C   C1        1.0  0.533324658870697  0.3320785462856293  0.4682707190513611  1.0000
  Cl  Cl1       1.0  0.600841224193573  0.7775372862815857  0.034161493182182326  1.0000
  Ge  Ge1       1.0  0.7071313858032227  0.6133587956428528  0.4662816524505616  1.0000
  Ge  Ge2       1.0  0.5011153221130371  0.34251654148101807  0.19003401696681976  1.0000
  Na  Na1       1.0  0.0973016619682312  0.7823295593261719  0.016891134902834892  1.0000
  Na  Na2       1.0  0.6003811359405518  0.08396103233098984  0.736365795135498  1.0000
  Na  Na3       1.0  0.09678463637828827  0.2792198061943054  0.47319838404655457  1.0000
  Te  Te1       1.0  0.11754797399044037  0.7747527956962585  0.5086334943771362  1.0000
  Te  Te2       1.0  0.08415719121694565  0.27813318371772766  0.9634283185005187  1.0000
