data_image0
_chemical_formula_structural       Al3Na2Te4
_chemical_formula_sum              "Al3 Na2 Te4"
_cell_length_a       6.618334851668328
_cell_length_b       6.598432447214453
_cell_length_c       7.763377666473389
_cell_angle_alpha    115.25356939680691
_cell_angle_beta     115.47775097876848
_cell_angle_gamma    90.07703988022823

_space_group_name_H-M_alt    "P 1"
_space_group_IT_number       1

loop_
  _space_group_symop_operation_xyz
  'x, y, z'

loop_
  _atom_site_type_symbol
  _atom_site_label
  _atom_site_symmetry_multiplicity
  _atom_site_fract_x
  _atom_site_fract_y
  _atom_site_fract_z
  _atom_site_occupancy
  Al  Al1       1.0  0.709219753742218  0.8680616617202759  0.02358020283281803  1.0000
  Al  Al2       1.0  0.4604650139808655  0.10897655040025711  0.5245869755744934  1.0000
  Al  Al3       1.0  0.9615083932876587  0.6061609983444214  0.5249781012535095  1.0000
  Na  Na1       1.0  0.20199072360992432  0.36724749207496643  0.026142733171582222  1.0000
  Na  Na2       1.0  0.20907661318778992  0.8660430908203125  0.026668116450309753  1.0000
  Te  Te1       1.0  0.7984312772750854  0.951254665851593  0.7533323168754578  1.0000
  Te  Te2       1.0  0.07836873829364777  0.7680840492248535  0.3005816340446472  1.0000
  Te  Te3       1.0  0.6192485094070435  0.23492971062660217  0.2989346981048584  1.0000
  Te  Te4       1.0  0.3643520176410675  0.49026742577552795  0.7493733763694763  1.0000
