data_image0
_chemical_formula_structural       Al3NaTe5
_chemical_formula_sum              "Al3 Na1 Te5"
_cell_length_a       7.170438368232717
_cell_length_b       7.148798250003623
_cell_length_c       7.481526851654053
_cell_angle_alpha    118.65245350229142
_cell_angle_beta     118.7127849914387
_cell_angle_gamma    89.96655026255331

_space_group_name_H-M_alt    "P 1"
_space_group_IT_number       1

loop_
  _space_group_symop_operation_xyz
  'x, y, z'

loop_
  _atom_site_type_symbol
  _atom_site_label
  _atom_site_symmetry_multiplicity
  _atom_site_fract_x
  _atom_site_fract_y
  _atom_site_fract_z
  _atom_site_occupancy
  Al  Al1       1.0  0.7291684150695801  0.6147311329841614  0.26159200072288524  1.0000
  Al  Al2       1.0  0.24343514442443848  0.6737361550331116  0.7616093754768372  1.0000
  Al  Al3       1.0  0.22782905399799347  0.11071331799030304  0.2650699615478516  1.0000
  Na  Na1       1.0  0.7306221723556519  0.11573909223079681  0.7645999193191529  1.0000
  Te  Te1       1.0  0.7067833542823792  0.6431403160095215  0.8375165462493896  1.0000
  Te  Te2       1.0  0.02117880992591381  0.38472244143486023  0.33072251081466675  1.0000
  Te  Te3       1.0  0.5017223358154297  0.281622976064682  0.20822685956954962  1.0000
  Te  Te4       1.0  0.12186191231012344  0.9790612459182739  0.6202245354652405  1.0000
  Te  Te5       1.0  0.3663456439971924  0.7708497643470764  0.20313720405101782  1.0000
