data_image0
_chemical_formula_structural       HHo4IZr3
_chemical_formula_sum              "H1 Ho4 I1 Zr3"
_cell_length_a       5.707721470984753
_cell_length_b       6.007011031908102
_cell_length_c       7.675542831420898
_cell_angle_alpha    87.5482582621476
_cell_angle_beta     79.73026645047008
_cell_angle_gamma    70.6621024731094

_space_group_name_H-M_alt    "P 1"
_space_group_IT_number       1

loop_
  _space_group_symop_operation_xyz
  'x, y, z'

loop_
  _atom_site_type_symbol
  _atom_site_label
  _atom_site_symmetry_multiplicity
  _atom_site_fract_x
  _atom_site_fract_y
  _atom_site_fract_z
  _atom_site_occupancy
  H   H1        1.0  0.14326058328151703  0.48029839992523193  0.6819254159927368  1.0000
  Ho  Ho1       1.0  0.13013723492622375  0.8102489709854126  0.6527514457702637  1.0000
  Ho  Ho2       1.0  0.1375269740819931  0.94108647108078  0.18257589638233185  1.0000
  Ho  Ho3       1.0  0.6513540148735046  0.9777197241783141  0.4625388085842132  1.0000
  Ho  Ho4       1.0  0.6296226978302002  0.5834680795669556  0.6404328346252441  1.0000
  I   I1        1.0  0.12471605837345123  0.6500295400619507  0.7021213173866272  1.0000
  Zr  Zr1       1.0  0.6415150165557861  0.03634573891758919  0.28294023871421814  1.0000
  Zr  Zr2       1.0  0.6425091028213501  0.8958820104598999  0.9546467065811156  1.0000
  Zr  Zr3       1.0  0.14374761283397675  0.0077288071624934665  0.1583632379770279  1.0000
