data_image0
_chemical_formula_structural       HHo2Pb2Zr4
_chemical_formula_sum              "H1 Ho2 Pb2 Zr4"
_cell_length_a       6.195178488763455
_cell_length_b       6.1731508282222975
_cell_length_c       9.390786170959473
_cell_angle_alpha    80.58372885782883
_cell_angle_beta     70.4788866988365
_cell_angle_gamma    59.52323683291676

_space_group_name_H-M_alt    "P 1"
_space_group_IT_number       1

loop_
  _space_group_symop_operation_xyz
  'x, y, z'

loop_
  _atom_site_type_symbol
  _atom_site_label
  _atom_site_symmetry_multiplicity
  _atom_site_fract_x
  _atom_site_fract_y
  _atom_site_fract_z
  _atom_site_occupancy
  H   H1        1.0  0.20759317278862  0.31380265951156616  0.7868677377700806  1.0000
  Ho  Ho1       1.0  0.20292916893959045  0.3911634087562561  0.2719428539276123  1.0000
  Ho  Ho2       1.0  0.2176314741373062  0.8570146560668945  0.555692732334137  1.0000
  Pb  Pb1       1.0  0.6988505721092224  0.26184871792793274  0.4263417422771454  1.0000
  Pb  Pb2       1.0  0.4473725259304047  0.9924141168594359  0.3592057526111603  1.0000
  Zr  Zr1       1.0  0.43336883187294006  0.14487071335315704  0.7431309819221497  1.0000
  Zr  Zr2       1.0  0.7161366939544678  0.8901861906051636  0.4047790467739105  1.0000
  Zr  Zr3       1.0  0.7298479676246643  0.19507881999015808  0.8727704286575317  1.0000
  Zr  Zr4       1.0  0.8728665709495544  0.08760637789964676  0.021346172317862535  1.0000
