data_image0
_chemical_formula_structural       H2Ho4Pb2Tb
_chemical_formula_sum              "H2 Ho4 Pb2 Tb1"
_cell_length_a       5.972952429792415
_cell_length_b       5.923152276986877
_cell_length_c       9.026159286499023
_cell_angle_alpha    113.40655359378553
_cell_angle_beta     89.99161791855852
_cell_angle_gamma    90.9243439762738

_space_group_name_H-M_alt    "P 1"
_space_group_IT_number       1

loop_
  _space_group_symop_operation_xyz
  'x, y, z'

loop_
  _atom_site_type_symbol
  _atom_site_label
  _atom_site_symmetry_multiplicity
  _atom_site_fract_x
  _atom_site_fract_y
  _atom_site_fract_z
  _atom_site_occupancy
  H   H1        1.0  0.624477744102478  0.30661478638648987  0.00042224113713017984  1.0000
  H   H2        1.0  0.11333993077278137  0.8036482930183411  0.2354535013437271  1.0000
  Ho  Ho1       1.0  0.6196524500846863  0.8826941847801208  0.41656687855720526  1.0000
  Ho  Ho2       1.0  0.12033707648515701  0.9137138724327087  0.09114238619804382  1.0000
  Ho  Ho3       1.0  0.11755354702472687  0.6775599718093872  0.3502276837825775  1.0000
  Ho  Ho4       1.0  0.11969202756881714  0.02235584147274494  0.9663856029510498  1.0000
  Pb  Pb1       1.0  0.1181887537240982  0.5194474458694458  0.8235120177268982  1.0000
  Pb  Pb2       1.0  0.6201058626174927  0.026785099878907204  0.055222779512405396  1.0000
  Tb  Tb1       1.0  0.6199442148208618  0.5744159817695618  0.388972669839859  1.0000
