data_image0
_chemical_formula_structural       H2Ho6Pb
_chemical_formula_sum              "H2 Ho6 Pb1"
_cell_length_a       5.592598959986426
_cell_length_b       5.815797625906523
_cell_length_c       8.6898193359375
_cell_angle_alpha    78.60717897392652
_cell_angle_beta     77.56698321682713
_cell_angle_gamma    70.36261760858274

_space_group_name_H-M_alt    "P 1"
_space_group_IT_number       1

loop_
  _space_group_symop_operation_xyz
  'x, y, z'

loop_
  _atom_site_type_symbol
  _atom_site_label
  _atom_site_symmetry_multiplicity
  _atom_site_fract_x
  _atom_site_fract_y
  _atom_site_fract_z
  _atom_site_occupancy
  H   H1        1.0  0.6193613409996033  0.43466126918792725  0.021557124331593513  1.0000
  H   H2        1.0  0.6167306303977966  0.23887550830841064  0.960913360118866  1.0000
  Ho  Ho1       1.0  0.6162653565406799  0.6558749675750732  0.2414233237504959  1.0000
  Ho  Ho2       1.0  0.11710173636674881  0.5789274573326111  0.8449540734291076  1.0000
  Ho  Ho3       1.0  0.11824145168066025  0.033785175532102585  0.08297516405582428  1.0000
  Ho  Ho4       1.0  0.6162972450256348  0.5875623822212219  0.09090836346149445  1.0000
  Ho  Ho5       1.0  0.6164829134941101  0.6984115242958069  0.2011638879776001  1.0000
  Ho  Ho6       1.0  0.11566215008497238  0.8282998204231262  0.3148803114891052  1.0000
  Pb  Pb1       1.0  0.11571846902370453  0.8684929013252258  0.11726003885269165  1.0000
