data_image0
_chemical_formula_structural       Ho4O2PbZr2
_chemical_formula_sum              "Ho4 O2 Pb1 Zr2"
_cell_length_a       4.142833736783577
_cell_length_b       5.637260095174699
_cell_length_c       6.771441459655762
_cell_angle_alpha    118.78570955283116
_cell_angle_beta     89.73624411572419
_cell_angle_gamma    91.04263011806691

_space_group_name_H-M_alt    "P 1"
_space_group_IT_number       1

loop_
  _space_group_symop_operation_xyz
  'x, y, z'

loop_
  _atom_site_type_symbol
  _atom_site_label
  _atom_site_symmetry_multiplicity
  _atom_site_fract_x
  _atom_site_fract_y
  _atom_site_fract_z
  _atom_site_occupancy
  Ho  Ho1       1.0  0.5275824666023254  0.48688817024230957  0.11777157336473462  1.0000
  Ho  Ho2       1.0  0.028272395953536034  0.8019578456878662  0.28381094336509705  1.0000
  Ho  Ho3       1.0  0.5283684730529785  0.03353988006711006  0.16557016968727112  1.0000
  Ho  Ho4       1.0  0.02672196552157402  0.5822699666023254  0.17722737789154053  1.0000
  O   O1        1.0  0.020964058116078377  0.6234890222549438  0.7059083580970764  1.0000
  O   O2        1.0  0.026046108454465866  0.3942650854587555  0.652478814125061  1.0000
  Pb  Pb1       1.0  0.02875230461359024  0.6978476643562317  0.6719205975532532  1.0000
  Zr  Zr1       1.0  0.528564989566803  0.5004852414131165  0.6920320391654968  1.0000
  Zr  Zr2       1.0  0.5294961929321289  0.9021105766296387  0.24957574903964996  1.0000
