data_image0
_chemical_formula_structural       Ba5F3O4P3
_chemical_formula_sum              "Ba5 F3 O4 P3"
_cell_length_a       6.333540856142989
_cell_length_b       7.269270359691841
_cell_length_c       8.134725570678711
_cell_angle_alpha    119.25711240919318
_cell_angle_beta     101.38038031776145
_cell_angle_gamma    89.75880111593506

_space_group_name_H-M_alt    "P 1"
_space_group_IT_number       1

loop_
  _space_group_symop_operation_xyz
  'x, y, z'

loop_
  _atom_site_type_symbol
  _atom_site_label
  _atom_site_symmetry_multiplicity
  _atom_site_fract_x
  _atom_site_fract_y
  _atom_site_fract_z
  _atom_site_occupancy
  Ba  Ba1       1.0  0.13603051006793976  0.078898124396801  0.5534113049507141  1.0000
  Ba  Ba2       1.0  0.16908130049705505  0.4845448136329651  0.6791718602180481  1.0000
  Ba  Ba3       1.0  0.6035701632499695  0.7944018840789795  0.05620691180229187  1.0000
  Ba  Ba4       1.0  0.6212623119354248  0.2328706532716751  0.8818496465682983  1.0000
  Ba  Ba5       1.0  0.6368225812911987  0.6960574388504028  0.6269866824150085  1.0000
  F   F1        1.0  0.9107878804206848  0.2056448757648468  0.7205672264099121  1.0000
  F   F2        1.0  0.4233453869819641  0.29152923822402954  0.5216430425643921  1.0000
  F   F3        1.0  0.9086383581161499  0.6331885457038879  0.44395628571510315  1.0000
  O   O1        1.0  0.9227578043937683  0.7933734059333801  0.22721409797668457  1.0000
  O   O2        1.0  0.13094589114189148  0.2911417484283447  0.886009156703949  1.0000
  O   O3        1.0  0.19690027832984924  0.3345296382904053  0.9797801971435547  1.0000
  O   O4        1.0  0.6112354397773743  0.7030197381973267  0.5416173338890076  1.0000
  P   P1        1.0  0.42632192373275757  0.0721656009554863  0.6759473085403442  1.0000
  P   P2        1.0  0.917239785194397  0.437719464302063  0.5501846075057983  1.0000
  P   P3        1.0  0.5507711172103882  0.32683587074279785  0.030356545001268387  1.0000
