data_image0
_chemical_formula_structural       Ba6F3O3P3
_chemical_formula_sum              "Ba6 F3 O3 P3"
_cell_length_a       6.957309537456733
_cell_length_b       7.7186132988986795
_cell_length_c       8.073805809020996
_cell_angle_alpha    114.59664813052483
_cell_angle_beta     108.80624691752195
_cell_angle_gamma    89.3096609645435

_space_group_name_H-M_alt    "P 1"
_space_group_IT_number       1

loop_
  _space_group_symop_operation_xyz
  'x, y, z'

loop_
  _atom_site_type_symbol
  _atom_site_label
  _atom_site_symmetry_multiplicity
  _atom_site_fract_x
  _atom_site_fract_y
  _atom_site_fract_z
  _atom_site_occupancy
  Ba  Ba1       1.0  0.7112245559692383  0.28134334087371826  0.15132030844688416  1.0000
  Ba  Ba2       1.0  0.2430913746356964  0.23003631830215454  0.5857226848602295  1.0000
  Ba  Ba3       1.0  0.6955934166908264  0.27513018250465393  0.10100173950195312  1.0000
  Ba  Ba4       1.0  0.22747886180877686  0.7373228073120117  0.9782583713531494  1.0000
  Ba  Ba5       1.0  0.18572530150413513  0.6473392844200134  0.5256081819534302  1.0000
  Ba  Ba6       1.0  0.30728164315223694  0.716925859451294  0.7924929857254028  1.0000
  F   F1        1.0  0.634508490562439  0.5740216374397278  0.3064482808113098  1.0000
  F   F2        1.0  0.5289987325668335  0.5547987818717957  0.7764450907707214  1.0000
  F   F3        1.0  0.5150343775749207  0.5773159861564636  0.6507331728935242  1.0000
  O   O1        1.0  0.668876588344574  0.9267565608024597  0.5061301589012146  1.0000
  O   O2        1.0  0.05653386190533638  0.4515482485294342  0.18804977834224698  1.0000
  O   O3        1.0  0.11928956210613251  0.051103897392749786  0.7960875034332275  1.0000
  P   P1        1.0  0.12687277793884277  0.19323867559432983  0.3493749797344208  1.0000
  P   P2        1.0  0.5044215321540833  0.8427068591117859  0.9066369533538818  1.0000
  P   P3        1.0  0.8246721029281616  0.8008453249931335  0.6909192800521851  1.0000
