data_image0
_chemical_formula_structural       Ba5F4O3Pt2V
_chemical_formula_sum              "Ba5 F4 O3 Pt2 V1"
_cell_length_a       5.76186885879428
_cell_length_b       7.551957422264426
_cell_length_c       6.746803283691406
_cell_angle_alpha    130.3472877417011
_cell_angle_beta     92.08447134534332
_cell_angle_gamma    88.41125901248114

_space_group_name_H-M_alt    "P 1"
_space_group_IT_number       1

loop_
  _space_group_symop_operation_xyz
  'x, y, z'

loop_
  _atom_site_type_symbol
  _atom_site_label
  _atom_site_symmetry_multiplicity
  _atom_site_fract_x
  _atom_site_fract_y
  _atom_site_fract_z
  _atom_site_occupancy
  Ba  Ba1       1.0  0.04440673813223839  0.13815101981163025  0.8715177774429321  1.0000
  Ba  Ba2       1.0  0.5283277630805969  0.11282249540090562  0.9105254411697388  1.0000
  Ba  Ba3       1.0  0.05186213552951813  0.30320170521736145  0.9922080039978027  1.0000
  Ba  Ba4       1.0  0.5428657531738281  0.941884994506836  0.13366316258907332  1.0000
  Ba  Ba5       1.0  0.024997958913445473  0.6010493040084839  0.3087878525257111  1.0000
  F   F1        1.0  0.018416859209537506  0.21991568803787234  0.654934823513031  1.0000
  F   F2        1.0  0.5390632152557372  0.37593075633049017  0.4917467534542084  1.0000
  F   F3        1.0  0.5686680674552917  0.8077296018600465  0.22645582258701324  1.0000
  F   F4        1.0  0.041505906730890274  0.6365187168121338  0.10799260437488563  1.0000
  O   O1        1.0  0.5561525225639343  0.6301817297935486  0.07955823093652725  1.0000
  O   O2        1.0  0.5261684060096741  0.8610111474990846  0.12322269380092635  1.0000
  O   O3        1.0  0.057815492153167725  0.3633987307548523  0.15493689477443698  1.0000
  Pt  Pt1       1.0  0.5170778632164001  0.34016627073287964  0.8128369450569153  1.0000
  Pt  Pt2       1.0  0.05319996178150177  0.6033058166503906  0.994530200958252  1.0000
  V   V1        1.0  0.5581240653991699  0.23043873906135562  0.14245869219303134  1.0000
