data_image0
_chemical_formula_structural       Ba3F3LuO5P3
_chemical_formula_sum              "Ba3 F3 Lu1 O5 P3"
_cell_length_a       5.534662177881603
_cell_length_b       8.125677630722848
_cell_length_c       8.206297874450684
_cell_angle_alpha    116.28631457971291
_cell_angle_beta     93.27021872572153
_cell_angle_gamma    89.5707049419597

_space_group_name_H-M_alt    "P 1"
_space_group_IT_number       1

loop_
  _space_group_symop_operation_xyz
  'x, y, z'

loop_
  _atom_site_type_symbol
  _atom_site_label
  _atom_site_symmetry_multiplicity
  _atom_site_fract_x
  _atom_site_fract_y
  _atom_site_fract_z
  _atom_site_occupancy
  Ba  Ba1       1.0  0.904225766658783  0.8449005484580994  0.820036768913269  1.0000
  Ba  Ba2       1.0  0.7808074951171875  0.26429933309555054  0.6152331829071045  1.0000
  Ba  Ba3       1.0  0.41898488998413086  0.3028060495853424  0.6132788062095642  1.0000
  F   F1        1.0  0.42897284030914307  0.512029767036438  0.8637410402297974  1.0000
  F   F2        1.0  0.6691117882728577  0.6882534623146057  0.19986504316329956  1.0000
  F   F3        1.0  0.44564956426620483  0.9743982553482056  0.05808061733841896  1.0000
  Lu  Lu1       1.0  0.17480191588401794  0.05156171694397926  0.8738337159156799  1.0000
  O   O1        1.0  0.9494850635528564  0.6500687599182129  0.6094992160797119  1.0000
  O   O2        1.0  0.7831976413726807  0.7617272138595581  0.0626843199133873  1.0000
  O   O3        1.0  0.9184523224830627  0.691078782081604  0.026997163891792297  1.0000
  O   O4        1.0  0.4476116895675659  0.9760947227478027  0.6417507529258728  1.0000
  O   O5        1.0  0.2734348177909851  0.26242485642433167  0.4586845338344574  1.0000
  P   P1        1.0  0.9442693591117859  0.6815662384033203  0.0028234291821718216  1.0000
  P   P2        1.0  0.9337419867515564  0.29868900775909424  0.07606174796819687  1.0000
  P   P3        1.0  0.4410540461540222  0.2984408736228943  0.5288591980934143  1.0000
