data_image0
_chemical_formula_structural       Ba7F4O4
_chemical_formula_sum              "Ba7 F4 O4"
_cell_length_a       5.34802154638719
_cell_length_b       8.380910976954254
_cell_length_c       7.176538944244385
_cell_angle_alpha    125.04751878796742
_cell_angle_beta     90.30612439188762
_cell_angle_gamma    96.81178164307728

_space_group_name_H-M_alt    "P 1"
_space_group_IT_number       1

loop_
  _space_group_symop_operation_xyz
  'x, y, z'

loop_
  _atom_site_type_symbol
  _atom_site_label
  _atom_site_symmetry_multiplicity
  _atom_site_fract_x
  _atom_site_fract_y
  _atom_site_fract_z
  _atom_site_occupancy
  Ba  Ba1       1.0  0.5233182907104492  0.8321521878242492  0.9791622757911683  1.0000
  Ba  Ba2       1.0  0.9896301031112671  0.18171420693397522  0.7330681085586549  1.0000
  Ba  Ba3       1.0  0.9841443300247192  0.4493729174137115  0.18187855184078225  1.0000
  Ba  Ba4       1.0  0.5208540558815002  0.94895201921463  0.00025713443756103516  1.0000
  Ba  Ba5       1.0  0.014836865477263922  0.227244958281517  0.4383422434329987  1.0000
  Ba  Ba6       1.0  0.01737118326127529  0.34688520431518555  0.19157749414443967  1.0000
  Ba  Ba7       1.0  0.5045685172080994  0.8164816498756408  0.8020176887512208  1.0000
  F   F1        1.0  0.5240036249160767  0.3205331563949585  0.01637129299342629  1.0000
  F   F2        1.0  0.5196760892868042  0.1423637568950653  0.8782781958580018  1.0000
  F   F3        1.0  0.9939513206481934  0.11257178336381911  0.7158392667770387  1.0000
  F   F4        1.0  0.5218052864074707  0.9700470566749572  0.2968244254589081  1.0000
  O   O1        1.0  0.4503295421600342  0.1755916178226471  0.6857034564018248  1.0000
  O   O2        1.0  0.49787431955337524  0.40133500099182123  0.9633634090423585  1.0000
  O   O3        1.0  0.042312853038311005  0.6870176792144775  0.3409507274627685  1.0000
  O   O4        1.0  0.024112505838274935  0.8274667263031005  0.8871219754219056  1.0000
