data_image0
_chemical_formula_structural       Ba4F3O4P3V
_chemical_formula_sum              "Ba4 F3 O4 P3 V1"
_cell_length_a       6.862512012762758
_cell_length_b       8.597472961914407
_cell_length_c       8.930131912231445
_cell_angle_alpha    117.98543656828707
_cell_angle_beta     90.96797596318093
_cell_angle_gamma    89.28078338566215

_space_group_name_H-M_alt    "P 1"
_space_group_IT_number       1

loop_
  _space_group_symop_operation_xyz
  'x, y, z'

loop_
  _atom_site_type_symbol
  _atom_site_label
  _atom_site_symmetry_multiplicity
  _atom_site_fract_x
  _atom_site_fract_y
  _atom_site_fract_z
  _atom_site_occupancy
  Ba  Ba1       1.0  0.7222718596458435  0.11748676002025604  0.18739646673202515  1.0000
  Ba  Ba2       1.0  0.33035919070243835  0.3692551851272583  0.7948014140129089  1.0000
  Ba  Ba3       1.0  0.3401808440685272  0.2709026336669922  0.3652169108390808  1.0000
  Ba  Ba4       1.0  0.8505780100822449  0.7856711149215698  0.1140512153506279  1.0000
  F   F1        1.0  0.3352935314178467  0.12293741852045059  0.6924000978469849  1.0000
  F   F2        1.0  0.561752438545227  0.3598150610923767  0.07650523632764819  1.0000
  F   F3        1.0  0.0667148008942604  0.857184886932373  0.6938551664352417  1.0000
  O   O1        1.0  0.07067608833312988  0.12094582617282867  0.18444301187992096  1.0000
  O   O2        1.0  0.33169013261795044  0.6318408250808716  0.21049156785011292  1.0000
  O   O3        1.0  0.8546961545944214  0.8761162161827087  0.9213734865188599  1.0000
  O   O4        1.0  0.8578845262527466  0.8769044876098633  0.9239054918289185  1.0000
  P   P1        1.0  0.8119154572486877  0.1358667016029358  0.8129584193229675  1.0000
  P   P2        1.0  0.31672224402427673  0.5388957858085632  0.5371654629707336  1.0000
  P   P3        1.0  0.32507389783859253  0.5527160167694092  0.28461405634880066  1.0000
  V   V1        1.0  0.8372488617897034  0.37897759675979614  0.5999184846878052  1.0000
