data_image0
_chemical_formula_structural       As2Eu2Ga2Se5
_chemical_formula_sum              "As2 Eu2 Ga2 Se5"
_cell_length_a       5.567273680454419
_cell_length_b       6.872150888772692
_cell_length_c       8.924198150634766
_cell_angle_alpha    92.21037526961388
_cell_angle_beta     90.98152712501204
_cell_angle_gamma    108.24567628805283

_space_group_name_H-M_alt    "P 1"
_space_group_IT_number       1

loop_
  _space_group_symop_operation_xyz
  'x, y, z'

loop_
  _atom_site_type_symbol
  _atom_site_label
  _atom_site_symmetry_multiplicity
  _atom_site_fract_x
  _atom_site_fract_y
  _atom_site_fract_z
  _atom_site_occupancy
  As  As1       1.0  0.012694121338427067  0.7025264501571655  0.6196566820144653  1.0000
  As  As2       1.0  0.2097938507795334  0.27994289994239807  0.32340797781944275  1.0000
  Eu  Eu1       1.0  0.9724895358085631  0.9081679582595825  0.948820948600769  1.0000
  Eu  Eu2       1.0  0.7868520617485046  0.224532812833786  0.6091635823249817  1.0000
  Ga  Ga1       1.0  0.9236987829208374  0.40755945444107056  0.3253980875015259  1.0000
  Ga  Ga2       1.0  0.640480637550354  0.8804987668991089  0.7930337190628052  1.0000
  Se  Se1       1.0  0.2999180853366852  0.9118378162384033  0.6670159101486206  1.0000
  Se  Se2       1.0  0.43957772850990295  0.40115153789520264  0.020062386989593506  1.0000
  Se  Se3       1.0  0.6400355696678162  0.7493021488189697  0.03157234564423561  1.0000
  Se  Se4       1.0  0.2820603847503662  0.9338091015815735  0.745478093624115  1.0000
  Se  Se5       1.0  0.7728468775749207  0.24168775975704193  0.8084231615066528  1.0000
