data_image0
_chemical_formula_structural       Eu4Ga3Se4
_chemical_formula_sum              "Eu4 Ga3 Se4"
_cell_length_a       5.26157837528091
_cell_length_b       7.906047545482883
_cell_length_c       8.769384384155273
_cell_angle_alpha    105.21964719165602
_cell_angle_beta     91.05558886089854
_cell_angle_gamma    89.82231153320001

_space_group_name_H-M_alt    "P 1"
_space_group_IT_number       1

loop_
  _space_group_symop_operation_xyz
  'x, y, z'

loop_
  _atom_site_type_symbol
  _atom_site_label
  _atom_site_symmetry_multiplicity
  _atom_site_fract_x
  _atom_site_fract_y
  _atom_site_fract_z
  _atom_site_occupancy
  Eu  Eu1       1.0  0.4093075394630433  0.40127539634704595  0.35352233052253723  1.0000
  Eu  Eu2       1.0  0.41180452704429626  0.28907123208045965  0.6673880815505981  1.0000
  Eu  Eu3       1.0  0.3932656943798065  0.6882069110870362  0.3197885751724243  1.0000
  Eu  Eu4       1.0  0.41239556670188904  0.24060295522212985  0.03604285791516304  1.0000
  Ga  Ga1       1.0  0.9117228388786316  0.9861598610877992  0.26547119021415716  1.0000
  Ga  Ga2       1.0  0.4016648828983307  0.023762417957186702  0.11946746706962585  1.0000
  Ga  Ga3       1.0  0.9069840312004089  0.46013292670249945  0.7615870833396912  1.0000
  Se  Se1       1.0  0.4175516963005066  0.7244963049888612  0.5563256144523621  1.0000
  Se  Se2       1.0  0.9115418195724487  0.6495673656463624  0.5088914632797241  1.0000
  Se  Se3       1.0  0.9037176966667175  0.8869543671607972  0.031000921502709413  1.0000
  Se  Se4       1.0  0.9004021883010864  0.5524651408195497  0.3751583397388458  1.0000
