data_image0
_chemical_formula_structural       As2Eu2Se7
_chemical_formula_sum              "As2 Eu2 Se7"
_cell_length_a       5.793608215173398
_cell_length_b       8.476275630478126
_cell_length_c       9.080769538879395
_cell_angle_alpha    119.63218329380483
_cell_angle_beta     89.09546881223244
_cell_angle_gamma    89.67294295610446

_space_group_name_H-M_alt    "P 1"
_space_group_IT_number       1

loop_
  _space_group_symop_operation_xyz
  'x, y, z'

loop_
  _atom_site_type_symbol
  _atom_site_label
  _atom_site_symmetry_multiplicity
  _atom_site_fract_x
  _atom_site_fract_y
  _atom_site_fract_z
  _atom_site_occupancy
  As  As1       1.0  0.6784905195236206  0.3830561935901642  0.30803194642066956  1.0000
  As  As2       1.0  0.18542702496051788  0.9797850847244263  0.629559338092804  1.0000
  Eu  Eu1       1.0  0.6798582673072815  0.9107115268707275  0.5509250164031982  1.0000
  Eu  Eu2       1.0  0.15859770774841309  0.6493985056877136  0.1742243766784668  1.0000
  Se  Se1       1.0  0.18408095836639404  0.15689831972122192  0.7978794574737549  1.0000
  Se  Se2       1.0  0.6875866055488586  0.8110527396202087  0.7629537582397461  1.0000
  Se  Se3       1.0  0.6649443507194519  0.3416118323802948  0.0686157941818237  1.0000
  Se  Se4       1.0  0.16789627075195312  0.6281114816665649  0.37088266015052795  1.0000
  Se  Se5       1.0  0.6854106783866882  0.16109219193458557  0.8144313097000122  1.0000
  Se  Se6       1.0  0.6842248439788818  0.12246881425380707  0.05301099643111229  1.0000
  Se  Se7       1.0  0.6798481345176697  0.6466591358184814  0.5195127129554749  1.0000
