data_image0
_chemical_formula_structural       Eu3Ga3Se5
_chemical_formula_sum              "Eu3 Ga3 Se5"
_cell_length_a       6.148165511322027
_cell_length_b       6.915717420371468
_cell_length_c       10.391044616699219
_cell_angle_alpha    89.43369634505082
_cell_angle_beta     90.34636717721904
_cell_angle_gamma    110.18731992911684

_space_group_name_H-M_alt    "P 1"
_space_group_IT_number       1

loop_
  _space_group_symop_operation_xyz
  'x, y, z'

loop_
  _atom_site_type_symbol
  _atom_site_label
  _atom_site_symmetry_multiplicity
  _atom_site_fract_x
  _atom_site_fract_y
  _atom_site_fract_z
  _atom_site_occupancy
  Eu  Eu1       1.0  0.10006368905305855  0.8405812978744506  0.24762579798698425  1.0000
  Eu  Eu2       1.0  0.36462354660034185  0.3476099073886871  0.007101970724761486  1.0000
  Eu  Eu3       1.0  0.622807502746582  0.19606162607669828  0.5068066716194153  1.0000
  Ga  Ga1       1.0  0.9849698543548585  0.9953873753547667  0.36779719591140747  1.0000
  Ga  Ga2       1.0  0.2778244614601135  0.49967521429061884  0.999009370803833  1.0000
  Ga  Ga3       1.0  0.9618999958038331  0.33445572853088373  0.7861426472663882  1.0000
  Se  Se1       1.0  0.6829895973205568  0.0914470851421356  0.6469316482543946  1.0000
  Se  Se2       1.0  0.08185943961143487  0.8488258719444274  0.020786358043551445  1.0000
  Se  Se3       1.0  0.6331652402877808  0.7399728298187255  0.5129990577697754  1.0000
  Se  Se4       1.0  0.8291332721710206  0.8516432046890258  0.14939914643764496  1.0000
  Se  Se5       1.0  0.6904840469360353  0.5021384358406067  0.6258000731468201  1.0000
