data_image0
_chemical_formula_structural       AsEu3GaSe6
_chemical_formula_sum              "As1 Eu3 Ga1 Se6"
_cell_length_a       6.090509722648632
_cell_length_b       8.332318035111253
_cell_length_c       8.230062484741211
_cell_angle_alpha    120.26856399871686
_cell_angle_beta     90.66397585419294
_cell_angle_gamma    90.22149199419788

_space_group_name_H-M_alt    "P 1"
_space_group_IT_number       1

loop_
  _space_group_symop_operation_xyz
  'x, y, z'

loop_
  _atom_site_type_symbol
  _atom_site_label
  _atom_site_symmetry_multiplicity
  _atom_site_fract_x
  _atom_site_fract_y
  _atom_site_fract_z
  _atom_site_occupancy
  As  As1       1.0  0.7043956518173218  0.2034875601530075  0.9476499557495117  1.0000
  Eu  Eu1       1.0  0.21928980946540835  0.6614933609962463  0.4065886735916137  1.0000
  Eu  Eu2       1.0  0.55958092212677  0.018077809363603592  0.4797714948654175  1.0000
  Eu  Eu3       1.0  0.9938703775405885  0.880136251449585  0.4668220281600952  1.0000
  Ga  Ga1       1.0  0.7187134027481079  0.4016331136226654  0.6202213168144226  1.0000
  Se  Se1       1.0  0.4852691292762757  0.2273196429014206  0.5943539142608643  1.0000
  Se  Se2       1.0  0.1847008913755417  0.26815691590309143  0.764436960220337  1.0000
  Se  Se3       1.0  0.9700624346733094  0.9848978519439697  0.20630930364131939  1.0000
  Se  Se4       1.0  0.959574580192566  0.6756112575531006  0.41068118810653687  1.0000
  Se  Se5       1.0  0.00034906610380858183  0.0018606660887598991  0.707718014717102  1.0000
  Se  Se6       1.0  0.5210045576095581  0.5485572814941406  0.6895750761032104  1.0000
