data_image0
_chemical_formula_structural       ClEu4Ga3Se3
_chemical_formula_sum              "Cl1 Eu4 Ga3 Se3"
_cell_length_a       5.4296567757359835
_cell_length_b       7.508931534047044
_cell_length_c       9.668211936950684
_cell_angle_alpha    89.74864876600739
_cell_angle_beta     89.34786210542555
_cell_angle_gamma    102.98383199152953

_space_group_name_H-M_alt    "P 1"
_space_group_IT_number       1

loop_
  _space_group_symop_operation_xyz
  'x, y, z'

loop_
  _atom_site_type_symbol
  _atom_site_label
  _atom_site_symmetry_multiplicity
  _atom_site_fract_x
  _atom_site_fract_y
  _atom_site_fract_z
  _atom_site_occupancy
  Cl  Cl1       1.0  0.5619415640830994  0.918762445449829  0.8244198560714722  1.0000
  Eu  Eu1       1.0  0.6025384068489075  0.8953954577445983  0.7147728800773621  1.0000
  Eu  Eu2       1.0  0.31504005193710327  0.40480035543441767  0.5697751045227051  1.0000
  Eu  Eu3       1.0  0.8827779293060303  0.5816628336906433  0.7157045006752014  1.0000
  Eu  Eu4       1.0  0.8315535187721252  0.39197748899459833  0.20349885523319242  1.0000
  Ga  Ga1       1.0  0.6858329176902771  0.7693781256675719  0.07169538736343384  1.0000
  Ga  Ga2       1.0  0.38710057735443115  0.580025851726532  0.21602074801921844  1.0000
  Ga  Ga3       1.0  0.10459578037261962  0.40725195407867426  0.8559360504150391  1.0000
  Se  Se1       1.0  0.07679429650306702  0.05818936973810195  0.6004414558410645  1.0000
  Se  Se2       1.0  0.16102863848209378  0.7590532302856444  0.24017582833766937  1.0000
  Se  Se3       1.0  0.5552438497543335  0.07379783689975739  0.7242483496665955  1.0000
