data_image0
_chemical_formula_structural       AsEr2FGaO2TbVZr
_chemical_formula_sum              "As1 Er2 F1 Ga1 O2 Tb1 V1 Zr1"
_cell_length_a       5.935148989734863
_cell_length_b       4.434006308555689
_cell_length_c       5.7166924476623535
_cell_angle_alpha    41.15689623220671
_cell_angle_beta     61.59182059625716
_cell_angle_gamma    43.702224407832205

_space_group_name_H-M_alt    "P 1"
_space_group_IT_number       1

loop_
  _space_group_symop_operation_xyz
  'x, y, z'

loop_
  _atom_site_type_symbol
  _atom_site_label
  _atom_site_symmetry_multiplicity
  _atom_site_fract_x
  _atom_site_fract_y
  _atom_site_fract_z
  _atom_site_occupancy
  As  As1       1.0  0.34054401516914373  0.06632824987173074  0.9275994300842285  1.0000
  Er  Er1       1.0  0.05937007069587712  0.05944216996431337  0.8422560691833496  1.0000
  Er  Er2       1.0  0.4611015021800996  0.266818672418594  0.8473892807960511  1.0000
  F   F1        1.0  0.46602007746696483  0.09075333178043345  0.8894354104995729  1.0000
  Ga  Ga1       1.0  0.8636212348937988  0.1701234281063081  0.3745450675487518  1.0000
  O   O1        1.0  0.07649619132280348  0.4914689660072327  0.5298044681549071  1.0000
  O   O2        1.0  0.17643895745277405  0.9049969911575317  0.032201137393712984  1.0000
  Tb  Tb1       1.0  0.7724028825759888  0.16911900043487532  0.6397830247879029  1.0000
  V   V1        1.0  0.03748849779367443  0.7764593362808229  0.0364769995212555  1.0000
  Zr  Zr1       1.0  0.36163425445556635  0.8576737046241762  0.8218095898628234  1.0000
