data_image0
_chemical_formula_structural       Er2O8
_chemical_formula_sum              "Er2 O8"
_cell_length_a       4.767617808175239
_cell_length_b       4.704212176211851
_cell_length_c       7.618518352508545
_cell_angle_alpha    77.76898753813497
_cell_angle_beta     71.1930279380706
_cell_angle_gamma    66.54352584127217

_space_group_name_H-M_alt    "P 1"
_space_group_IT_number       1

loop_
  _space_group_symop_operation_xyz
  'x, y, z'

loop_
  _atom_site_type_symbol
  _atom_site_label
  _atom_site_symmetry_multiplicity
  _atom_site_fract_x
  _atom_site_fract_y
  _atom_site_fract_z
  _atom_site_occupancy
  Er  Er1       1.0  0.3328757584095001  0.45459070801734924  0.822670042514801  1.0000
  Er  Er2       1.0  0.2903081774711609  0.7363808155059814  0.23497804999351501  1.0000
  O   O1        1.0  0.7762272953987122  0.6837895512580872  0.13703304529190063  1.0000
  O   O2        1.0  0.7871267795562744  0.39303651452064514  0.4268702566623688  1.0000
  O   O3        1.0  0.28884920477867126  0.8658850789070129  0.5732347965240479  1.0000
  O   O4        1.0  0.29255643486976624  0.5887919068336487  0.05942530184984207  1.0000
  O   O5        1.0  0.7647507786750793  0.46511343121528625  0.13019292056560514  1.0000
  O   O6        1.0  0.7720823287963867  0.8964676260948181  0.3287773132324219  1.0000
  O   O7        1.0  0.275926411151886  0.12405991554260254  0.7773366570472717  1.0000
  O   O8        1.0  0.27788105607032776  0.7829985022544861  0.014862830750644207  1.0000
