data_image0
_chemical_formula_structural       ErFLaO6Ta
_chemical_formula_sum              "Er1 F1 La1 O6 Ta1"
_cell_length_a       4.613746249687989
_cell_length_b       4.083533098208688
_cell_length_c       7.955041885375977
_cell_angle_alpha    84.63597927878692
_cell_angle_beta     83.73511802299336
_cell_angle_gamma    56.96850641621716

_space_group_name_H-M_alt    "P 1"
_space_group_IT_number       1

loop_
  _space_group_symop_operation_xyz
  'x, y, z'

loop_
  _atom_site_type_symbol
  _atom_site_label
  _atom_site_symmetry_multiplicity
  _atom_site_fract_x
  _atom_site_fract_y
  _atom_site_fract_z
  _atom_site_occupancy
  Er  Er1       1.0  0.727379560470581  0.5587218403816223  0.10562080144882202  1.0000
  F   F1        1.0  0.22130820155143738  0.18685036897659302  0.1502731889486313  1.0000
  La  La1       1.0  0.8197964429855347  0.8956477642059326  0.3883203864097595  1.0000
  O   O1        1.0  0.16276313364505768  0.5555158257484436  0.8196762800216675  1.0000
  O   O2        1.0  0.6807547211647034  0.07634370028972626  0.3448375165462494  1.0000
  O   O3        1.0  0.7147025465965271  0.3845665156841278  0.5494697690010071  1.0000
  O   O4        1.0  0.5038987994194031  0.5306267738342285  0.30381864309310913  1.0000
  O   O5        1.0  0.7381188273429871  0.6596719622612  0.012566360644996166  1.0000
  O   O6        1.0  0.23265762627124786  0.1847103089094162  0.4966552555561065  1.0000
  Ta  Ta1       1.0  0.2937263250350952  0.8452602624893188  0.5611792802810669  1.0000
