data_image0
_chemical_formula_structural       ErFGaO3RuSbZnZr
_chemical_formula_sum              "Er1 F1 Ga1 O3 Ru1 Sb1 Zn1 Zr1"
_cell_length_a       5.786788244090575
_cell_length_b       5.53676604296336
_cell_length_c       8.926820755004883
_cell_angle_alpha    90.02175602483021
_cell_angle_beta     89.93613247277099
_cell_angle_gamma    88.44956473022155

_space_group_name_H-M_alt    "P 1"
_space_group_IT_number       1

loop_
  _space_group_symop_operation_xyz
  'x, y, z'

loop_
  _atom_site_type_symbol
  _atom_site_label
  _atom_site_symmetry_multiplicity
  _atom_site_fract_x
  _atom_site_fract_y
  _atom_site_fract_z
  _atom_site_occupancy
  Er  Er1       1.0  0.6520456671714783  0.9291325807571411  0.8029989004135132  1.0000
  F   F1        1.0  0.6664884090423584  0.47393500804901123  0.7448411583900452  1.0000
  Ga  Ga1       1.0  0.6444660425186157  0.8909021019935608  0.4010241627693176  1.0000
  O   O1        1.0  0.3206692934036255  0.7846001386642456  0.6837879419326782  1.0000
  O   O2        1.0  0.6446777582168579  0.6124975085258484  0.23643575608730316  1.0000
  O   O3        1.0  0.6481159329414368  0.3470574915409088  0.8746755719184875  1.0000
  Ru  Ru1       1.0  0.1505647897720337  0.39624732732772827  0.22718386352062225  1.0000
  Sb  Sb1       1.0  0.6347709894180298  0.5676717758178711  0.6694906949996948  1.0000
  Zn  Zn1       1.0  0.13853316009044647  0.3312622606754303  0.39685922861099243  1.0000
  Zr  Zr1       1.0  0.15425531566143036  0.17147637903690338  0.48427581787109375  1.0000
