data_image0
_chemical_formula_structural       Si6Tb
_chemical_formula_sum              "Si6 Tb1"
_cell_length_a       3.988979071935588
_cell_length_b       6.8304909873814
_cell_length_c       7.901692867279053
_cell_angle_alpha    125.79169937904318
_cell_angle_beta     91.82190525005264
_cell_angle_gamma    86.85135854504509

_space_group_name_H-M_alt    "P 1"
_space_group_IT_number       1

loop_
  _space_group_symop_operation_xyz
  'x, y, z'

loop_
  _atom_site_type_symbol
  _atom_site_label
  _atom_site_symmetry_multiplicity
  _atom_site_fract_x
  _atom_site_fract_y
  _atom_site_fract_z
  _atom_site_occupancy
  Si  Si1       1.0  0.9719942212104796  0.5994129776954651  0.931242048740387  1.0000
  Si  Si2       1.0  0.46549889445304865  0.12910066545009613  0.2581157088279724  1.0000
  Si  Si3       1.0  0.465468943119049  0.5660618543624878  0.39653369784355164  1.0000
  Si  Si4       1.0  0.23954516649246213  0.7161789536476135  0.004762232769280756  1.0000
  Si  Si5       1.0  0.23006016016006467  0.34320640563964844  0.45871397852897644  1.0000
  Si  Si6       1.0  0.7250541448593139  0.34840649366378784  0.9408438205718994  1.0000
  Tb  Tb1       1.0  0.9672589302062987  0.07123426347970963  0.19898557662963867  1.0000
