data_image0
_chemical_formula_structural       SbSi6
_chemical_formula_sum              "Sb1 Si6"
_cell_length_a       4.177090524269216
_cell_length_b       4.309450446764892
_cell_length_c       6.8786115646362305
_cell_angle_alpha    113.86481301132496
_cell_angle_beta     103.58241738776617
_cell_angle_gamma    89.44768727142956

_space_group_name_H-M_alt    "P 1"
_space_group_IT_number       1

loop_
  _space_group_symop_operation_xyz
  'x, y, z'

loop_
  _atom_site_type_symbol
  _atom_site_label
  _atom_site_symmetry_multiplicity
  _atom_site_fract_x
  _atom_site_fract_y
  _atom_site_fract_z
  _atom_site_occupancy
  Sb  Sb1       1.0  0.7959433794021606  0.4869884252548218  0.20867663621902466  1.0000
  Si  Si1       1.0  0.35434117913246155  0.4772745370864868  0.4665354788303375  1.0000
  Si  Si2       1.0  0.0804242491722107  0.20402072370052338  0.21132661402225494  1.0000
  Si  Si3       1.0  0.5489113330841064  0.3186179995536804  0.09925323724746704  1.0000
  Si  Si4       1.0  0.06853262335062027  0.9592921137809753  0.5591659545898438  1.0000
  Si  Si5       1.0  0.5527191758155823  0.9253348708152771  0.8754158616065979  1.0000
  Si  Si6       1.0  0.06601931899785995  0.8530110716819763  0.12325084954500198  1.0000
