data_image0
_chemical_formula_structural       Co4INNa3
_chemical_formula_sum              "Co4 I1 N1 Na3"
_cell_length_a       4.825544417398546
_cell_length_b       4.694767610881398
_cell_length_c       11.452844619750977
_cell_angle_alpha    92.05826430542187
_cell_angle_beta     89.83865229559686
_cell_angle_gamma    122.65524993376312

_space_group_name_H-M_alt    "P 1"
_space_group_IT_number       1

loop_
  _space_group_symop_operation_xyz
  'x, y, z'

loop_
  _atom_site_type_symbol
  _atom_site_label
  _atom_site_symmetry_multiplicity
  _atom_site_fract_x
  _atom_site_fract_y
  _atom_site_fract_z
  _atom_site_occupancy
  Co  Co1       1.0  0.918595552444458  0.5967209339141846  0.8808357119560243  1.0000
  Co  Co2       1.0  0.9284985661506653  0.9650461673736571  0.24269221723079684  1.0000
  Co  Co3       1.0  0.8949460983276367  0.8236776590347289  0.1872396618127823  1.0000
  Co  Co4       1.0  0.4375193417072296  0.6283285021781921  0.5626367926597595  1.0000
  I   I1        1.0  0.4156639575958252  0.6107433438301086  0.28088143467903137  1.0000
  N   N1        1.0  0.9530133008956909  0.4563275277614593  0.479101836681366  1.0000
  Na  Na1       1.0  0.4328056573867798  0.7557119131088256  0.8610706329345704  1.0000
  Na  Na2       1.0  0.9339029788970947  0.4813606739044189  0.44562643766403204  1.0000
  Na  Na3       1.0  0.940101146697998  0.30308061838150024  0.008347831666469574  1.0000
