data_image0
_chemical_formula_structural       Co3Ge2HINaPb
_chemical_formula_sum              "Co3 Ge2 H1 I1 Na1 Pb1"
_cell_length_a       6.308716505015468
_cell_length_b       6.58667886720657
_cell_length_c       7.063632011413574
_cell_angle_alpha    58.28100225275407
_cell_angle_beta     63.84789777795892
_cell_angle_gamma    59.50180278243939

_space_group_name_H-M_alt    "P 1"
_space_group_IT_number       1

loop_
  _space_group_symop_operation_xyz
  'x, y, z'

loop_
  _atom_site_type_symbol
  _atom_site_label
  _atom_site_symmetry_multiplicity
  _atom_site_fract_x
  _atom_site_fract_y
  _atom_site_fract_z
  _atom_site_occupancy
  Co  Co1       1.0  0.49077326059341436  0.2854531705379486  0.4164605736732483  1.0000
  Co  Co2       1.0  0.8394901156425476  0.7177425622940063  0.33008167147636414  1.0000
  Co  Co3       1.0  0.6171163320541382  0.8847384452819823  0.9509339928627014  1.0000
  Ge  Ge1       1.0  0.5596819519996643  0.8389279842376709  0.029273081570863724  1.0000
  Ge  Ge2       1.0  0.358623743057251  0.30970391631126404  0.3051740229129791  1.0000
  H   H1        1.0  0.2107824683189392  0.6701512336730957  0.3446747064590454  1.0000
  I   I1        1.0  0.04249662533402443  0.8445903062820435  0.007241306826472282  1.0000
  Na  Na1       1.0  0.6814810633659363  0.2602279484272003  0.6907402873039246  1.0000
  Pb  Pb1       1.0  0.22079044580459595  0.6049839854240417  0.05932844802737236  1.0000
