data_image0
_chemical_formula_structural       Al6La2
_chemical_formula_sum              "Al6 La2"
_cell_length_a       5.173928786917894
_cell_length_b       6.793164304114497
_cell_length_c       6.535776615142822
_cell_angle_alpha    104.93921783841525
_cell_angle_beta     95.417541661628
_cell_angle_gamma    95.12755958308966

_space_group_name_H-M_alt    "P 1"
_space_group_IT_number       1

loop_
  _space_group_symop_operation_xyz
  'x, y, z'

loop_
  _atom_site_type_symbol
  _atom_site_label
  _atom_site_symmetry_multiplicity
  _atom_site_fract_x
  _atom_site_fract_y
  _atom_site_fract_z
  _atom_site_occupancy
  Al  Al1       1.0  0.8533160090446472  0.2224293053150177  0.6875457763671875  1.0000
  Al  Al2       1.0  0.8598105311393738  0.5492693781852722  0.3807792663574219  1.0000
  Al  Al3       1.0  0.3469305634498596  0.221144899725914  0.3971084952354431  1.0000
  Al  Al4       1.0  0.3598340153694153  0.7452085018157959  0.3573859632015228  1.0000
  Al  Al5       1.0  0.35713568329811096  0.8367366790771484  0.3997042775154114  1.0000
  Al  Al6       1.0  0.3519352674484253  0.37793731689453125  0.8882365822792053  1.0000
  La  La1       1.0  0.3839452266693115  0.03277232125401497  0.13796532154083252  1.0000
  La  La2       1.0  0.8633565902709961  0.9522116780281067  0.27795007824897766  1.0000
