data_image0
_chemical_formula_structural       Ge4I2Ni2P
_chemical_formula_sum              "Ge4 I2 Ni2 P1"
_cell_length_a       5.9632980657794725
_cell_length_b       6.531919327032088
_cell_length_c       7.2767767906188965
_cell_angle_alpha    64.08954105677168
_cell_angle_beta     65.10831194673054
_cell_angle_gamma    63.065078529710135

_space_group_name_H-M_alt    "P 1"
_space_group_IT_number       1

loop_
  _space_group_symop_operation_xyz
  'x, y, z'

loop_
  _atom_site_type_symbol
  _atom_site_label
  _atom_site_symmetry_multiplicity
  _atom_site_fract_x
  _atom_site_fract_y
  _atom_site_fract_z
  _atom_site_occupancy
  Ge  Ge1       1.0  0.6201366782188416  0.5153020620346069  0.5872756838798523  1.0000
  Ge  Ge2       1.0  0.6590907573699951  0.7423029541969299  0.016672739759087563  1.0000
  Ge  Ge3       1.0  0.4641641080379486  0.6128963828086853  0.6606748700141907  1.0000
  Ge  Ge4       1.0  0.6186922788619995  0.9794483184814453  0.584124743938446  1.0000
  I   I1        1.0  0.11604007333517075  0.9740108847618103  0.03597249835729599  1.0000
  I   I2        1.0  0.6336813569068909  0.3833075165748596  0.07296619564294815  1.0000
  Ni  Ni1       1.0  0.7554980516433716  0.4055352509021759  0.9009792804718018  1.0000
  Ni  Ni2       1.0  0.36870479583740234  0.9433839321136475  0.132240891456604  1.0000
  P   P1        1.0  0.15147382020950317  0.7043431997299194  0.12510572373867035  1.0000
