data_image0
_chemical_formula_structural       CaGe3I3Ni2
_chemical_formula_sum              "Ca1 Ge3 I3 Ni2"
_cell_length_a       5.349522790761099
_cell_length_b       6.032501904428922
_cell_length_c       9.95426082611084
_cell_angle_alpha    84.96017533056074
_cell_angle_beta     83.07433854538013
_cell_angle_gamma    83.30758569064861

_space_group_name_H-M_alt    "P 1"
_space_group_IT_number       1

loop_
  _space_group_symop_operation_xyz
  'x, y, z'

loop_
  _atom_site_type_symbol
  _atom_site_label
  _atom_site_symmetry_multiplicity
  _atom_site_fract_x
  _atom_site_fract_y
  _atom_site_fract_z
  _atom_site_occupancy
  Ca  Ca1       1.0  0.11584563553333282  0.9416452050209045  0.10338617116212845  1.0000
  Ge  Ge1       1.0  0.11016876250505447  0.7891265749931335  0.8631767630577087  1.0000
  Ge  Ge2       1.0  0.5981577634811401  0.15068799257278442  0.3362581133842468  1.0000
  Ge  Ge3       1.0  0.10294603556394577  0.13105067610740662  0.9441994428634644  1.0000
  I   I1        1.0  0.09364819526672363  0.6299214363098145  0.10665915161371231  1.0000
  I   I2        1.0  0.1106233298778534  0.25694540143013  0.27508544921875  1.0000
  I   I3        1.0  0.6018301844596863  0.10709768533706665  0.019245676696300507  1.0000
  Ni  Ni1       1.0  0.10063645988702774  0.2553686499595642  0.06573062390089035  1.0000
  Ni  Ni2       1.0  0.6233786940574646  0.8892315626144409  0.2143956422805786  1.0000
