data_image0
_chemical_formula_structural       Ca7Ni2
_chemical_formula_sum              "Ca7 Ni2"
_cell_length_a       5.683107249320958
_cell_length_b       5.503754659775157
_cell_length_c       6.117642402648926
_cell_angle_alpha    61.488330393452266
_cell_angle_beta     63.934718618402954
_cell_angle_gamma    59.410336706187

_space_group_name_H-M_alt    "P 1"
_space_group_IT_number       1

loop_
  _space_group_symop_operation_xyz
  'x, y, z'

loop_
  _atom_site_type_symbol
  _atom_site_label
  _atom_site_symmetry_multiplicity
  _atom_site_fract_x
  _atom_site_fract_y
  _atom_site_fract_z
  _atom_site_occupancy
  Ca  Ca1       1.0  0.18793684244155884  0.5976955890655518  0.8681148290634155  1.0000
  Ca  Ca2       1.0  0.675781786441803  0.5984556674957275  0.22428946197032928  1.0000
  Ca  Ca3       1.0  0.6774796843528748  0.09097640961408615  0.813982367515564  1.0000
  Ca  Ca4       1.0  0.9826599955558777  0.5051773190498352  0.07892327755689621  1.0000
  Ca  Ca5       1.0  0.6741227507591248  0.9985638856887817  0.8824090957641602  1.0000
  Ca  Ca6       1.0  0.6825151443481445  0.6592386960983276  0.2645814120769501  1.0000
  Ca  Ca7       1.0  0.20918412506580353  0.060563985258340836  0.04063911363482475  1.0000
  Ni  Ni1       1.0  0.20357459783554077  0.44972312450408936  0.14008013904094696  1.0000
  Ni  Ni2       1.0  0.6739211082458496  0.154136523604393  0.3876621723175049  1.0000
