data_image0
_chemical_formula_structural       CaGe4HI2Ni
_chemical_formula_sum              "Ca1 Ge4 H1 I2 Ni1"
_cell_length_a       5.23864309264472
_cell_length_b       5.374101962064682
_cell_length_c       8.4572172164917
_cell_angle_alpha    90.32852962018679
_cell_angle_beta     88.86281041558027
_cell_angle_gamma    106.00585728142077

_space_group_name_H-M_alt    "P 1"
_space_group_IT_number       1

loop_
  _space_group_symop_operation_xyz
  'x, y, z'

loop_
  _atom_site_type_symbol
  _atom_site_label
  _atom_site_symmetry_multiplicity
  _atom_site_fract_x
  _atom_site_fract_y
  _atom_site_fract_z
  _atom_site_occupancy
  Ca  Ca1       1.0  0.91443008184433  0.24809958040714264  0.2550317049026489  1.0000
  Ge  Ge1       1.0  0.46218749880790716  0.9418179392814636  0.9480902552604675  1.0000
  Ge  Ge2       1.0  0.9576066732406617  0.8075650930404663  0.923997163772583  1.0000
  Ge  Ge3       1.0  0.9152313470840455  0.25845852494239807  0.11551693826913834  1.0000
  Ge  Ge4       1.0  0.4215112030506134  0.8904162049293518  0.7235667109489441  1.0000
  H   H1        1.0  0.21254505217075348  0.9162429571151733  0.36103910207748413  1.0000
  I   I1        1.0  0.6001142263412476  0.5870096683502197  0.6641059517860413  1.0000
  I   I2        1.0  0.9099375605583192  0.41537150740623474  0.12908490002155304  1.0000
  Ni  Ni1       1.0  0.6996856331825256  0.38331863284111023  0.9707092642784119  1.0000
