data_image0
_chemical_formula_structural       Ca3Ge2INi2P
_chemical_formula_sum              "Ca3 Ge2 I1 Ni2 P1"
_cell_length_a       5.368206070923218
_cell_length_b       5.996325474270997
_cell_length_c       7.57011604309082
_cell_angle_alpha    88.73757133858214
_cell_angle_beta     89.79780925322595
_cell_angle_gamma    89.85922939745386

_space_group_name_H-M_alt    "P 1"
_space_group_IT_number       1

loop_
  _space_group_symop_operation_xyz
  'x, y, z'

loop_
  _atom_site_type_symbol
  _atom_site_label
  _atom_site_symmetry_multiplicity
  _atom_site_fract_x
  _atom_site_fract_y
  _atom_site_fract_z
  _atom_site_occupancy
  Ca  Ca1       1.0  0.2800788879394531  0.2623126804828644  0.7698894143104553  1.0000
  Ca  Ca2       1.0  0.7789124250411988  0.26462486386299133  0.7210451364517212  1.0000
  Ca  Ca3       1.0  0.2800256907939911  0.05585110932588577  0.05118653550744057  1.0000
  Ge  Ge1       1.0  0.7717697620391847  0.6264398097991943  0.3140811026096344  1.0000
  Ge  Ge2       1.0  0.27893924713134766  0.30562615394592285  0.9204629063606262  1.0000
  I   I1        1.0  0.28069648146629333  0.5694602727890015  0.04716295376420021  1.0000
  Ni  Ni1       1.0  0.7754855751991273  0.5724592804908752  0.6043026447296143  1.0000
  Ni  Ni2       1.0  0.27909472584724426  0.34411224722862244  0.3641788065433502  1.0000
  P   P1        1.0  0.2816421389579773  0.25762566924095154  0.03321327641606331  1.0000
