data_image0
_chemical_formula_structural       BCa7Ni
_chemical_formula_sum              "B1 Ca7 Ni1"
_cell_length_a       5.1885446419901475
_cell_length_b       4.915307646198644
_cell_length_c       6.789834976196289
_cell_angle_alpha    77.07794611040515
_cell_angle_beta     75.08818288761802
_cell_angle_gamma    59.12815640873611

_space_group_name_H-M_alt    "P 1"
_space_group_IT_number       1

loop_
  _space_group_symop_operation_xyz
  'x, y, z'

loop_
  _atom_site_type_symbol
  _atom_site_label
  _atom_site_symmetry_multiplicity
  _atom_site_fract_x
  _atom_site_fract_y
  _atom_site_fract_z
  _atom_site_occupancy
  B   B1        1.0  0.33509790897369385  0.8514325618743896  0.11608009785413742  1.0000
  Ca  Ca1       1.0  0.8297128677368164  0.30534031987190247  0.5575458407402039  1.0000
  Ca  Ca2       1.0  0.08434818685054779  0.9627254605293274  0.08395691215991974  1.0000
  Ca  Ca3       1.0  0.07289040088653564  0.859400749206543  0.3596225082874298  1.0000
  Ca  Ca4       1.0  0.06913860887289047  0.07856440544128418  0.3055591881275177  1.0000
  Ca  Ca5       1.0  0.5573739409446716  0.33153560757637024  0.959903359413147  1.0000
  Ca  Ca6       1.0  0.08163629472255707  0.36375242471694946  0.5176702737808228  1.0000
  Ca  Ca7       1.0  0.568647563457489  0.915084958076477  0.4185151755809784  1.0000
  Ni  Ni1       1.0  0.562592625617981  0.39918336272239685  0.8163260817527771  1.0000
