data_image0
_chemical_formula_structural       FGa4I3NiTbZn2Zr
_chemical_formula_sum              "F1 Ga4 I3 Ni1 Tb1 Zn2 Zr1"
_cell_length_a       5.95061902758009
_cell_length_b       6.745370968340836
_cell_length_c       8.742040634155273
_cell_angle_alpha    83.21868340460804
_cell_angle_beta     73.55627570706761
_cell_angle_gamma    67.04841540188049

_space_group_name_H-M_alt    "P 1"
_space_group_IT_number       1

loop_
  _space_group_symop_operation_xyz
  'x, y, z'

loop_
  _atom_site_type_symbol
  _atom_site_label
  _atom_site_symmetry_multiplicity
  _atom_site_fract_x
  _atom_site_fract_y
  _atom_site_fract_z
  _atom_site_occupancy
  F   F1        1.0  0.7434438467025757  0.10491058975458145  0.9247387051582336  1.0000
  Ga  Ga1       1.0  0.6217842102050781  0.1403486281633377  0.47466474771499634  1.0000
  Ga  Ga2       1.0  0.5724170207977295  0.972929835319519  0.07951731979846954  1.0000
  Ga  Ga3       1.0  0.209499329328537  0.19886687397956848  0.09144420176744461  1.0000
  Ga  Ga4       1.0  0.2722974717617035  0.9747011065483093  0.6042178273200989  1.0000
  I   I1        1.0  0.265468031167984  0.24620337784290314  0.8656626343727111  1.0000
  I   I2        1.0  0.7216137051582336  0.25827521085739136  0.39836961030960083  1.0000
  I   I3        1.0  0.7698549628257751  0.3436039388179779  0.09980156272649765  1.0000
  Ni  Ni1       1.0  0.726257860660553  0.7178864479064941  0.7196158170700073  1.0000
  Tb  Tb1       1.0  0.2680588960647583  0.12216412276029587  0.042766772210598006  1.0000
  Zn  Zn1       1.0  0.7863969802856445  0.9912595152854919  0.6091005802154541  1.0000
  Zn  Zn2       1.0  0.7683258056640625  0.3323226571083069  0.3299746513366699  1.0000
  Zr  Zr1       1.0  0.7756409049034119  0.27680009603500366  0.4965140223503113  1.0000
