data_image0
_chemical_formula_structural       Ga4HI3InPtTb2Zr
_chemical_formula_sum              "Ga4 H1 I3 In1 Pt1 Tb2 Zr1"
_cell_length_a       6.255709886465022
_cell_length_b       7.433617985879381
_cell_length_c       8.338897705078125
_cell_angle_alpha    69.30220887763166
_cell_angle_beta     72.28335589263104
_cell_angle_gamma    70.71197380205165

_space_group_name_H-M_alt    "P 1"
_space_group_IT_number       1

loop_
  _space_group_symop_operation_xyz
  'x, y, z'

loop_
  _atom_site_type_symbol
  _atom_site_label
  _atom_site_symmetry_multiplicity
  _atom_site_fract_x
  _atom_site_fract_y
  _atom_site_fract_z
  _atom_site_occupancy
  Ga  Ga1       1.0  0.5519859194755554  0.2131969779729843  0.49477022886276245  1.0000
  Ga  Ga2       1.0  0.054374247789382976  0.9408410787582396  0.9686216711997986  1.0000
  Ga  Ga3       1.0  0.09293826669454575  0.638053297996521  0.8524287939071656  1.0000
  Ga  Ga4       1.0  0.04582821577787399  0.5048258900642395  0.502970278263092  1.0000
  H   H1        1.0  0.497231125831604  0.9435632228851317  0.592393696308136  1.0000
  I   I1        1.0  0.5454372763633728  0.48570203781127924  0.022275002673268318  1.0000
  I   I2        1.0  0.5732824206352234  0.13190016150474548  0.4170725345611572  1.0000
  I   I3        1.0  0.533561110496521  0.15542654693126678  0.6350134611129761  1.0000
  In  In1       1.0  0.08293866366147996  0.20847888290882108  0.3798634111881256  1.0000
  Pt  Pt1       1.0  0.0690545067191124  0.5499191284179688  0.28586769104003906  1.0000
  Tb  Tb1       1.0  0.10614012181758885  0.7144473791122435  0.3026845157146454  1.0000
  Tb  Tb2       1.0  0.5620046257972717  0.2676931619644165  0.773006021976471  1.0000
  Zr  Zr1       1.0  0.07344266772270203  0.013113223016262053  0.4159022271633148  1.0000
