data_image0
_chemical_formula_structural       Ga5Ni3Tb5
_chemical_formula_sum              "Ga5 Ni3 Tb5"
_cell_length_a       6.135269649398234
_cell_length_b       6.293844202529252
_cell_length_c       6.627745628356934
_cell_angle_alpha    61.67254753330901
_cell_angle_beta     62.8548452093129
_cell_angle_gamma    60.16198917523416

_space_group_name_H-M_alt    "P 1"
_space_group_IT_number       1

loop_
  _space_group_symop_operation_xyz
  'x, y, z'

loop_
  _atom_site_type_symbol
  _atom_site_label
  _atom_site_symmetry_multiplicity
  _atom_site_fract_x
  _atom_site_fract_y
  _atom_site_fract_z
  _atom_site_occupancy
  Ga  Ga1       1.0  0.7507162690162659  0.21876798570156097  0.7572976350784302  1.0000
  Ga  Ga2       1.0  0.6742686033248901  0.7344181537628174  0.3357020914554596  1.0000
  Ga  Ga3       1.0  0.22041000425815582  0.9493052363395691  0.8780828714370728  1.0000
  Ga  Ga4       1.0  0.7181359529495239  0.23119144141674042  0.9925072789192201  1.0000
  Ga  Ga5       1.0  0.6602497696876526  0.7106316685676575  0.9154549241065979  1.0000
  Ni  Ni1       1.0  0.09064085781574249  0.9132500290870667  0.41371631622314453  1.0000
  Ni  Ni2       1.0  0.7521150708198547  0.7224385142326355  0.9806978106498719  1.0000
  Ni  Ni3       1.0  0.5705758333206177  0.762933075428009  0.5887097120285034  1.0000
  Tb  Tb1       1.0  0.5675619840621948  0.38168880343437195  0.5040878057479858  1.0000
  Tb  Tb2       1.0  0.08435806632041931  0.0894816443324089  0.8023353815078735  1.0000
  Tb  Tb3       1.0  0.2056378424167633  0.9537859559059143  0.4459840655326843  1.0000
  Tb  Tb4       1.0  0.24992050230503082  0.16229473054409027  0.3345039188861847  1.0000
  Tb  Tb5       1.0  0.8000781536102295  0.6104737520217896  0.19110220670700073  1.0000
