data_image0
_chemical_formula_structural       BCrGa7Tb4
_chemical_formula_sum              "B1 Cr1 Ga7 Tb4"
_cell_length_a       6.526821385194418
_cell_length_b       6.718931778484465
_cell_length_c       6.257918357849121
_cell_angle_alpha    63.62333558074831
_cell_angle_beta     62.02994641458714
_cell_angle_gamma    60.50862286701002

_space_group_name_H-M_alt    "P 1"
_space_group_IT_number       1

loop_
  _space_group_symop_operation_xyz
  'x, y, z'

loop_
  _atom_site_type_symbol
  _atom_site_label
  _atom_site_symmetry_multiplicity
  _atom_site_fract_x
  _atom_site_fract_y
  _atom_site_fract_z
  _atom_site_occupancy
  B   B1        1.0  0.1625448763370514  0.056681256741285324  0.2920617461204529  1.0000
  Cr  Cr1       1.0  0.3346017599105835  0.4729596674442291  0.49802216887474066  1.0000
  Ga  Ga1       1.0  0.9525687098503113  0.20977522432804108  0.7905907034873964  1.0000
  Ga  Ga2       1.0  0.26997047662734985  0.7099994421005249  0.9768776297569276  1.0000
  Ga  Ga3       1.0  0.9343060255050659  0.48432764410972595  0.604947566986084  1.0000
  Ga  Ga4       1.0  0.08763270080089569  0.24023675918579102  0.5231012105941772  1.0000
  Ga  Ga5       1.0  0.5935782194137573  0.7976337671279907  0.5811913013458252  1.0000
  Ga  Ga6       1.0  0.6965001821517944  0.9204526543617249  0.23215207457542422  1.0000
  Ga  Ga7       1.0  0.7881976366043091  0.6575801372528076  0.4109590351581574  1.0000
  Tb  Tb1       1.0  0.6633287072181702  0.48320478200912476  0.2271978706121445  1.0000
  Tb  Tb2       1.0  0.1378045231103897  0.18130765855312347  0.9233968853950502  1.0000
  Tb  Tb3       1.0  0.6337542533874512  0.6857745051383972  0.6592566967010498  1.0000
  Tb  Tb4       1.0  0.8429252505302429  0.32775723934173584  0.500834345817566  1.0000
