data_image0
_chemical_formula_structural       CoGa6H2NiScTb2
_chemical_formula_sum              "Co1 Ga6 H2 Ni1 Sc1 Tb2"
_cell_length_a       6.415652371001158
_cell_length_b       6.7238650822789126
_cell_length_c       6.859899520874023
_cell_angle_alpha    57.97808252230451
_cell_angle_beta     61.24665150169359
_cell_angle_gamma    59.571879426724195

_space_group_name_H-M_alt    "P 1"
_space_group_IT_number       1

loop_
  _space_group_symop_operation_xyz
  'x, y, z'

loop_
  _atom_site_type_symbol
  _atom_site_label
  _atom_site_symmetry_multiplicity
  _atom_site_fract_x
  _atom_site_fract_y
  _atom_site_fract_z
  _atom_site_occupancy
  Co  Co1       1.0  0.3950085937976837  0.6599246859550476  0.5277500748634338  1.0000
  Ga  Ga1       1.0  0.3271004557609558  0.6634820699691772  0.4046381115913391  1.0000
  Ga  Ga2       1.0  0.044399116188287735  0.18312403559684753  0.4173157215118408  1.0000
  Ga  Ga3       1.0  0.7179933786392212  0.2672489583492279  0.019182763993740082  1.0000
  Ga  Ga4       1.0  0.8800902962684631  0.6193198561668396  0.9800428152084351  1.0000
  Ga  Ga5       1.0  0.6644737720489502  0.051717404276132584  0.6721503138542175  1.0000
  Ga  Ga6       1.0  0.938678503036499  0.02752133086323738  0.23401384055614471  1.0000
  H   H1        1.0  0.9162807464599609  0.4891238808631897  0.7124075889587402  1.0000
  H   H2        1.0  0.3780424892902374  0.08528651297092438  0.7888434529304504  1.0000
  Ni  Ni1       1.0  0.3707204759120941  0.9751469492912292  0.05296638235449791  1.0000
  Sc  Sc1       1.0  0.1662798821926117  0.47571587562561035  0.3052365481853485  1.0000
  Tb  Tb1       1.0  0.41351214051246643  0.8300194144248962  0.17938992381095886  1.0000
  Tb  Tb2       1.0  0.684341549873352  0.2512805163860321  0.8982291221618652  1.0000
