data_image0
_chemical_formula_structural       AsGa3HI2Ni3Tb3
_chemical_formula_sum              "As1 Ga3 H1 I2 Ni3 Tb3"
_cell_length_a       6.129386496437062
_cell_length_b       6.19098688735617
_cell_length_c       7.333603858947754
_cell_angle_alpha    79.59970090480957
_cell_angle_beta     76.80445853119444
_cell_angle_gamma    78.15858291322718

_space_group_name_H-M_alt    "P 1"
_space_group_IT_number       1

loop_
  _space_group_symop_operation_xyz
  'x, y, z'

loop_
  _atom_site_type_symbol
  _atom_site_label
  _atom_site_symmetry_multiplicity
  _atom_site_fract_x
  _atom_site_fract_y
  _atom_site_fract_z
  _atom_site_occupancy
  As  As1       1.0  0.2051258981227875  0.9791008234024047  0.5061672329902649  1.0000
  Ga  Ga1       1.0  0.46682167053222656  0.5440647602081299  0.1354077905416489  1.0000
  Ga  Ga2       1.0  0.6770200729370117  0.668662965297699  0.556442379951477  1.0000
  Ga  Ga3       1.0  0.0020263914484530687  0.7969455122947693  0.21922942996025085  1.0000
  H   H1        1.0  0.2416602373123169  0.2174214869737625  0.4734054207801819  1.0000
  I   I1        1.0  0.9569815397262573  0.42983996868133545  0.3958817720413208  1.0000
  I   I2        1.0  0.3956516981124878  0.6652806401252747  0.9492459893226624  1.0000
  Ni  Ni1       1.0  0.1994495838880539  0.50532466173172  0.10540009289979935  1.0000
  Ni  Ni2       1.0  0.4784933030605316  0.12303734570741652  0.7606781125068665  1.0000
  Ni  Ni3       1.0  0.8426408171653748  0.592205286026001  0.02952401712536815  1.0000
  Tb  Tb1       1.0  0.5595090985298157  0.4618248343467712  0.09004013985395432  1.0000
  Tb  Tb2       1.0  0.24660466611385345  0.6338560581207275  0.10083061456680298  1.0000
  Tb  Tb3       1.0  0.99588543176651  0.10428693890571594  0.9743599891662598  1.0000
