data_image0
_chemical_formula_structural       LaSTeTlY6
_chemical_formula_sum              "La1 S1 Te1 Tl1 Y6"
_cell_length_a       4.769087388810422
_cell_length_b       6.959568480402821
_cell_length_c       8.638150215148926
_cell_angle_alpha    94.15245112612988
_cell_angle_beta     93.26104069962574
_cell_angle_gamma    89.75741059650151

_space_group_name_H-M_alt    "P 1"
_space_group_IT_number       1

loop_
  _space_group_symop_operation_xyz
  'x, y, z'

loop_
  _atom_site_type_symbol
  _atom_site_label
  _atom_site_symmetry_multiplicity
  _atom_site_fract_x
  _atom_site_fract_y
  _atom_site_fract_z
  _atom_site_occupancy
  La  La1       1.0  0.15058502554893494  0.9878859519958496  0.909872829914093  1.0000
  S   S1        1.0  0.7657997608184814  0.44105568528175354  0.7397386431694031  1.0000
  Te  Te1       1.0  0.2325761467218399  0.5992006659507751  0.6195592284202576  1.0000
  Tl  Tl1       1.0  0.21664954721927643  0.9355630874633789  0.2433544248342514  1.0000
  Y   Y1        1.0  0.49743542075157166  0.20066465437412262  0.11191736161708832  1.0000
  Y   Y2        1.0  0.7368077635765076  0.4728752076625824  0.40967801213264465  1.0000
  Y   Y3        1.0  0.737577497959137  0.43393898010253906  0.22956998646259308  1.0000
  Y   Y4        1.0  0.7393438816070557  0.769465982913971  0.6566218137741089  1.0000
  Y   Y5        1.0  0.23760248720645905  0.48096442222595215  0.9302598237991333  1.0000
  Y   Y6        1.0  0.2237379550933838  0.9491137266159058  0.6981726288795471  1.0000
