data_image0
_chemical_formula_structural       Te3Y7
_chemical_formula_sum              "Te3 Y7"
_cell_length_a       4.415054212189301
_cell_length_b       8.292632522730463
_cell_length_c       8.36799144744873
_cell_angle_alpha    89.83290725810113
_cell_angle_beta     90.99201677348435
_cell_angle_gamma    97.42739102654657

_space_group_name_H-M_alt    "P 1"
_space_group_IT_number       1

loop_
  _space_group_symop_operation_xyz
  'x, y, z'

loop_
  _atom_site_type_symbol
  _atom_site_label
  _atom_site_symmetry_multiplicity
  _atom_site_fract_x
  _atom_site_fract_y
  _atom_site_fract_z
  _atom_site_occupancy
  Te  Te1       1.0  0.9395318031311035  0.3768858015537262  0.9407462477684021  1.0000
  Te  Te2       1.0  0.4981249868869782  0.4492785930633545  0.23949073255062103  1.0000
  Te  Te3       1.0  0.009937320835888386  0.8874738812446594  0.16745853424072266  1.0000
  Y   Y1        1.0  0.6889428496360779  0.15565125644207  0.2783353328704834  1.0000
  Y   Y2        1.0  0.9018040299415588  0.19664929807186127  0.02888663113117218  1.0000
  Y   Y3        1.0  0.4426690340042114  0.29075703024864197  0.533418595790863  1.0000
  Y   Y4        1.0  0.08068008720874786  0.8065452575683594  0.962374269962311  1.0000
  Y   Y5        1.0  0.5023679733276367  0.7065397500991821  0.5981276631355286  1.0000
  Y   Y6        1.0  0.9545556902885438  0.7007955312728882  0.36619776487350464  1.0000
  Y   Y7        1.0  0.16842679679393768  0.07888957858085632  0.6255699396133423  1.0000
