data_image0
_chemical_formula_structural       Te3Tl3Y4
_chemical_formula_sum              "Te3 Tl3 Y4"
_cell_length_a       6.826328686161493
_cell_length_b       7.291208237650112
_cell_length_c       7.769247531890869
_cell_angle_alpha    115.34458933584027
_cell_angle_beta     118.29568341738388
_cell_angle_gamma    89.06544760439712

_space_group_name_H-M_alt    "P 1"
_space_group_IT_number       1

loop_
  _space_group_symop_operation_xyz
  'x, y, z'

loop_
  _atom_site_type_symbol
  _atom_site_label
  _atom_site_symmetry_multiplicity
  _atom_site_fract_x
  _atom_site_fract_y
  _atom_site_fract_z
  _atom_site_occupancy
  Te  Te1       1.0  0.0137675479054451  0.42764824628829956  0.7347219586372377  1.0000
  Te  Te2       1.0  0.3783650398254395  0.04300805181264877  0.4143328666687012  1.0000
  Te  Te3       1.0  0.46171304583549505  0.5278995633125305  0.6552866697311401  1.0000
  Tl  Tl1       1.0  0.5436546802520752  0.44089871644973755  0.2251081317663193  1.0000
  Tl  Tl2       1.0  0.06175893172621728  0.7576443552970886  0.2020449489355087  1.0000
  Tl  Tl3       1.0  0.49323526024818426  0.684522807598114  0.904307246208191  1.0000
  Y   Y1        1.0  0.7277159094810487  0.2743193209171295  0.011407602578401567  1.0000
  Y   Y2        1.0  0.23008655011653903  0.9254735112190247  0.8967535495758058  1.0000
  Y   Y3        1.0  0.8722664117813111  0.7876300811767578  0.7825019359588624  1.0000
  Y   Y4        1.0  0.06877139210700989  0.2919995188713074  0.34503245353698736  1.0000
