data_image0
_chemical_formula_structural       BrTe2Tl3Y4
_chemical_formula_sum              "Br1 Te2 Tl3 Y4"
_cell_length_a       6.359594098529278
_cell_length_b       7.494506969129145
_cell_length_c       7.530439853668213
_cell_angle_alpha    66.05581096818058
_cell_angle_beta     61.897935925437864
_cell_angle_gamma    61.10527272715601

_space_group_name_H-M_alt    "P 1"
_space_group_IT_number       1

loop_
  _space_group_symop_operation_xyz
  'x, y, z'

loop_
  _atom_site_type_symbol
  _atom_site_label
  _atom_site_symmetry_multiplicity
  _atom_site_fract_x
  _atom_site_fract_y
  _atom_site_fract_z
  _atom_site_occupancy
  Br  Br1       1.0  0.4143238961696625  0.17380945384502408  0.29900264739990234  1.0000
  Te  Te1       1.0  0.7568536996841431  0.9641301035881041  0.7402570247650146  1.0000
  Te  Te2       1.0  0.3560154139995575  0.2428862005472183  0.06574763357639313  1.0000
  Tl  Tl1       1.0  0.8192055225372314  0.9461007714271544  0.8806580305099487  1.0000
  Tl  Tl2       1.0  0.7823179364204407  0.9682505130767821  0.23952706158161163  1.0000
  Tl  Tl3       1.0  0.25376895070075994  0.4515786170959472  0.027899621054530144  1.0000
  Y   Y1        1.0  0.8212071657180786  0.088053822517395  0.5286734700202942  1.0000
  Y   Y2        1.0  0.855430006980896  0.48362395167350763  0.790566086769104  1.0000
  Y   Y3        1.0  0.2563488185405731  0.22838327288627622  0.8296570181846619  1.0000
  Y   Y4        1.0  0.24069023132324222  0.5411456823348999  0.7100327610969543  1.0000
