data_image0
_chemical_formula_structural       Te3TlY6
_chemical_formula_sum              "Te3 Tl1 Y6"
_cell_length_a       4.476843472583136
_cell_length_b       7.769785178157777
_cell_length_c       8.359076499938965
_cell_angle_alpha    99.85148851594795
_cell_angle_beta     96.9837006913527
_cell_angle_gamma    90.34340133804658

_space_group_name_H-M_alt    "P 1"
_space_group_IT_number       1

loop_
  _space_group_symop_operation_xyz
  'x, y, z'

loop_
  _atom_site_type_symbol
  _atom_site_label
  _atom_site_symmetry_multiplicity
  _atom_site_fract_x
  _atom_site_fract_y
  _atom_site_fract_z
  _atom_site_occupancy
  Te  Te1       1.0  0.7634203433990479  0.41493889689445496  0.20164331793785095  1.0000
  Te  Te2       1.0  0.9828513860702515  0.9504621028900146  0.4958961606025696  1.0000
  Te  Te3       1.0  0.9814358353614807  0.732427716255188  0.2256009876728058  1.0000
  Tl  Tl1       1.0  0.269997775554657  0.5224606990814209  0.2782091796398163  1.0000
  Y   Y1        1.0  0.8041003346443176  0.5923229455947876  0.9759942889213562  1.0000
  Y   Y2        1.0  0.5172668695449829  0.4134424030780792  0.45516300201416016  1.0000
  Y   Y3        1.0  0.3116530776023865  0.4103235602378845  0.9995696544647217  1.0000
  Y   Y4        1.0  0.01898292452096939  0.9369461536407471  0.996669590473175  1.0000
  Y   Y5        1.0  0.02039450965821743  0.9192451238632202  0.6306858658790588  1.0000
  Y   Y6        1.0  0.4995473027229309  0.8948106169700623  0.7901147603988647  1.0000
