data_image0
_chemical_formula_structural       Te4Y6
_chemical_formula_sum              "Te4 Y6"
_cell_length_a       5.235120224909399
_cell_length_b       7.558417242475444
_cell_length_c       8.389430046081543
_cell_angle_alpha    102.99691682544548
_cell_angle_beta     105.22741303249865
_cell_angle_gamma    89.01759862271891

_space_group_name_H-M_alt    "P 1"
_space_group_IT_number       1

loop_
  _space_group_symop_operation_xyz
  'x, y, z'

loop_
  _atom_site_type_symbol
  _atom_site_label
  _atom_site_symmetry_multiplicity
  _atom_site_fract_x
  _atom_site_fract_y
  _atom_site_fract_z
  _atom_site_occupancy
  Te  Te1       1.0  0.15143470466136932  0.5548115372657776  0.18228833377361298  1.0000
  Te  Te2       1.0  0.14830955862998962  0.7483580708503722  0.479317843914032  1.0000
  Te  Te3       1.0  0.6914620995521545  0.275309294462204  0.8686966300010681  1.0000
  Te  Te4       1.0  0.3733382523059845  0.1721253842115402  0.12848831713199615  1.0000
  Y   Y1        1.0  0.3705897629261017  0.7321707606315612  0.2252162843942642  1.0000
  Y   Y2        1.0  0.6917328834533691  0.7278929948806762  0.8848053812980652  1.0000
  Y   Y3        1.0  0.3489217758178711  0.6128972768783568  0.013830694369971726  1.0000
  Y   Y4        1.0  0.6929961442947388  0.2206275165081024  0.05520472303032875  1.0000
  Y   Y5        1.0  0.15309643745422363  0.7715423107147216  0.9125602841377258  1.0000
  Y   Y6        1.0  0.06640935689210892  0.005455406848341226  0.36403051018714905  1.0000
