data_image0
_chemical_formula_structural       O2PTbTi3TlV
_chemical_formula_sum              "O2 P1 Tb1 Ti3 Tl1 V1"
_cell_length_a       4.9817931014747066
_cell_length_b       5.837799156806504
_cell_length_c       5.851632118225098
_cell_angle_alpha    118.95015243519207
_cell_angle_beta     111.21358456004509
_cell_angle_gamma    105.09462772250438

_space_group_name_H-M_alt    "P 1"
_space_group_IT_number       1

loop_
  _space_group_symop_operation_xyz
  'x, y, z'

loop_
  _atom_site_type_symbol
  _atom_site_label
  _atom_site_symmetry_multiplicity
  _atom_site_fract_x
  _atom_site_fract_y
  _atom_site_fract_z
  _atom_site_occupancy
  O   O1        1.0  0.9505297541618347  0.6243529915809631  0.8912051916122437  1.0000
  O   O2        1.0  0.5788857936859131  0.09304818511009216  0.3436235785484314  1.0000
  P   P1        1.0  0.03721005097031593  0.8604987263679504  0.09840125590562813  1.0000
  Tb  Tb1       1.0  0.7692278027534485  0.68595290184021  0.9524404406547546  1.0000
  Ti  Ti1       1.0  0.7687109112739563  0.6245020031929016  0.9521544575691223  1.0000
  Ti  Ti2       1.0  0.2915895879268646  0.8272273540496826  0.5743537545204163  1.0000
  Ti  Ti3       1.0  0.4901094436645508  0.8794069886207581  0.34514406323432917  1.0000
  Tl  Tl1       1.0  0.7450371384620667  0.9522445797920227  0.39066526293754567  1.0000
  V   V1        1.0  0.018695645034313202  0.3458314836025238  0.777101457118988  1.0000
