data_image0
_chemical_formula_structural       B2CaO4Ta2
_chemical_formula_sum              "B2 Ca1 O4 Ta2"
_cell_length_a       4.509620193707928
_cell_length_b       4.672587125460497
_cell_length_c       4.760397434234619
_cell_angle_alpha    118.90209585922858
_cell_angle_beta     101.54139755227921
_cell_angle_gamma    92.10521625721225

_space_group_name_H-M_alt    "P 1"
_space_group_IT_number       1

loop_
  _space_group_symop_operation_xyz
  'x, y, z'

loop_
  _atom_site_type_symbol
  _atom_site_label
  _atom_site_symmetry_multiplicity
  _atom_site_fract_x
  _atom_site_fract_y
  _atom_site_fract_z
  _atom_site_occupancy
  B   B1        1.0  0.06637510657310486  0.8563532829284668  0.13811413943767548  1.0000
  B   B2        1.0  0.06853827834129333  0.8814260959625244  0.41898202896118164  1.0000
  Ca  Ca1       1.0  0.5623567700386047  0.0431971438229084  0.7491047382354736  1.0000
  O   O1        1.0  0.5570753812789917  0.8652574419975281  0.3485868275165558  1.0000
  O   O2        1.0  0.042328376322984695  0.6926140189170837  0.6377077698707581  1.0000
  O   O3        1.0  0.04303344711661339  0.3073183596134186  0.8972285985946654  1.0000
  O   O4        1.0  0.5585614442825317  0.3625759780406952  0.03535842522978783  1.0000
  Ta  Ta1       1.0  0.5626720786094666  0.8482041358947754  0.4999323189258575  1.0000
  Ta  Ta2       1.0  0.06017307564616203  0.3338802456855774  0.6867870688438416  1.0000
