data_image0
_chemical_formula_structural       ClH2Hg7N3
_chemical_formula_sum              "Cl1 H2 Hg7 N3"
_cell_length_a       5.881267109495955
_cell_length_b       7.231194154600035
_cell_length_c       7.677074909210205
_cell_angle_alpha    111.14929351429848
_cell_angle_beta     97.55117387058262
_cell_angle_gamma    106.03193184127844

_space_group_name_H-M_alt    "P 1"
_space_group_IT_number       1

loop_
  _space_group_symop_operation_xyz
  'x, y, z'

loop_
  _atom_site_type_symbol
  _atom_site_label
  _atom_site_symmetry_multiplicity
  _atom_site_fract_x
  _atom_site_fract_y
  _atom_site_fract_z
  _atom_site_occupancy
  Cl  Cl1       1.0  0.47576671838760376  0.06632299721240997  0.23198039829730988  1.0000
  H   H1        1.0  0.3770070970058441  0.7825708985328674  0.6010153293609619  1.0000
  H   H2        1.0  0.6131994724273682  0.3067331612110138  0.7729818820953369  1.0000
  Hg  Hg1       1.0  0.9093877673149109  0.7722546458244324  0.02117081731557846  1.0000
  Hg  Hg2       1.0  0.33862927556037903  0.11511904746294022  0.4202004075050354  1.0000
  Hg  Hg3       1.0  0.8772826790809631  0.029608113691210747  0.5778856873512268  1.0000
  Hg  Hg4       1.0  0.8727335333824158  0.6924183368682861  0.5047691464424133  1.0000
  Hg  Hg5       1.0  0.708378791809082  0.7771748304367065  0.08684998005628586  1.0000
  Hg  Hg6       1.0  0.22055897116661072  0.9524912238121033  0.7457684278488159  1.0000
  Hg  Hg7       1.0  0.6352770328521729  0.29083582758903503  0.7334561944007874  1.0000
  N   N1        1.0  0.23737354576587677  0.5281060338020325  0.06315977126359937  1.0000
  N   N2        1.0  0.21100720763206482  0.521159291267395  0.010958181694149971  1.0000
  N   N3        1.0  0.7315017580986023  0.1397625207901001  0.42808929085731506  1.0000
