data_image0
_chemical_formula_structural       ClH2Hg7N3
_chemical_formula_sum              "Cl1 H2 Hg7 N3"
_cell_length_a       6.905368529418853
_cell_length_b       7.750781762346311
_cell_length_c       7.625738143920898
_cell_angle_alpha    110.6448264524427
_cell_angle_beta     106.31875830375864
_cell_angle_gamma    109.39577800135271

_space_group_name_H-M_alt    "P 1"
_space_group_IT_number       1

loop_
  _space_group_symop_operation_xyz
  'x, y, z'

loop_
  _atom_site_type_symbol
  _atom_site_label
  _atom_site_symmetry_multiplicity
  _atom_site_fract_x
  _atom_site_fract_y
  _atom_site_fract_z
  _atom_site_occupancy
  Cl  Cl1       1.0  0.20580774545669556  0.7709352970123291  0.7047981619834901  1.0000
  H   H1        1.0  0.16224975883960724  0.12108206748962404  0.5302546620368958  1.0000
  H   H2        1.0  0.22298341989517212  0.16093549132347107  0.6870290637016297  1.0000
  Hg  Hg1       1.0  0.43801337480545055  0.9476410746574403  0.38199517130851757  1.0000
  Hg  Hg2       1.0  0.7418750524520874  0.6988264918327332  0.20629471540451053  1.0000
  Hg  Hg3       1.0  0.6843712329864502  0.1746332049369812  0.9206464290618898  1.0000
  Hg  Hg4       1.0  0.5916362404823303  0.2999817132949829  0.03832000121474267  1.0000
  Hg  Hg5       1.0  0.18785972893238068  0.6348236203193665  0.28220483660697937  1.0000
  Hg  Hg6       1.0  0.19208423793315887  0.11697036027908327  0.034299369901418686  1.0000
  Hg  Hg7       1.0  0.49665963649749756  0.612656831741333  0.01846679858863354  1.0000
  N   N1        1.0  0.9170815944671631  0.6970056891441345  0.22602012753486636  1.0000
  N   N2        1.0  0.9502967596054077  0.6862666606903076  0.35340183973312383  1.0000
  N   N3        1.0  0.3582867681980133  0.302401602268219  0.5479056239128113  1.0000
