data_image0
_chemical_formula_structural       ClH3HfHg6N2
_chemical_formula_sum              "Cl1 H3 Hf1 Hg6 N2"
_cell_length_a       5.434435219549251
_cell_length_b       6.710402133049592
_cell_length_c       8.647082328796387
_cell_angle_alpha    106.68298868434991
_cell_angle_beta     89.25605633254868
_cell_angle_gamma    115.42525185922096

_space_group_name_H-M_alt    "P 1"
_space_group_IT_number       1

loop_
  _space_group_symop_operation_xyz
  'x, y, z'

loop_
  _atom_site_type_symbol
  _atom_site_label
  _atom_site_symmetry_multiplicity
  _atom_site_fract_x
  _atom_site_fract_y
  _atom_site_fract_z
  _atom_site_occupancy
  Cl  Cl1       1.0  0.3021925091743469  0.756751298904419  0.5459129810333252  1.0000
  H   H1        1.0  0.7740427255630493  0.6995344161987305  0.029275555163621902  1.0000
  H   H2        1.0  0.896907389163971  0.6293784379959106  0.5091443061828613  1.0000
  H   H3        1.0  0.7195998430252075  0.6366704702377319  0.21133556962013245  1.0000
  Hf  Hf1       1.0  0.8938798308372498  0.05353640392422676  0.6669079661369325  1.0000
  Hg  Hg1       1.0  0.4758739471435547  0.09817201644182205  0.36678507924079895  1.0000
  Hg  Hg2       1.0  0.3946557641029358  0.6042929887771606  0.883026659488678  1.0000
  Hg  Hg3       1.0  0.4074227511882782  0.6383324265480042  0.4629913866519928  1.0000
  Hg  Hg4       1.0  0.9541387557983398  0.26705610752105713  0.17660342156887054  1.0000
  Hg  Hg5       1.0  0.2067267745733261  0.09636777639389038  0.0552116297185421  1.0000
  Hg  Hg6       1.0  0.7163375020027161  0.609717607498169  0.15208274126052856  1.0000
  N   N1        1.0  0.7717021107673645  0.10566199570894241  0.04806888848543167  1.0000
  N   N2        1.0  0.526532769203186  0.28862011432647705  0.02670493721961975  1.0000
