data_image0
_chemical_formula_structural       ClH2Hg7KN2
_chemical_formula_sum              "Cl1 H2 Hg7 K1 N2"
_cell_length_a       6.4877482932593225
_cell_length_b       7.839962585296611
_cell_length_c       8.036580085754395
_cell_angle_alpha    114.39922515454568
_cell_angle_beta     101.10039684230405
_cell_angle_gamma    106.85122780301819

_space_group_name_H-M_alt    "P 1"
_space_group_IT_number       1

loop_
  _space_group_symop_operation_xyz
  'x, y, z'

loop_
  _atom_site_type_symbol
  _atom_site_label
  _atom_site_symmetry_multiplicity
  _atom_site_fract_x
  _atom_site_fract_y
  _atom_site_fract_z
  _atom_site_occupancy
  Cl  Cl1       1.0  0.9195960760116577  0.7574863433837891  0.1772788017988205  1.0000
  H   H1        1.0  0.1702406406402588  0.9382783770561218  0.525985598564148  1.0000
  H   H2        1.0  0.6634851098060608  0.509518027305603  0.6868116855621338  1.0000
  Hg  Hg1       1.0  0.6720232963562012  0.506992518901825  0.5607416033744812  1.0000
  Hg  Hg2       1.0  0.18801063299179077  0.1396733671426773  0.8700720071792603  1.0000
  Hg  Hg3       1.0  0.31207266449928284  0.8891673684120178  0.6386429071426392  1.0000
  Hg  Hg4       1.0  0.17141275107860565  0.42625266313552856  0.7719141840934753  1.0000
  Hg  Hg5       1.0  0.45416444540023804  0.24725966155529022  0.9417334198951721  1.0000
  Hg  Hg6       1.0  0.21725155413150787  0.9630336761474609  0.435840368270874  1.0000
  Hg  Hg7       1.0  0.8253383636474609  0.9184410572052002  0.4510731101036072  1.0000
  K   K1        1.0  0.4444541931152344  0.757943868637085  0.3811579644680023  1.0000
  N   N1        1.0  0.6625096201896667  0.7661475539207458  0.00717280525714159  1.0000
  N   N2        1.0  0.31058207154273987  0.3827154338359833  0.7038436532020569  1.0000
