data_image0
_chemical_formula_structural       ClH2Hg9Np
_chemical_formula_sum              "Cl1 H2 Hg9 Np1"
_cell_length_a       7.39145724426663
_cell_length_b       9.199841595741853
_cell_length_c       12.232309341430664
_cell_angle_alpha    110.05038280841202
_cell_angle_beta     90.08061372203642
_cell_angle_gamma    107.11743320477059

_space_group_name_H-M_alt    "P 1"
_space_group_IT_number       1

loop_
  _space_group_symop_operation_xyz
  'x, y, z'

loop_
  _atom_site_type_symbol
  _atom_site_label
  _atom_site_symmetry_multiplicity
  _atom_site_fract_x
  _atom_site_fract_y
  _atom_site_fract_z
  _atom_site_occupancy
  Cl  Cl1       1.0  0.015154135413467884  0.5085293054580688  0.23662149906158447  1.0000
  H   H1        1.0  0.33160829544067383  0.7616939544677734  0.9435006380081177  1.0000
  H   H2        1.0  0.046958521008491516  0.5588855147361755  0.8136582970619202  1.0000
  Hg  Hg1       1.0  0.839730441570282  0.8197592496871948  0.2292703986167908  1.0000
  Hg  Hg2       1.0  0.6512489914894104  0.27333009243011475  0.8541605472564697  1.0000
  Hg  Hg3       1.0  0.8858973383903503  0.2915222644805908  0.6420992612838745  1.0000
  Hg  Hg4       1.0  0.5251322984695435  0.4952528774738312  0.9175792336463928  1.0000
  Hg  Hg5       1.0  0.16477704048156738  0.25101616978645325  0.4560507535934448  1.0000
  Hg  Hg6       1.0  0.3488144278526306  0.80571049451828  0.25144919753074646  1.0000
  Hg  Hg7       1.0  0.3127354085445404  0.767399251461029  0.2482517957687378  1.0000
  Hg  Hg8       1.0  0.3310941457748413  0.29185664653778076  0.425927072763443  1.0000
  Hg  Hg9       1.0  0.7860811352729797  0.8130922913551331  0.6859670877456665  1.0000
  Np  Np1       1.0  0.6207133531570435  0.31505313515663147  0.23333291709423065  1.0000
