data_image0
_chemical_formula_structural       Cl2H3Hg8
_chemical_formula_sum              "Cl2 H3 Hg8"
_cell_length_a       6.961602539705476
_cell_length_b       9.17981100860047
_cell_length_c       9.624658584594727
_cell_angle_alpha    119.02154031249678
_cell_angle_beta     90.51671273322098
_cell_angle_gamma    100.88412961670677

_space_group_name_H-M_alt    "P 1"
_space_group_IT_number       1

loop_
  _space_group_symop_operation_xyz
  'x, y, z'

loop_
  _atom_site_type_symbol
  _atom_site_label
  _atom_site_symmetry_multiplicity
  _atom_site_fract_x
  _atom_site_fract_y
  _atom_site_fract_z
  _atom_site_occupancy
  Cl  Cl1       1.0  0.850542187690735  0.6597339510917664  0.31170400977134705  1.0000
  Cl  Cl2       1.0  0.3287653923034668  0.19460135698318481  0.5260486602783203  1.0000
  H   H1        1.0  0.137911856174469  0.2262146770954132  0.1296268105506897  1.0000
  H   H2        1.0  0.06616449356079102  0.021907268092036247  0.6182575821876526  1.0000
  H   H3        1.0  0.3400476276874542  0.5884921550750732  0.14296633005142212  1.0000
  Hg  Hg1       1.0  0.8166162967681886  0.26375046372413635  0.3783894181251526  1.0000
  Hg  Hg2       1.0  0.349203109741211  0.22229135036468506  0.7965312600135803  1.0000
  Hg  Hg3       1.0  0.4020386934280396  0.6139205694198608  0.16572727262973785  1.0000
  Hg  Hg4       1.0  0.38743275403976446  0.6019933223724365  0.5893033146858215  1.0000
  Hg  Hg5       1.0  0.02865618467330933  0.4806063771247864  0.5473615527153015  1.0000
  Hg  Hg6       1.0  0.766902267932892  0.17345501482486725  0.651038646697998  1.0000
  Hg  Hg7       1.0  0.5343707203865051  0.9607104063034058  0.366969496011734  1.0000
  Hg  Hg8       1.0  0.5361500382423401  0.31296250224113464  0.4402151703834534  1.0000
