data_image0
_chemical_formula_structural       EuGe4I
_chemical_formula_sum              "Eu1 Ge4 I1"
_cell_length_a       4.789380339193119
_cell_length_b       2.991318852404874
_cell_length_c       7.344061374664307
_cell_angle_alpha    137.1252575124032
_cell_angle_beta     116.58380945508262
_cell_angle_gamma    97.54598730640842

_space_group_name_H-M_alt    "P 1"
_space_group_IT_number       1

loop_
  _space_group_symop_operation_xyz
  'x, y, z'

loop_
  _atom_site_type_symbol
  _atom_site_label
  _atom_site_symmetry_multiplicity
  _atom_site_fract_x
  _atom_site_fract_y
  _atom_site_fract_z
  _atom_site_occupancy
  Eu  Eu1       1.0  0.7033465504646301  0.4926096200942992  0.838518500328064  1.0000
  Ge  Ge1       1.0  0.17970310151576996  0.7360533475875854  0.0031581937801092334  1.0000
  Ge  Ge2       1.0  0.6889038681983948  0.5856261253356932  0.3967685401439666  1.0000
  Ge  Ge3       1.0  0.12578544020652777  0.9041778445243837  0.7936011552810669  1.0000
  Ge  Ge4       1.0  0.0592736154794693  0.3107507824897766  0.979741632938385  1.0000
  I   I1        1.0  0.974310040473938  0.8808250427246094  0.6304782629013062  1.0000
