data_image0
_chemical_formula_structural       BiI2Sb3SmTb3W
_chemical_formula_sum              "Bi1 I2 Sb3 Sm1 Tb3 W1"
_cell_length_a       6.742553908399368
_cell_length_b       7.077268710107797
_cell_length_c       7.694168567657471
_cell_angle_alpha    112.22010079818043
_cell_angle_beta     110.46911999852739
_cell_angle_gamma    102.93055152129735

_space_group_name_H-M_alt    "P 1"
_space_group_IT_number       1

loop_
  _space_group_symop_operation_xyz
  'x, y, z'

loop_
  _atom_site_type_symbol
  _atom_site_label
  _atom_site_symmetry_multiplicity
  _atom_site_fract_x
  _atom_site_fract_y
  _atom_site_fract_z
  _atom_site_occupancy
  Bi  Bi1       1.0  0.2849032580852508  0.9105443358421325  0.6994609832763672  1.0000
  I   I1        1.0  0.7399647831916809  0.18042813241481778  0.1792450249195099  1.0000
  I   I2        1.0  0.3257521092891693  0.40322217345237726  0.9431538581848145  1.0000
  Sb  Sb1       1.0  0.5956193208694458  0.5235702395439148  0.6230654716491699  1.0000
  Sb  Sb2       1.0  0.04417118430137634  0.5887287855148315  0.5308343172073364  1.0000
  Sb  Sb3       1.0  0.5595721006393433  0.5669787526130676  0.2808891832828522  1.0000
  Sm  Sm1       1.0  0.3260885179042816  0.16766010224819183  0.6505466103553772  1.0000
  Tb  Tb1       1.0  0.3253820836544037  0.18478229641914365  0.6560916900634766  1.0000
  Tb  Tb2       1.0  0.8219717144966125  0.9063207507133483  0.9442712068557739  1.0000
  Tb  Tb3       1.0  0.8212553858757019  0.9069824814796447  0.21459288895130157  1.0000
  W   W1        1.0  0.5551409125328063  0.9100659489631652  0.4094699025154113  1.0000
