data_image0
_chemical_formula_structural       I4Sb2Tb5
_chemical_formula_sum              "I4 Sb2 Tb5"
_cell_length_a       6.951331976993644
_cell_length_b       8.725287023250445
_cell_length_c       8.71317195892334
_cell_angle_alpha    119.92520816300542
_cell_angle_beta     89.61991708166867
_cell_angle_gamma    88.97334581560496

_space_group_name_H-M_alt    "P 1"
_space_group_IT_number       1

loop_
  _space_group_symop_operation_xyz
  'x, y, z'

loop_
  _atom_site_type_symbol
  _atom_site_label
  _atom_site_symmetry_multiplicity
  _atom_site_fract_x
  _atom_site_fract_y
  _atom_site_fract_z
  _atom_site_occupancy
  I   I1        1.0  0.9232828021049501  0.58875972032547  0.0659046620130539  1.0000
  I   I2        1.0  0.40209105610847473  0.6572483181953431  0.023137526586651802  1.0000
  I   I3        1.0  0.41244977712631226  0.9910240769386293  0.3199126720428467  1.0000
  I   I4        1.0  0.8971113562583923  0.500326931476593  0.6874621510505676  1.0000
  Sb  Sb1       1.0  0.9029554128646852  0.8543238639831544  0.5232388377189636  1.0000
  Sb  Sb2       1.0  0.40748998522758484  0.9534760117530824  0.001453399658203023  1.0000
  Tb  Tb1       1.0  0.17312151193618774  0.9733347296714784  0.9105395674705505  1.0000
  Tb  Tb2       1.0  0.39418667554855347  0.23278802633285525  0.6941954493522644  1.0000
  Tb  Tb3       1.0  0.912034571170807  0.17801992595195773  0.2081611305475235  1.0000
  Tb  Tb4       1.0  0.904279112815857  0.7357587218284608  0.9696991443634033  1.0000
  Tb  Tb5       1.0  0.42043641209602356  0.6778215765953065  0.8477072715759277  1.0000
