data_image0
_chemical_formula_structural       I3Sb3TaTb4
_chemical_formula_sum              "I3 Sb3 Ta1 Tb4"
_cell_length_a       7.440134523923792
_cell_length_b       7.898619740224987
_cell_length_c       7.758466720581055
_cell_angle_alpha    110.9374207817346
_cell_angle_beta     108.83076888275443
_cell_angle_gamma    104.37703353250721

_space_group_name_H-M_alt    "P 1"
_space_group_IT_number       1

loop_
  _space_group_symop_operation_xyz
  'x, y, z'

loop_
  _atom_site_type_symbol
  _atom_site_label
  _atom_site_symmetry_multiplicity
  _atom_site_fract_x
  _atom_site_fract_y
  _atom_site_fract_z
  _atom_site_occupancy
  I   I1        1.0  0.8670349717140198  0.09185456484556198  0.972903609275818  1.0000
  I   I2        1.0  0.20825541019439697  0.6638551950454712  0.4180213212966919  1.0000
  I   I3        1.0  0.5012731552124023  0.2806101143360138  0.402881920337677  1.0000
  Sb  Sb1       1.0  0.19380168616771698  0.012958994135260582  0.8980923295021058  1.0000
  Sb  Sb2       1.0  0.6835911870002747  0.17084862291812897  0.8176307678222656  1.0000
  Sb  Sb3       1.0  0.9320809245109559  0.5034629106521606  0.40892842411994934  1.0000
  Ta  Ta1       1.0  0.443398267030716  0.15330791473388672  0.7501828074455261  1.0000
  Tb  Tb1       1.0  0.7052121162414551  0.03422950580716133  0.2999795377254486  1.0000
  Tb  Tb2       1.0  0.4458779990673066  0.5489190816879272  0.4223462641239166  1.0000
  Tb  Tb3       1.0  0.21419847011566162  0.28570622205734253  0.28464242815971375  1.0000
  Tb  Tb4       1.0  0.7150288820266724  0.6440945267677307  0.31499385833740234  1.0000
