data_image0
_chemical_formula_structural       AgI5SbTb4
_chemical_formula_sum              "Ag1 I5 Sb1 Tb4"
_cell_length_a       6.888348115023857
_cell_length_b       8.261102364239543
_cell_length_c       7.7751312255859375
_cell_angle_alpha    123.09858928638003
_cell_angle_beta     87.29031310921702
_cell_angle_gamma    91.88712857816911

_space_group_name_H-M_alt    "P 1"
_space_group_IT_number       1

loop_
  _space_group_symop_operation_xyz
  'x, y, z'

loop_
  _atom_site_type_symbol
  _atom_site_label
  _atom_site_symmetry_multiplicity
  _atom_site_fract_x
  _atom_site_fract_y
  _atom_site_fract_z
  _atom_site_occupancy
  Ag  Ag1       1.0  0.28509634733200073  0.11891694366931917  0.88016939163208  1.0000
  I   I1        1.0  0.49633824825286865  0.6440507173538208  0.3759117424488067  1.0000
  I   I2        1.0  0.4826953709125519  0.09403969347476959  0.34495317935943604  1.0000
  I   I3        1.0  0.9927890300750732  0.03563130274415016  0.025201193988323208  1.0000
  I   I4        1.0  0.9899628758430481  0.4452280998229981  0.8760229945182799  1.0000
  I   I5        1.0  0.9923674464225769  0.7783915400505067  0.3840510845184325  1.0000
  Sb  Sb1       1.0  0.27074164152145386  0.5960937738418579  0.7166407704353333  1.0000
  Tb  Tb1       1.0  0.48729586601257324  0.12487267702817918  0.7268791198730469  1.0000
  Tb  Tb2       1.0  0.5092788934707642  0.4160620570182801  0.8645092844963073  1.0000
  Tb  Tb3       1.0  0.9973352551460266  0.4482369422912598  0.45944747328758234  1.0000
  Tb  Tb4       1.0  0.7618840336799622  0.2752645015716553  0.7030438184738159  1.0000
