data_image0
_chemical_formula_structural       I4Sb3Tb4
_chemical_formula_sum              "I4 Sb3 Tb4"
_cell_length_a       7.871527588458881
_cell_length_b       7.879442691151181
_cell_length_c       8.097326278686523
_cell_angle_alpha    106.66649589124944
_cell_angle_beta     105.5639011492907
_cell_angle_gamma    111.08589157398089

_space_group_name_H-M_alt    "P 1"
_space_group_IT_number       1

loop_
  _space_group_symop_operation_xyz
  'x, y, z'

loop_
  _atom_site_type_symbol
  _atom_site_label
  _atom_site_symmetry_multiplicity
  _atom_site_fract_x
  _atom_site_fract_y
  _atom_site_fract_z
  _atom_site_occupancy
  I   I1        1.0  0.6273939609527588  0.658153235912323  0.4907565712928772  1.0000
  I   I2        1.0  0.40839287638664246  0.16183027625083923  0.5271424651145935  1.0000
  I   I3        1.0  0.8516652584075928  0.22622439265251162  0.027145827189087868  1.0000
  I   I4        1.0  0.8617071509361267  0.6570149064064026  0.9411605000495911  1.0000
  Sb  Sb1       1.0  0.12653042376041412  0.6518674492835999  0.009781534783542156  1.0000
  Sb  Sb2       1.0  0.9008791446685791  0.15880081057548523  0.43317511677742004  1.0000
  Sb  Sb3       1.0  0.10016153752803802  0.18860456347465515  0.5413388013839722  1.0000
  Tb  Tb1       1.0  0.13481947779655457  0.6488648653030396  0.022208306938409805  1.0000
  Tb  Tb2       1.0  0.42134132981300354  0.6504971385002136  0.21388277411460882  1.0000
  Tb  Tb3       1.0  0.1500568389892578  0.15804335474967957  0.03611944988369943  1.0000
  Tb  Tb4       1.0  0.03432464599609375  0.15932312607765198  0.6920809745788574  1.0000
