data_image0
_chemical_formula_structural       I4SbTb6
_chemical_formula_sum              "I4 Sb1 Tb6"
_cell_length_a       6.8093450118530905
_cell_length_b       8.806015492031081
_cell_length_c       8.694596290588379
_cell_angle_alpha    120.12563985473584
_cell_angle_beta     89.90774779504932
_cell_angle_gamma    90.79860653524538

_space_group_name_H-M_alt    "P 1"
_space_group_IT_number       1

loop_
  _space_group_symop_operation_xyz
  'x, y, z'

loop_
  _atom_site_type_symbol
  _atom_site_label
  _atom_site_symmetry_multiplicity
  _atom_site_fract_x
  _atom_site_fract_y
  _atom_site_fract_z
  _atom_site_occupancy
  I   I1        1.0  0.2932264506816864  0.17044898867607117  0.9998443722724915  1.0000
  I   I2        1.0  0.989815056324005  0.29793068766593933  0.15158794820308685  1.0000
  I   I3        1.0  0.7810296416282653  0.00033605098724365234  0.4300132691860199  1.0000
  I   I4        1.0  0.9754249453544616  0.5500677227973938  0.9346500635147095  1.0000
  Sb  Sb1       1.0  0.7830082774162291  0.7756121158599854  0.28907775878906244  1.0000
  Tb  Tb1       1.0  0.996646761894226  0.7137688994407654  0.028944669291377016  1.0000
  Tb  Tb2       1.0  0.4686176180839538  0.04513698071241379  0.5384248495101929  1.0000
  Tb  Tb3       1.0  0.282965749502182  0.5666632652282715  0.5662133097648621  1.0000
  Tb  Tb4       1.0  0.01836695708334446  0.31457293033599854  0.8441691994667053  1.0000
  Tb  Tb5       1.0  0.49669444561004633  0.8019336462020874  0.28214526176452637  1.0000
  Tb  Tb6       1.0  0.5162898302078247  0.5347121953964233  0.3400035202503204  1.0000
