data_image0
_chemical_formula_structural       Dy2Fe2Ge2NiSi2Zn2
_chemical_formula_sum              "Dy2 Fe2 Ge2 Ni1 Si2 Zn2"
_cell_length_a       5.194636853742086
_cell_length_b       6.7830800554020305
_cell_length_c       6.896296977996826
_cell_angle_alpha    123.13480860879629
_cell_angle_beta     90.37398366828147
_cell_angle_gamma    89.16321248209587

_space_group_name_H-M_alt    "P 1"
_space_group_IT_number       1

loop_
  _space_group_symop_operation_xyz
  'x, y, z'

loop_
  _atom_site_type_symbol
  _atom_site_label
  _atom_site_symmetry_multiplicity
  _atom_site_fract_x
  _atom_site_fract_y
  _atom_site_fract_z
  _atom_site_occupancy
  Dy  Dy1       1.0  0.22199107706546786  0.49010083079338074  0.34077462553977966  1.0000
  Dy  Dy2       1.0  0.9721206426620485  0.3197324872016907  0.9751428961753845  1.0000
  Fe  Fe1       1.0  0.22032089531421664  0.24209487438201904  0.3386801481246948  1.0000
  Fe  Fe2       1.0  0.9461459517478944  0.8096063733100891  0.4815228879451751  1.0000
  Ge  Ge1       1.0  0.7038136720657349  0.17946158349514008  0.09336128085851668  1.0000
  Ge  Ge2       1.0  0.2184669524431229  0.5992380976676941  0.3371975421905517  1.0000
  Ni  Ni1       1.0  0.715933084487915  0.7426592111587524  0.34149909019470215  1.0000
  Si  Si1       1.0  0.5068081617355347  0.9805425405502319  0.8025128841400146  1.0000
  Si  Si2       1.0  0.7135446071624756  0.25709953904151917  0.12084668129682541  1.0000
  Zn  Zn1       1.0  0.21974426507949832  0.48005208373069763  0.6048320531845093  1.0000
  Zn  Zn2       1.0  0.7178272604942322  0.47627145051956177  0.29012858867645264  1.0000
