data_image0
_chemical_formula_structural       CoDy4Fe2GeSi2Zn
_chemical_formula_sum              "Co1 Dy4 Fe2 Ge1 Si2 Zn1"
_cell_length_a       5.774036236893143
_cell_length_b       7.3930169480228205
_cell_length_c       7.406031131744385
_cell_angle_alpha    122.44249893340303
_cell_angle_beta     89.01629734120289
_cell_angle_gamma    89.5572653163513

_space_group_name_H-M_alt    "P 1"
_space_group_IT_number       1

loop_
  _space_group_symop_operation_xyz
  'x, y, z'

loop_
  _atom_site_type_symbol
  _atom_site_label
  _atom_site_symmetry_multiplicity
  _atom_site_fract_x
  _atom_site_fract_y
  _atom_site_fract_z
  _atom_site_occupancy
  Co  Co1       1.0  0.18854403495788577  0.2381788194179535  0.5506061911582947  1.0000
  Dy  Dy1       1.0  0.18749898672103885  0.46017125248908997  0.08571771532297139  1.0000
  Dy  Dy2       1.0  0.6919815540313721  0.6338629126548767  0.7041426301002502  1.0000
  Dy  Dy3       1.0  0.6943091750144958  0.9643920660018921  0.4683259427547455  1.0000
  Dy  Dy4       1.0  0.43838700652122503  0.45417165756225586  0.20733314752578735  1.0000
  Fe  Fe1       1.0  0.1838180273771286  0.9543824195861816  0.7048556208610535  1.0000
  Fe  Fe2       1.0  0.6890552639961243  0.4608958661556244  0.18831203877925876  1.0000
  Ge  Ge1       1.0  0.7051854729652405  0.19069804251194  0.21345587074756622  1.0000
  Si  Si1       1.0  0.47977897524833685  0.953260064125061  0.7258564233779907  1.0000
  Si  Si2       1.0  0.18081268668174744  0.9478746056556702  0.6935710310935974  1.0000
  Zn  Zn1       1.0  0.6906740665435791  0.9675971269607544  0.9488056898117065  1.0000
