data_image0
_chemical_formula_structural       Dy6Fe3Ge2
_chemical_formula_sum              "Dy6 Fe3 Ge2"
_cell_length_a       5.258725791361861
_cell_length_b       6.529967589378246
_cell_length_c       6.426249027252197
_cell_angle_alpha    119.13683635302107
_cell_angle_beta     90.39063100618225
_cell_angle_gamma    91.2718303692401

_space_group_name_H-M_alt    "P 1"
_space_group_IT_number       1

loop_
  _space_group_symop_operation_xyz
  'x, y, z'

loop_
  _atom_site_type_symbol
  _atom_site_label
  _atom_site_symmetry_multiplicity
  _atom_site_fract_x
  _atom_site_fract_y
  _atom_site_fract_z
  _atom_site_occupancy
  Dy  Dy1       1.0  0.26742276549339294  0.41870611906051636  0.5271627306938171  1.0000
  Dy  Dy2       1.0  0.5280398726463318  0.9125829339027404  0.7529218196868895  1.0000
  Dy  Dy3       1.0  0.5315889716148376  0.4130704998970032  0.6701380014419555  1.0000
  Dy  Dy4       1.0  0.024863693863153458  0.41726332902908325  0.10829557478427883  1.0000
  Dy  Dy5       1.0  0.5310771465301514  0.8923680782318114  0.04300282895565032  1.0000
  Dy  Dy6       1.0  0.5333334803581238  0.13906776905059814  0.3563490211963653  1.0000
  Fe  Fe1       1.0  0.7833797931671143  0.6473590731620789  0.7898483872413634  1.0000
  Fe  Fe2       1.0  0.27146732807159424  0.4127596616744995  0.591827929019928  1.0000
  Fe  Fe3       1.0  0.7803467512130735  0.12256571650505065  0.520629346370697  1.0000
  Ge  Ge1       1.0  0.02433517761528492  0.13640131056308746  0.3164352476596832  1.0000
  Ge  Ge2       1.0  0.02892812341451645  0.8323478102684021  0.8466235399246215  1.0000
