data_image0
_chemical_formula_structural       Dy5Fe2Ge2Si2
_chemical_formula_sum              "Dy5 Fe2 Ge2 Si2"
_cell_length_a       5.003244493667867
_cell_length_b       7.123457973460907
_cell_length_c       6.9730987548828125
_cell_angle_alpha    119.23427262746287
_cell_angle_beta     90.59732543646732
_cell_angle_gamma    89.09165074811698

_space_group_name_H-M_alt    "P 1"
_space_group_IT_number       1

loop_
  _space_group_symop_operation_xyz
  'x, y, z'

loop_
  _atom_site_type_symbol
  _atom_site_label
  _atom_site_symmetry_multiplicity
  _atom_site_fract_x
  _atom_site_fract_y
  _atom_site_fract_z
  _atom_site_occupancy
  Dy  Dy1       1.0  0.5797908902168274  0.878058671951294  0.3114133477210999  1.0000
  Dy  Dy2       1.0  0.5820196270942688  0.8697120547294617  0.30635482072830206  1.0000
  Dy  Dy3       1.0  0.08511661738157272  0.042092278599739075  0.5557931661605835  1.0000
  Dy  Dy4       1.0  0.09312255680561066  0.28189757466316223  0.5434064269065857  1.0000
  Dy  Dy5       1.0  0.0825553834438324  0.5290005207061768  0.3077249825000763  1.0000
  Fe  Fe1       1.0  0.81339031457901  0.2553845942020416  0.6486635208129883  1.0000
  Fe  Fe2       1.0  0.08207504451274872  0.5138075947761536  0.19127082824707034  1.0000
  Ge  Ge1       1.0  0.5706600546836853  0.5035423636436462  0.055100247263908414  1.0000
  Ge  Ge2       1.0  0.31486862897872925  0.6593756079673767  0.6185292601585388  1.0000
  Si  Si1       1.0  0.5875656008720398  0.15162089467048645  0.8141071796417236  1.0000
  Si  Si2       1.0  0.09600114077329636  0.04851202666759491  0.050827108323574066  1.0000
