data_image0
_chemical_formula_structural       Dy4Fe3Ge4
_chemical_formula_sum              "Dy4 Fe3 Ge4"
_cell_length_a       4.862998763069224
_cell_length_b       6.264838774953912
_cell_length_c       6.401334762573242
_cell_angle_alpha    79.36862910835939
_cell_angle_beta     70.1342740582679
_cell_angle_gamma    71.62210689629867

_space_group_name_H-M_alt    "P 1"
_space_group_IT_number       1

loop_
  _space_group_symop_operation_xyz
  'x, y, z'

loop_
  _atom_site_type_symbol
  _atom_site_label
  _atom_site_symmetry_multiplicity
  _atom_site_fract_x
  _atom_site_fract_y
  _atom_site_fract_z
  _atom_site_occupancy
  Dy  Dy1       1.0  0.5703359246253967  0.981802523136139  0.010043125599622726  1.0000
  Dy  Dy2       1.0  0.8111807703971863  0.14291532337665558  0.5346392393112183  1.0000
  Dy  Dy3       1.0  0.06183207035064697  0.5159673690795898  0.9110437035560607  1.0000
  Dy  Dy4       1.0  0.5645053386688232  0.5262556076049805  0.10616827756166457  1.0000
  Fe  Fe1       1.0  0.9582492113113403  0.3027324080467224  0.7862256169319152  1.0000
  Fe  Fe2       1.0  0.38282614946365356  0.21240957081317904  0.48110935091972346  1.0000
  Fe  Fe3       1.0  0.966523289680481  0.9455433487892152  0.2887471616268158  1.0000
  Ge  Ge1       1.0  0.807513952255249  0.413465827703476  0.7752699851989745  1.0000
  Ge  Ge2       1.0  0.5593700408935547  0.9526368379592897  0.9696205258369445  1.0000
  Ge  Ge3       1.0  0.24897961318492887  0.8592176437377931  0.6942035555839537  1.0000
  Ge  Ge4       1.0  0.8241318464279175  0.1442665457725525  0.7898312211036681  1.0000
