data_image0
_chemical_formula_structural       Dy5Fe3Ge2Si
_chemical_formula_sum              "Dy5 Fe3 Ge2 Si1"
_cell_length_a       5.1556680136968165
_cell_length_b       7.038502778142876
_cell_length_c       7.243999481201172
_cell_angle_alpha    119.83704961434232
_cell_angle_beta     89.719590656168
_cell_angle_gamma    88.90817174354692

_space_group_name_H-M_alt    "P 1"
_space_group_IT_number       1

loop_
  _space_group_symop_operation_xyz
  'x, y, z'

loop_
  _atom_site_type_symbol
  _atom_site_label
  _atom_site_symmetry_multiplicity
  _atom_site_fract_x
  _atom_site_fract_y
  _atom_site_fract_z
  _atom_site_occupancy
  Dy  Dy1       1.0  0.5881399512290955  0.728159487247467  0.23821088671684273  1.0000
  Dy  Dy2       1.0  0.853969931602478  0.3914147913455963  0.7894258499145508  1.0000
  Dy  Dy3       1.0  0.08560366183519363  0.011336932890117168  0.6244827508926392  1.0000
  Dy  Dy4       1.0  0.7980405688285828  0.00874927919358015  0.638533353805542  1.0000
  Dy  Dy5       1.0  0.5770915746688843  0.5039305090904236  0.6289265751838684  1.0000
  Fe  Fe1       1.0  0.5728663206100464  0.135808527469635  0.6286165118217468  1.0000
  Fe  Fe2       1.0  0.097636878490448  0.16755877435207367  0.4127988815307617  1.0000
  Fe  Fe3       1.0  0.590707004070282  0.6395229697227478  0.3782900869846344  1.0000
  Ge  Ge1       1.0  0.2475285530090332  0.04486259073019028  0.8893050551414491  1.0000
  Ge  Ge2       1.0  0.24080747365951538  0.48303472995758057  0.5615705251693726  1.0000
  Si  Si1       1.0  0.852220356464386  0.147637739777565  0.13352863490581512  1.0000
