data_image0
_chemical_formula_structural       Ba5Ge2
_chemical_formula_sum              "Ba5 Ge2"
_cell_length_a       5.38268028062669
_cell_length_b       5.366204511222458
_cell_length_c       9.568954467773438
_cell_angle_alpha    89.92549400363391
_cell_angle_beta     89.93300906316489
_cell_angle_gamma    118.51296031235302

_space_group_name_H-M_alt    "P 1"
_space_group_IT_number       1

loop_
  _space_group_symop_operation_xyz
  'x, y, z'

loop_
  _atom_site_type_symbol
  _atom_site_label
  _atom_site_symmetry_multiplicity
  _atom_site_fract_x
  _atom_site_fract_y
  _atom_site_fract_z
  _atom_site_occupancy
  Ba  Ba1       1.0  0.740732729434967  0.2262447625398636  0.6592196822166443  1.0000
  Ba  Ba2       1.0  0.7313810586929321  0.8778345584869385  0.16415993869304657  1.0000
  Ba  Ba3       1.0  0.23975838720798492  0.2244184911251068  0.15990358591079712  1.0000
  Ba  Ba4       1.0  0.70977783203125  0.38460299372673035  0.41148823499679565  1.0000
  Ba  Ba5       1.0  0.20515567064285278  0.8821228742599487  0.5487313270568848  1.0000
  Ge  Ge1       1.0  0.7045838236808777  0.12199418246746062  0.8712164163589478  1.0000
  Ge  Ge2       1.0  0.20937485992908478  0.6931515336036682  0.6766486763954163  1.0000
