data_image0
_chemical_formula_structural       As2Co3FO8V
_chemical_formula_sum              "As2 Co3 F1 O8 V1"
_cell_length_a       5.793580632084171
_cell_length_b       6.0754302096039625
_cell_length_c       5.913357257843018
_cell_angle_alpha    111.60266272544303
_cell_angle_beta     104.67842358712082
_cell_angle_gamma    111.60490632343281

_space_group_name_H-M_alt    "P 1"
_space_group_IT_number       1

loop_
  _space_group_symop_operation_xyz
  'x, y, z'

loop_
  _atom_site_type_symbol
  _atom_site_label
  _atom_site_symmetry_multiplicity
  _atom_site_fract_x
  _atom_site_fract_y
  _atom_site_fract_z
  _atom_site_occupancy
  As  As1       1.0  0.4948023557662964  0.7483205199241638  0.6860654354095459  1.0000
  As  As2       1.0  0.5462287664413452  0.7526659965515137  0.9847436547279357  1.0000
  Co  Co1       1.0  0.6648155450820923  0.3027300536632538  0.4938709735870361  1.0000
  Co  Co2       1.0  0.7874767184257507  0.5297718644142151  0.15452353656291962  1.0000
  Co  Co3       1.0  0.31757330894470215  0.3103107810020447  0.5178662538528442  1.0000
  F   F1        1.0  0.3515591621398926  0.027962956577539444  0.24834223091602323  1.0000
  O   O1        1.0  0.4251803755760193  0.6408729553222656  0.7683329582214355  1.0000
  O   O2        1.0  0.36658117175102234  0.03221860155463219  0.25151053071022034  1.0000
  O   O3        1.0  0.9745045304298401  0.06163111701607705  0.8646876215934752  1.0000
  O   O4        1.0  0.6994724273681641  0.01668345183134079  0.7566076517105103  1.0000
  O   O5        1.0  0.37524348497390747  0.14030691981315613  0.26081064343452454  1.0000
  O   O6        1.0  0.04001228138804436  0.8633148074150085  0.5674566626548767  1.0000
  O   O7        1.0  0.7043575644493103  0.5477772355079651  0.7449943423271179  1.0000
  O   O8        1.0  0.5936706066131592  0.8757708072662354  0.2552757263183594  1.0000
  V   V1        1.0  0.9637051820755005  0.313599169254303  0.6942886114120483  1.0000
