data_image0
_chemical_formula_structural       Co3MgO8PbV2
_chemical_formula_sum              "Co3 Mg1 O8 Pb1 V2"
_cell_length_a       5.856404746704508
_cell_length_b       5.885474656919085
_cell_length_c       5.401144027709961
_cell_angle_alpha    111.72078427939081
_cell_angle_beta     109.62073634085611
_cell_angle_gamma    112.62018292265898

_space_group_name_H-M_alt    "P 1"
_space_group_IT_number       1

loop_
  _space_group_symop_operation_xyz
  'x, y, z'

loop_
  _atom_site_type_symbol
  _atom_site_label
  _atom_site_symmetry_multiplicity
  _atom_site_fract_x
  _atom_site_fract_y
  _atom_site_fract_z
  _atom_site_occupancy
  Co  Co1       1.0  0.5729174613952637  0.5613540410995483  0.6259305477142334  1.0000
  Co  Co2       1.0  0.8516761064529419  0.8942731022834778  0.6282030940055847  1.0000
  Co  Co3       1.0  0.8438948392868042  0.8911762833595276  0.12925632297992706  1.0000
  Mg  Mg1       1.0  0.5766268968582153  0.35307827591896057  0.8757308721542358  1.0000
  O   O1        1.0  0.06157846376299858  0.86000657081604  0.9399076104164124  1.0000
  O   O2        1.0  0.5960017442703247  0.12384654581546783  0.4451197683811188  1.0000
  O   O3        1.0  0.09279518574476242  0.5440840125083923  0.37082719802856445  1.0000
  O   O4        1.0  0.06822934001684189  0.42592015862464905  0.8794724345207214  1.0000
  O   O5        1.0  0.58469158411026  0.5899913311004639  0.7254655957221984  1.0000
  O   O6        1.0  0.58443683385849  0.39023348689079285  0.6124916076660156  1.0000
  O   O7        1.0  0.8655766844749451  0.15651923418045044  0.93426513671875  1.0000
  O   O8        1.0  0.3316742181777954  0.9072974920272827  0.08401205390691749  1.0000
  Pb  Pb1       1.0  0.08601509779691696  0.566153883934021  0.13078701496124268  1.0000
  V   V1        1.0  0.08980897814035416  0.10618434846401215  0.6930502653121948  1.0000
  V   V2        1.0  0.3375421166419983  0.8413331508636475  0.3714219927787781  1.0000
