data_image0
_chemical_formula_structural       Ag2As2GaO9V
_chemical_formula_sum              "Ag2 As2 Ga1 O9 V1"
_cell_length_a       5.191668719928087
_cell_length_b       6.39686848892962
_cell_length_c       6.293562412261963
_cell_angle_alpha    114.06012160852381
_cell_angle_beta     96.82519243690204
_cell_angle_gamma    102.74746272815331

_space_group_name_H-M_alt    "P 1"
_space_group_IT_number       1

loop_
  _space_group_symop_operation_xyz
  'x, y, z'

loop_
  _atom_site_type_symbol
  _atom_site_label
  _atom_site_symmetry_multiplicity
  _atom_site_fract_x
  _atom_site_fract_y
  _atom_site_fract_z
  _atom_site_occupancy
  Ag  Ag1       1.0  0.1086433529853821  0.19886025786399844  0.8837190270423889  1.0000
  Ag  Ag2       1.0  0.8019573688507081  0.8814922571182252  0.11020098626613617  1.0000
  As  As1       1.0  0.5072745680809021  0.7576635479927063  0.17374928295612344  1.0000
  As  As2       1.0  0.13306471705436707  0.6589268445968628  0.803150475025177  1.0000
  Ga  Ga1       1.0  0.3878537118434906  0.03576401248574257  0.7686616778373718  1.0000
  O   O1        1.0  0.42791822552680975  0.40263170003890997  0.1345762312412262  1.0000
  O   O2        1.0  0.7597659826278687  0.3668733537197113  0.8631802797317505  1.0000
  O   O3        1.0  0.9217841625213624  0.368056982755661  0.6566452980041504  1.0000
  O   O4        1.0  0.08742953836917877  0.7297186255455017  0.4656115472316743  1.0000
  O   O5        1.0  0.5654762983322144  0.8952845335006715  0.9401482939720154  1.0000
  O   O6        1.0  0.4677776396274567  0.6123756170272827  0.5976694226264954  1.0000
  O   O7        1.0  0.9443002343177797  0.7071089744567871  0.23455551266670227  1.0000
  O   O8        1.0  0.41522553563117987  0.5451140403747559  0.3589923083782196  1.0000
  O   O9        1.0  0.0669651255011559  0.8783099651336671  0.5967539548873901  1.0000
  V   V1        1.0  0.1414711624383927  0.8136005997657777  0.35009604692459106  1.0000
