data_image0
_chemical_formula_structural       Ag6AsErO7
_chemical_formula_sum              "Ag6 As1 Er1 O7"
_cell_length_a       5.773007228470678
_cell_length_b       7.024601135748447
_cell_length_c       6.186816215515137
_cell_angle_alpha    124.8206621469622
_cell_angle_beta     91.4191670407478
_cell_angle_gamma    87.21650297980436

_space_group_name_H-M_alt    "P 1"
_space_group_IT_number       1

loop_
  _space_group_symop_operation_xyz
  'x, y, z'

loop_
  _atom_site_type_symbol
  _atom_site_label
  _atom_site_symmetry_multiplicity
  _atom_site_fract_x
  _atom_site_fract_y
  _atom_site_fract_z
  _atom_site_occupancy
  Ag  Ag1       1.0  0.9913673996925355  0.6921701431274414  0.33532932400703425  1.0000
  Ag  Ag2       1.0  0.9997214078903199  0.9047662615776062  0.9218409061431885  1.0000
  Ag  Ag3       1.0  0.5037914514541626  0.20019131898880005  0.37066125869750977  1.0000
  Ag  Ag4       1.0  0.5243474841117859  0.6754408478736877  0.33349862694740295  1.0000
  Ag  Ag5       1.0  0.5159236192703247  0.1719900220632553  0.7355746626853943  1.0000
  Ag  Ag6       1.0  0.9854717254638673  0.9076598882675171  0.5629521608352661  1.0000
  As  As1       1.0  0.9769567847251893  0.6885057687759399  0.32803875207900995  1.0000
  Er  Er1       1.0  0.5159911513328552  0.8434410095214844  0.4165204465389251  1.0000
  O   O1        1.0  0.6925358176231384  0.3858511447906494  0.6359191536903381  1.0000
  O   O2        1.0  0.16666868329048157  0.1703784167766571  0.3544587790966034  1.0000
  O   O3        1.0  0.013660741038620472  0.18380717933177948  0.7326750755310059  1.0000
  O   O4        1.0  0.7384671568870544  0.8996970057487488  0.31704068183898926  1.0000
  O   O5        1.0  0.4824399650096894  0.08328821510076523  0.0882754847407341  1.0000
  O   O6        1.0  0.2532833218574524  0.3968898057937622  0.747890055179596  1.0000
  O   O7        1.0  0.23815378546714785  0.6009006500244141  0.8734789490699768  1.0000
