data_image0
_chemical_formula_structural       Ag5GaO9
_chemical_formula_sum              "Ag5 Ga1 O9"
_cell_length_a       5.691586859922496
_cell_length_b       6.779961153293243
_cell_length_c       5.810381889343262
_cell_angle_alpha    125.02596739338705
_cell_angle_beta     84.21415906900276
_cell_angle_gamma    89.36658552627165

_space_group_name_H-M_alt    "P 1"
_space_group_IT_number       1

loop_
  _space_group_symop_operation_xyz
  'x, y, z'

loop_
  _atom_site_type_symbol
  _atom_site_label
  _atom_site_symmetry_multiplicity
  _atom_site_fract_x
  _atom_site_fract_y
  _atom_site_fract_z
  _atom_site_occupancy
  Ag  Ag1       1.0  0.10828495025634766  0.13837666809558868  0.739597499370575  1.0000
  Ag  Ag2       1.0  0.09712386131286621  0.7067599892616272  0.2309486269950867  1.0000
  Ag  Ag3       1.0  0.09582429379224777  0.25483453273773193  0.9674242734909059  1.0000
  Ag  Ag4       1.0  0.8228002786636353  0.8622589111328125  0.3272058069705963  1.0000
  Ag  Ag5       1.0  0.35219380259513855  0.34396231174468994  0.35049426555633545  1.0000
  Ga  Ga1       1.0  0.8273826241493225  0.6036794185638428  0.9069280028343202  1.0000
  O   O1        1.0  0.8503543138504028  0.15443536639213562  0.19526588916778564  1.0000
  O   O2        1.0  0.09183123707771301  0.718640923500061  0.3070869445800781  1.0000
  O   O3        1.0  0.8356139659881592  0.48585110902786255  0.0050377328880131245  1.0000
  O   O4        1.0  0.3224390149116516  0.6548667550086975  0.9364878535270692  1.0000
  O   O5        1.0  0.8432796001434326  0.5066437125205994  0.7761044502258301  1.0000
  O   O6        1.0  0.33155110478401184  0.07164730876684189  0.4456590414047242  1.0000
  O   O7        1.0  0.3500187397003174  0.42615488171577454  0.43180522322654724  1.0000
  O   O8        1.0  0.8314462304115295  0.9139229655265808  0.6983627080917358  1.0000
  O   O9        1.0  0.37060579657554626  0.4926588237285614  0.952547311782837  1.0000
