data_image0
_chemical_formula_structural       AgAsCo4O7VZr
_chemical_formula_sum              "Ag1 As1 Co4 O7 V1 Zr1"
_cell_length_a       5.517580063867179
_cell_length_b       5.625875472831785
_cell_length_c       5.680732727050781
_cell_angle_alpha    66.61524284359446
_cell_angle_beta     59.50693879825899
_cell_angle_gamma    58.95535198514723

_space_group_name_H-M_alt    "P 1"
_space_group_IT_number       1

loop_
  _space_group_symop_operation_xyz
  'x, y, z'

loop_
  _atom_site_type_symbol
  _atom_site_label
  _atom_site_symmetry_multiplicity
  _atom_site_fract_x
  _atom_site_fract_y
  _atom_site_fract_z
  _atom_site_occupancy
  Ag  Ag1       1.0  0.27818089723587036  0.6175544261932373  0.6144153475761414  1.0000
  As  As1       1.0  0.0883679911494255  0.6296527981758118  0.2637780010700226  1.0000
  Co  Co1       1.0  0.4494402110576629  0.17590075731277466  0.29847782850265503  1.0000
  Co  Co2       1.0  0.4444046318531036  0.19218339025974274  0.3129105865955353  1.0000
  Co  Co3       1.0  0.9469256997108458  0.7115318179130554  0.5317367911338806  1.0000
  Co  Co4       1.0  0.989607274532318  0.10637189447879791  0.26834720373153687  1.0000
  O   O1        1.0  0.22867092490196225  0.21838194131851196  0.7955822348594666  1.0000
  O   O2        1.0  0.8480033874511719  0.0357629619538784  0.2882072627544403  1.0000
  O   O3        1.0  0.9964922666549682  0.6219468712806702  0.13488438725471497  1.0000
  O   O4        1.0  0.6264092922210693  0.7858773469924927  0.6280209422111511  1.0000
  O   O5        1.0  0.5847511887550354  0.3441007733345032  0.5273672938346863  1.0000
  O   O6        1.0  0.9964148998260497  0.11071295291185379  0.5960631370544434  1.0000
  O   O7        1.0  0.7323600053787231  0.7875847220420837  0.6310376524925232  1.0000
  V   V1        1.0  0.08257436752319336  0.1268824189901352  0.7846608757972717  1.0000
  Zr  Zr1       1.0  0.8008148074150085  0.8639717102050781  0.04331333190202713  1.0000
