data_image0
_chemical_formula_structural       ClEu2GeHfPd2TaTe
_chemical_formula_sum              "Cl1 Eu2 Ge1 Hf1 Pd2 Ta1 Te1"
_cell_length_a       6.13348448879434
_cell_length_b       6.145976656422404
_cell_length_c       6.57769250869751
_cell_angle_alpha    89.95815668492914
_cell_angle_beta     89.88644441147053
_cell_angle_gamma    119.31012355241585

_space_group_name_H-M_alt    "P 1"
_space_group_IT_number       1

loop_
  _space_group_symop_operation_xyz
  'x, y, z'

loop_
  _atom_site_type_symbol
  _atom_site_label
  _atom_site_symmetry_multiplicity
  _atom_site_fract_x
  _atom_site_fract_y
  _atom_site_fract_z
  _atom_site_occupancy
  Cl  Cl1       1.0  0.20971761643886566  0.3681586980819702  0.5039420127868652  1.0000
  Eu  Eu1       1.0  0.080215685069561  0.5305672883987427  0.9883341193199158  1.0000
  Eu  Eu2       1.0  0.7248667478561401  0.8722774386405945  0.2712854743003845  1.0000
  Ge  Ge1       1.0  0.08027058839797974  0.0196981281042099  0.9433079957962037  1.0000
  Hf  Hf1       1.0  0.4881327450275421  0.2242322862148285  0.7866902947425841  1.0000
  Pd  Pd1       1.0  0.41042444109916687  0.20812706649303436  0.2173839658498764  1.0000
  Pd  Pd2       1.0  0.7308508157730103  0.8666204810142517  0.7047110795974731  1.0000
  Ta  Ta1       1.0  0.17099180817604065  0.8818560838699341  0.510565996170044  1.0000
  Te  Te1       1.0  0.770065426826477  0.4804006516933441  0.49919018149375916  1.0000
