data_image0
_chemical_formula_structural       CoErEuLiMoNpTc2Zr
_chemical_formula_sum              "Co1 Er1 Eu1 Li1 Mo1 Np1 Tc2 Zr1"
_cell_length_a       5.577894560049547
_cell_length_b       5.5852356701938985
_cell_length_c       7.561979293823242
_cell_angle_alpha    68.2362296419691
_cell_angle_beta     68.08947843872018
_cell_angle_gamma    59.94647444794221

_space_group_name_H-M_alt    "P 1"
_space_group_IT_number       1

loop_
  _space_group_symop_operation_xyz
  'x, y, z'

loop_
  _atom_site_type_symbol
  _atom_site_label
  _atom_site_symmetry_multiplicity
  _atom_site_fract_x
  _atom_site_fract_y
  _atom_site_fract_z
  _atom_site_occupancy
  Co  Co1       1.0  0.4748256802558899  0.42591845989227295  0.8026826977729798  1.0000
  Er  Er1       1.0  0.5133624076843262  0.9991014003753662  0.7191469669342041  1.0000
  Eu  Eu1       1.0  0.25927168130874634  0.7651472091674805  0.45404985547065735  1.0000
  Li  Li1       1.0  0.17379087209701538  0.6931094527244568  0.03341161087155341  1.0000
  Mo  Mo1       1.0  0.9354286193847656  0.425552636384964  0.8123040199279784  1.0000
  Np  Np1       1.0  0.9129501581192017  0.40239593386650085  0.4591928720474243  1.0000
  Tc  Tc1       1.0  0.20146620273590088  0.18467621505260468  0.09076791256666183  1.0000
  Tc  Tc2       1.0  0.7091387510299683  0.6980140209197998  0.08955258876085283  1.0000
  Zr  Zr1       1.0  0.6532050967216492  0.17224611341953278  0.18297263979911804  1.0000
