data_image0
_chemical_formula_structural       Nb3Pd3Tc3
_chemical_formula_sum              "Nb3 Pd3 Tc3"
_cell_length_a       3.4633905133003924
_cell_length_b       6.916056177234149
_cell_length_c       6.922536373138428
_cell_angle_alpha    119.8181094132436
_cell_angle_beta     89.94931670840167
_cell_angle_gamma    90.17548557496198

_space_group_name_H-M_alt    "P 1"
_space_group_IT_number       1

loop_
  _space_group_symop_operation_xyz
  'x, y, z'

loop_
  _atom_site_type_symbol
  _atom_site_label
  _atom_site_symmetry_multiplicity
  _atom_site_fract_x
  _atom_site_fract_y
  _atom_site_fract_z
  _atom_site_occupancy
  Nb  Nb1       1.0  0.7264086604118347  0.34482237696647644  0.5489577054977417  1.0000
  Nb  Nb2       1.0  0.7264094352722168  0.5502724051475525  0.15165548026561737  1.0000
  Nb  Nb3       1.0  0.7278194427490234  0.9447622299194336  0.7598348259925842  1.0000
  Pd  Pd1       1.0  0.22480303049087524  0.2742980420589447  0.8179314136505126  1.0000
  Pd  Pd2       1.0  0.22724495828151703  0.6221258044242859  0.4838932454586029  1.0000
  Pd  Pd3       1.0  0.7246359586715698  0.947719156742096  0.1519162505865097  1.0000
  Tc  Tc1       1.0  0.2256152480840683  0.6912062168121338  0.8911981582641602  1.0000
  Tc  Tc2       1.0  0.2242639660835266  0.9482743740081787  0.4119398593902588  1.0000
  Tc  Tc3       1.0  0.2271573841571808  0.20207427442073822  0.15427301824092865  1.0000
