data_image0
_chemical_formula_structural       Cd4H3SeW
_chemical_formula_sum              "Cd4 H3 Se1 W1"
_cell_length_a       4.924524129935142
_cell_length_b       5.074942391307068
_cell_length_c       9.47750473022461
_cell_angle_alpha    96.74126326522125
_cell_angle_beta     89.00200355825629
_cell_angle_gamma    100.87796432872456

_space_group_name_H-M_alt    "P 1"
_space_group_IT_number       1

loop_
  _space_group_symop_operation_xyz
  'x, y, z'

loop_
  _atom_site_type_symbol
  _atom_site_label
  _atom_site_symmetry_multiplicity
  _atom_site_fract_x
  _atom_site_fract_y
  _atom_site_fract_z
  _atom_site_occupancy
  Cd  Cd1       1.0  0.414478063583374  0.1826646476984024  0.7841021418571472  1.0000
  Cd  Cd2       1.0  0.16000154614448547  0.8431983590126038  0.5490190982818604  1.0000
  Cd  Cd3       1.0  0.543621838092804  0.07236327230930328  0.062405314296483994  1.0000
  Cd  Cd4       1.0  0.8747912049293517  0.7914339303970337  0.8104230165481567  1.0000
  H   H1        1.0  0.5394557118415833  0.7693071365356445  0.048778269439935684  1.0000
  H   H2        1.0  0.7267791032791138  0.17429500818252563  0.55564284324646  1.0000
  H   H3        1.0  0.49860563874244684  0.3121850788593292  0.8106069564819336  1.0000
  Se  Se1       1.0  0.14813897013664246  0.04358331486582756  0.29029798507690435  1.0000
  W   W1        1.0  0.5327649712562561  0.5511782765388489  0.8382717370986938  1.0000
