data_image0
_chemical_formula_structural       Cd4H3UW
_chemical_formula_sum              "Cd4 H3 U1 W1"
_cell_length_a       4.477854710057792
_cell_length_b       5.313551828632352
_cell_length_c       9.15585708618164
_cell_angle_alpha    90.13859900670603
_cell_angle_beta     90.84859802500208
_cell_angle_gamma    98.44265985610888

_space_group_name_H-M_alt    "P 1"
_space_group_IT_number       1

loop_
  _space_group_symop_operation_xyz
  'x, y, z'

loop_
  _atom_site_type_symbol
  _atom_site_label
  _atom_site_symmetry_multiplicity
  _atom_site_fract_x
  _atom_site_fract_y
  _atom_site_fract_z
  _atom_site_occupancy
  Cd  Cd1       1.0  0.23248764872550964  0.2738383710384369  0.6915484666824341  1.0000
  Cd  Cd2       1.0  0.22758495807647705  0.08357810974121094  0.46201783418655396  1.0000
  Cd  Cd3       1.0  0.7442677021026611  0.2938194274902344  0.15814176201820374  1.0000
  Cd  Cd4       1.0  0.26123717427253723  0.2700400948524475  0.36144715547561646  1.0000
  H   H1        1.0  0.9104915857315063  0.5746404528617859  0.49887749552726746  1.0000
  H   H2        1.0  0.5544195771217346  0.7839837074279785  0.6568452715873718  1.0000
  H   H3        1.0  0.585812509059906  0.7648314833641052  0.6046382784843445  1.0000
  U   U1        1.0  0.7640743851661682  0.4897825121879577  0.21831436455249786  1.0000
  W   W1        1.0  0.7520620226860046  0.10094282031059265  0.2626512944698334  1.0000
