data_image0
_chemical_formula_structural       Mo3P2S
_chemical_formula_sum              "Mo3 P2 S1"
_cell_length_a       5.251260946206715
_cell_length_b       5.119439088736545
_cell_length_c       7.184118270874023
_cell_angle_alpha    107.96761192732147
_cell_angle_beta     90.65898723751955
_cell_angle_gamma    96.56173184855996

_space_group_name_H-M_alt    "P 1"
_space_group_IT_number       1

loop_
  _space_group_symop_operation_xyz
  'x, y, z'

loop_
  _atom_site_type_symbol
  _atom_site_label
  _atom_site_symmetry_multiplicity
  _atom_site_fract_x
  _atom_site_fract_y
  _atom_site_fract_z
  _atom_site_occupancy
  Mo  Mo1       1.0  0.40927267074584966  0.7308900356292725  0.4570738673210144  1.0000
  Mo  Mo2       1.0  0.9308921098709108  0.23070061206817627  0.023282386362552643  1.0000
  Mo  Mo3       1.0  0.43442666530609136  0.22521308064460754  0.5225182175636292  1.0000
  P   P1        1.0  0.42592173814773565  0.6181755661964417  0.7911720275878906  1.0000
  P   P2        1.0  0.7800542116165161  0.7433980703353882  0.008930298499763012  1.0000
  S   S1        1.0  0.9206273555755616  0.4685266613960266  0.5140401721000671  1.0000
