data_image0
_chemical_formula_structural       Nb2S2Sb4Sc2
_chemical_formula_sum              "Nb2 S2 Sb4 Sc2"
_cell_length_a       6.165625913815756
_cell_length_b       6.995738022618444
_cell_length_c       8.316301345825195
_cell_angle_alpha    73.14906280534052
_cell_angle_beta     69.1786087925704
_cell_angle_gamma    64.15024252863294

_space_group_name_H-M_alt    "P 1"
_space_group_IT_number       1

loop_
  _space_group_symop_operation_xyz
  'x, y, z'

loop_
  _atom_site_type_symbol
  _atom_site_label
  _atom_site_symmetry_multiplicity
  _atom_site_fract_x
  _atom_site_fract_y
  _atom_site_fract_z
  _atom_site_occupancy
  Nb  Nb1       1.0  0.246146559715271  0.7139325737953186  0.45755523443222046  1.0000
  Nb  Nb2       1.0  0.8029059171676636  0.3640487492084503  0.671238899230957  1.0000
  S   S1        1.0  0.07379033416509628  0.09949874132871628  0.15995314717292786  1.0000
  S   S2        1.0  0.9694933891296387  0.6599419713020325  0.454434871673584  1.0000
  Sb  Sb1       1.0  0.03228913992643356  0.41752538084983826  0.5180866718292236  1.0000
  Sb  Sb2       1.0  0.8083759546279907  0.9318124055862427  0.9950019717216492  1.0000
  Sb  Sb3       1.0  0.5272356271743774  0.31579145789146423  0.08303865045309067  1.0000
  Sb  Sb4       1.0  0.5318571925163269  0.8224735260009766  0.7653549909591675  1.0000
  Sc  Sc1       1.0  0.3960111737251282  0.17256376147270203  0.13498185575008392  1.0000
  Sc  Sc2       1.0  0.7907283306121826  0.9420332312583923  0.9200214147567749  1.0000
