data_image0
_chemical_formula_structural       Nb3S2Sb4Sc
_chemical_formula_sum              "Nb3 S2 Sb4 Sc1"
_cell_length_a       4.16658256842846
_cell_length_b       7.113228794853959
_cell_length_c       7.684445858001709
_cell_angle_alpha    97.17546678771646
_cell_angle_beta     90.15253839883628
_cell_angle_gamma    89.55932519612556

_space_group_name_H-M_alt    "P 1"
_space_group_IT_number       1

loop_
  _space_group_symop_operation_xyz
  'x, y, z'

loop_
  _atom_site_type_symbol
  _atom_site_label
  _atom_site_symmetry_multiplicity
  _atom_site_fract_x
  _atom_site_fract_y
  _atom_site_fract_z
  _atom_site_occupancy
  Nb  Nb1       1.0  0.39199376106262207  0.4105897545814514  0.031615231186151505  1.0000
  Nb  Nb2       1.0  0.8571323752403259  0.3822970390319824  0.3069801330566406  1.0000
  Nb  Nb3       1.0  0.3781111240386963  0.6904866099357605  0.38031274080276484  1.0000
  S   S1        1.0  0.8690569400787354  0.7328810691833496  0.6044034361839294  1.0000
  S   S2        1.0  0.855634331703186  0.7239951491355896  0.6037188768386841  1.0000
  Sb  Sb1       1.0  0.385092169046402  0.40852808952331543  0.5899625420570374  1.0000
  Sb  Sb2       1.0  0.8928335309028625  0.18076391518115997  0.5367061495780945  1.0000
  Sb  Sb3       1.0  0.37137526273727417  0.18656614422798157  0.19635809957981107  1.0000
  Sb  Sb4       1.0  0.3792451024055481  0.6979835033416748  0.5741691589355469  1.0000
  Sc  Sc1       1.0  0.3802836835384369  0.923075258731842  0.21392662823200223  1.0000
