data_image0
_chemical_formula_structural       Nb2S2Sb6
_chemical_formula_sum              "Nb2 S2 Sb6"
_cell_length_a       5.443278554870441
_cell_length_b       7.367719822661722
_cell_length_c       8.343733787536621
_cell_angle_alpha    92.38518531849493
_cell_angle_beta     90.7156721356497
_cell_angle_gamma    88.32050449268851

_space_group_name_H-M_alt    "P 1"
_space_group_IT_number       1

loop_
  _space_group_symop_operation_xyz
  'x, y, z'

loop_
  _atom_site_type_symbol
  _atom_site_label
  _atom_site_symmetry_multiplicity
  _atom_site_fract_x
  _atom_site_fract_y
  _atom_site_fract_z
  _atom_site_occupancy
  Nb  Nb1       1.0  0.336485892534256  0.8691147565841676  0.4331968128681183  1.0000
  Nb  Nb2       1.0  0.06313327699899673  0.8914454579353334  0.9856756329536438  1.0000
  S   S1        1.0  0.9923334717750549  0.5212859511375427  0.09702663123607635  1.0000
  S   S2        1.0  0.9225171208381653  0.12490030378103258  0.9361029267311096  1.0000
  Sb  Sb1       1.0  0.6203625202178955  0.1521512866020203  0.9981874227523804  1.0000
  Sb  Sb2       1.0  0.42829084396362305  0.5261709094047546  0.01797912456095219  1.0000
  Sb  Sb3       1.0  0.32752424478530884  0.8666679859161378  0.19802452623844147  1.0000
  Sb  Sb4       1.0  0.6101607084274292  0.1522890627384186  0.9452513456344604  1.0000
  Sb  Sb5       1.0  0.5950239300727844  0.8045255541801454  0.838118314743042  1.0000
  Sb  Sb6       1.0  0.3352215588092804  0.44051975011825567  0.6566816568374634  1.0000
