data_image0
_chemical_formula_structural       Nb2S3Sb5
_chemical_formula_sum              "Nb2 S3 Sb5"
_cell_length_a       4.629590356990714
_cell_length_b       6.237033995402925
_cell_length_c       8.252707481384277
_cell_angle_alpha    91.78168112560215
_cell_angle_beta     93.15036425711759
_cell_angle_gamma    92.51453067219067

_space_group_name_H-M_alt    "P 1"
_space_group_IT_number       1

loop_
  _space_group_symop_operation_xyz
  'x, y, z'

loop_
  _atom_site_type_symbol
  _atom_site_label
  _atom_site_symmetry_multiplicity
  _atom_site_fract_x
  _atom_site_fract_y
  _atom_site_fract_z
  _atom_site_occupancy
  Nb  Nb1       1.0  0.29545071721076965  0.5899127125740051  0.3071582019329071  1.0000
  Nb  Nb2       1.0  0.7898803353309631  0.5262155532836914  0.8386054635047913  1.0000
  S   S1        1.0  0.9641271233558655  0.979593813419342  0.017935186624526978  1.0000
  S   S2        1.0  0.8277585506439209  0.2139405459165573  0.9816270470619202  1.0000
  S   S3        1.0  0.8572860360145569  0.771983802318573  0.3275235891342163  1.0000
  Sb  Sb1       1.0  0.34248989820480347  0.21196526288986206  0.3386831283569336  1.0000
  Sb  Sb2       1.0  0.7867847681045532  0.6212579607963562  0.6060308814048767  1.0000
  Sb  Sb3       1.0  0.320421427488327  0.12942950427532196  0.12495246529579163  1.0000
  Sb  Sb4       1.0  0.34878185391426086  0.7141374349594116  0.13075383007526398  1.0000
  Sb  Sb5       1.0  0.3695676028728485  0.8855975866317749  0.6095255613327026  1.0000
