data_image0
_chemical_formula_structural       NbS3Sb5Sr
_chemical_formula_sum              "Nb1 S3 Sb5 Sr1"
_cell_length_a       4.72910152710431
_cell_length_b       5.920280045497596
_cell_length_c       8.75903606414795
_cell_angle_alpha    93.58436288432974
_cell_angle_beta     89.25974795531103
_cell_angle_gamma    89.64850538462635

_space_group_name_H-M_alt    "P 1"
_space_group_IT_number       1

loop_
  _space_group_symop_operation_xyz
  'x, y, z'

loop_
  _atom_site_type_symbol
  _atom_site_label
  _atom_site_symmetry_multiplicity
  _atom_site_fract_x
  _atom_site_fract_y
  _atom_site_fract_z
  _atom_site_occupancy
  Nb  Nb1       1.0  0.8876039385795593  0.09915849566459656  0.9401861429214476  1.0000
  S   S1        1.0  0.37500399351119995  0.6150891184806824  0.005263270810246468  1.0000
  S   S2        1.0  0.8313230276107788  0.6063055992126465  0.5570831894874573  1.0000
  S   S3        1.0  0.8740718960762024  0.13097833096981049  0.3160795271396637  1.0000
  Sb  Sb1       1.0  0.804183840751648  0.3614998161792755  0.13529358804225922  1.0000
  Sb  Sb2       1.0  0.36859655380249023  0.6404788494110107  0.8545993566513062  1.0000
  Sb  Sb3       1.0  0.4034775495529175  0.8659361004829407  0.40103715658187866  1.0000
  Sb  Sb4       1.0  0.3403622806072235  0.37208670377731323  0.13737286627292633  1.0000
  Sb  Sb5       1.0  0.3527050018310547  0.2422078847885132  0.07564884424209595  1.0000
  Sr  Sr1       1.0  0.9001554250717163  0.3829193711280823  0.84847092628479  1.0000
