data_image0
_chemical_formula_structural       CrNbS2Sb6
_chemical_formula_sum              "Cr1 Nb1 S2 Sb6"
_cell_length_a       5.541246766600393
_cell_length_b       5.359594859689884
_cell_length_c       7.312870025634766
_cell_angle_alpha    80.90355115082025
_cell_angle_beta     81.56442465648458
_cell_angle_gamma    62.58850161273282

_space_group_name_H-M_alt    "P 1"
_space_group_IT_number       1

loop_
  _space_group_symop_operation_xyz
  'x, y, z'

loop_
  _atom_site_type_symbol
  _atom_site_label
  _atom_site_symmetry_multiplicity
  _atom_site_fract_x
  _atom_site_fract_y
  _atom_site_fract_z
  _atom_site_occupancy
  Cr  Cr1       1.0  0.5448713302612305  0.9867549538612366  0.5053917765617371  1.0000
  Nb  Nb1       1.0  0.8258736729621887  0.575160026550293  0.6591741442680359  1.0000
  S   S1        1.0  0.6916029453277588  0.45453596115112305  0.4066455066204071  1.0000
  S   S2        1.0  0.017358334735035896  0.23441894352436066  0.009008300490677357  1.0000
  Sb  Sb1       1.0  0.3308619558811188  0.19390633702278137  0.766849160194397  1.0000
  Sb  Sb2       1.0  0.46703872084617615  0.6161284446716309  0.38982900977134705  1.0000
  Sb  Sb3       1.0  0.6941863894462585  0.767782986164093  0.755419909954071  1.0000
  Sb  Sb4       1.0  0.1001729741692543  0.7916738986968994  0.8467600345611572  1.0000
  Sb  Sb5       1.0  0.23211726546287537  0.3405861258506775  0.589688777923584  1.0000
  Sb  Sb6       1.0  0.015615359880030155  0.7383728623390198  0.5239283442497253  1.0000
