data_image0
_chemical_formula_structural       LaSb5
_chemical_formula_sum              "La1 Sb5"
_cell_length_a       6.032528398021565
_cell_length_b       6.290805770036226
_cell_length_c       9.147747039794922
_cell_angle_alpha    111.73458816877674
_cell_angle_beta     102.38098253157797
_cell_angle_gamma    88.6210965775392

_space_group_name_H-M_alt    "P 1"
_space_group_IT_number       1

loop_
  _space_group_symop_operation_xyz
  'x, y, z'

loop_
  _atom_site_type_symbol
  _atom_site_label
  _atom_site_symmetry_multiplicity
  _atom_site_fract_x
  _atom_site_fract_y
  _atom_site_fract_z
  _atom_site_occupancy
  La  La1       1.0  0.16026213765144348  0.7026086449623108  0.1965188831090927  1.0000
  Sb  Sb1       1.0  0.08312814682722092  0.9711523056030273  0.6922436952590942  1.0000
  Sb  Sb2       1.0  0.40918588638305664  0.8689023852348328  0.7513778805732727  1.0000
  Sb  Sb3       1.0  0.5867786407470703  0.3685610592365265  0.6891247630119324  1.0000
  Sb  Sb4       1.0  0.5611806511878967  0.7316465973854065  0.43734097480773926  1.0000
  Sb  Sb5       1.0  0.776485025882721  0.12714561820030212  0.43924680352211  1.0000
