data_image0
_chemical_formula_structural       BLaSb4
_chemical_formula_sum              "B1 La1 Sb4"
_cell_length_a       4.529551869010707
_cell_length_b       5.027900313499324
_cell_length_c       7.564669132232666
_cell_angle_alpha    109.00184239524964
_cell_angle_beta     106.6975428218177
_cell_angle_gamma    88.92205536489213

_space_group_name_H-M_alt    "P 1"
_space_group_IT_number       1

loop_
  _space_group_symop_operation_xyz
  'x, y, z'

loop_
  _atom_site_type_symbol
  _atom_site_label
  _atom_site_symmetry_multiplicity
  _atom_site_fract_x
  _atom_site_fract_y
  _atom_site_fract_z
  _atom_site_occupancy
  B   B1        1.0  0.027422064915299416  0.521926999092102  0.39770376682281494  1.0000
  La  La1       1.0  0.38708263635635376  0.7769804000854492  0.8866673707962036  1.0000
  Sb  Sb1       1.0  0.7101451754570007  0.1503557711839676  0.8883986473083496  1.0000
  Sb  Sb2       1.0  0.3825207054615021  0.7842648029327393  0.37257224321365356  1.0000
  Sb  Sb3       1.0  0.3847440183162689  0.2833150625228882  0.3950851559638977  1.0000
  Sb  Sb4       1.0  0.8830037117004395  0.2802359163761139  0.3942417502403259  1.0000
