data_image0
_chemical_formula_structural       Sb6
_chemical_formula_sum              "Sb6"
_cell_length_a       5.6355675787492245
_cell_length_b       5.696501526622511
_cell_length_c       10.391432762145996
_cell_angle_alpha    90.64145127734396
_cell_angle_beta     90.59057215066248
_cell_angle_gamma    90.68636268158026

_space_group_name_H-M_alt    "P 1"
_space_group_IT_number       1

loop_
  _space_group_symop_operation_xyz
  'x, y, z'

loop_
  _atom_site_type_symbol
  _atom_site_label
  _atom_site_symmetry_multiplicity
  _atom_site_fract_x
  _atom_site_fract_y
  _atom_site_fract_z
  _atom_site_occupancy
  Sb  Sb1       1.0  0.6909433007240295  0.5743560194969177  0.4075098633766175  1.0000
  Sb  Sb2       1.0  0.22243154048919675  0.571986973285675  0.8273180127143861  1.0000
  Sb  Sb3       1.0  0.7263596057891846  0.5730450749397278  0.7574368715286255  1.0000
  Sb  Sb4       1.0  0.6265484690666199  0.07666511833667755  0.019316362217068672  1.0000
  Sb  Sb5       1.0  0.2088198512792587  0.7951063513755798  0.032604437321424484  1.0000
  Sb  Sb6       1.0  0.6404945850372314  0.06698299199342728  0.25516077876091003  1.0000
