data_image0
_chemical_formula_structural       LaSb5
_chemical_formula_sum              "La1 Sb5"
_cell_length_a       4.473261557125199
_cell_length_b       2.884101088518242
_cell_length_c       8.389801025390625
_cell_angle_alpha    91.9759281201578
_cell_angle_beta     87.83758909451522
_cell_angle_gamma    166.8829010609384

_space_group_name_H-M_alt    "P 1"
_space_group_IT_number       1

loop_
  _space_group_symop_operation_xyz
  'x, y, z'

loop_
  _atom_site_type_symbol
  _atom_site_label
  _atom_site_symmetry_multiplicity
  _atom_site_fract_x
  _atom_site_fract_y
  _atom_site_fract_z
  _atom_site_occupancy
  La  La1       1.0  0.5133097767829895  0.3192209303379059  0.5546857714653015  1.0000
  Sb  Sb1       1.0  0.3820265829563141  0.9124467968940735  0.07203876972198486  1.0000
  Sb  Sb2       1.0  0.993649423122406  0.40953418612480164  0.9124038219451904  1.0000
  Sb  Sb3       1.0  0.12371259182691574  0.8295632600784302  0.7991372346878052  1.0000
  Sb  Sb4       1.0  0.23015737533569336  0.49610987305641174  0.7874120473861694  1.0000
  Sb  Sb5       1.0  0.5147380232810974  0.4313046634197235  0.5466400980949402  1.0000
