data_image0
_chemical_formula_structural       Bi2Sb4
_chemical_formula_sum              "Bi2 Sb4"
_cell_length_a       4.517086797104711
_cell_length_b       4.651342209598242
_cell_length_c       10.193008422851562
_cell_angle_alpha    92.07339382743316
_cell_angle_beta     90.99298327080639
_cell_angle_gamma    92.21803689755362

_space_group_name_H-M_alt    "P 1"
_space_group_IT_number       1

loop_
  _space_group_symop_operation_xyz
  'x, y, z'

loop_
  _atom_site_type_symbol
  _atom_site_label
  _atom_site_symmetry_multiplicity
  _atom_site_fract_x
  _atom_site_fract_y
  _atom_site_fract_z
  _atom_site_occupancy
  Bi  Bi1       1.0  0.8112393021583557  0.30040401220321655  0.4076927900314331  1.0000
  Bi  Bi2       1.0  0.4464847445487976  0.9418836236000061  0.06323416531085968  1.0000
  Sb  Sb1       1.0  0.2711643576622009  0.6921830773353577  0.7106921076774597  1.0000
  Sb  Sb2       1.0  0.14192527532577515  0.4155057668685913  0.07262478768825531  1.0000
  Sb  Sb3       1.0  0.7630477547645569  0.7093060612678528  0.406159907579422  1.0000
  Sb  Sb4       1.0  0.8603891134262085  0.40027159452438354  0.8890171051025391  1.0000
