data_image0
_chemical_formula_structural       DySU6Zn
_chemical_formula_sum              "Dy1 S1 U6 Zn1"
_cell_length_a       5.324581315558096
_cell_length_b       5.66743927949181
_cell_length_c       6.0474443435668945
_cell_angle_alpha    109.44940100157238
_cell_angle_beta     88.91114515819702
_cell_angle_gamma    90.47997289024835

_space_group_name_H-M_alt    "P 1"
_space_group_IT_number       1

loop_
  _space_group_symop_operation_xyz
  'x, y, z'

loop_
  _atom_site_type_symbol
  _atom_site_label
  _atom_site_symmetry_multiplicity
  _atom_site_fract_x
  _atom_site_fract_y
  _atom_site_fract_z
  _atom_site_occupancy
  Dy  Dy1       1.0  0.09896563738584518  0.7126297950744629  0.30900606513023376  1.0000
  S   S1        1.0  0.5948646068572998  0.8292781710624695  0.09221024811267849  1.0000
  U   U1        1.0  0.5994581580162048  0.955821692943573  0.19348651170730588  1.0000
  U   U2        1.0  0.09750960022211075  0.6301606893539429  0.9538673162460326  1.0000
  U   U3        1.0  0.6032862067222595  0.4350699186325073  0.5397541522979736  1.0000
  U   U4        1.0  0.5983602404594421  0.2648226320743561  0.676348090171814  1.0000
  U   U5        1.0  0.09716679155826569  0.016483431681990623  0.2014902681112289  1.0000
  U   U6        1.0  0.6021333336830139  0.4638208746910095  0.012393768876790981  1.0000
  Zn  Zn1       1.0  0.09707710146903992  0.7095582485198975  0.7646207809448241  1.0000
