data_image0
_chemical_formula_structural       Gd2S3U4
_chemical_formula_sum              "Gd2 S3 U4"
_cell_length_a       5.098593513204801
_cell_length_b       6.344713898931012
_cell_length_c       6.832965850830078
_cell_angle_alpha    122.0081253227359
_cell_angle_beta     91.0359107798227
_cell_angle_gamma    86.45619707181656

_space_group_name_H-M_alt    "P 1"
_space_group_IT_number       1

loop_
  _space_group_symop_operation_xyz
  'x, y, z'

loop_
  _atom_site_type_symbol
  _atom_site_label
  _atom_site_symmetry_multiplicity
  _atom_site_fract_x
  _atom_site_fract_y
  _atom_site_fract_z
  _atom_site_occupancy
  Gd  Gd1       1.0  0.32224851846694946  0.9563788771629333  0.7628790736198425  1.0000
  Gd  Gd2       1.0  0.8223047852516174  0.8038299083709717  0.7647867798805237  1.0000
  S   S1        1.0  0.28377464413642883  0.04837026074528694  0.17897357046604156  1.0000
  S   S2        1.0  0.8154988288879395  0.24485675990581512  0.8582533597946167  1.0000
  S   S3        1.0  0.31933993101119995  0.7979309558868408  0.2986918389797211  1.0000
  U   U1        1.0  0.3243648409843445  0.22419002652168274  0.2720133364200592  1.0000
  U   U2        1.0  0.8148158192634583  0.1305963546037674  0.7360249757766724  1.0000
  U   U3        1.0  0.8269789814949036  0.3630020320415497  0.10815649479627609  1.0000
  U   U4        1.0  0.3252008557319641  0.7228078842163086  0.44751784205436707  1.0000
