data_image0
_chemical_formula_structural       Gd3S2U4
_chemical_formula_sum              "Gd3 S2 U4"
_cell_length_a       4.8350206087433305
_cell_length_b       6.560465034676348
_cell_length_c       7.16977071762085
_cell_angle_alpha    121.16749261306713
_cell_angle_beta     91.0389997764467
_cell_angle_gamma    89.63055746527817

_space_group_name_H-M_alt    "P 1"
_space_group_IT_number       1

loop_
  _space_group_symop_operation_xyz
  'x, y, z'

loop_
  _atom_site_type_symbol
  _atom_site_label
  _atom_site_symmetry_multiplicity
  _atom_site_fract_x
  _atom_site_fract_y
  _atom_site_fract_z
  _atom_site_occupancy
  Gd  Gd1       1.0  0.4605104625225067  0.8511490225791931  0.07918056100606918  1.0000
  Gd  Gd2       1.0  0.45774713158607483  0.20662856101989746  0.16982096433639526  1.0000
  Gd  Gd3       1.0  0.4489767849445343  0.5133801698684692  0.4247839152812958  1.0000
  S   S1        1.0  0.18307903409004211  0.0438244566321373  0.7571334838867188  1.0000
  S   S2        1.0  0.9205721020698547  0.886045515537262  0.2774417996406555  1.0000
  U   U1        1.0  0.9511848092079163  0.07388389110565186  0.35100317001342773  1.0000
  U   U2        1.0  0.9653912782669067  0.3510967195034027  0.6986477375030518  1.0000
  U   U3        1.0  0.45285144448280334  0.04107515886425972  0.8594931364059447  1.0000
  U   U4        1.0  0.8689223527908325  0.967592716217041  0.34376239776611317  1.0000
