data_image0
_chemical_formula_structural       F3LuNi4PZn
_chemical_formula_sum              "F3 Lu1 Ni4 P1 Zn1"
_cell_length_a       6.255146671198909
_cell_length_b       6.4786082239377425
_cell_length_c       6.554159641265869
_cell_angle_alpha    108.39848462447165
_cell_angle_beta     106.98640672597458
_cell_angle_gamma    110.43989753228776

_space_group_name_H-M_alt    "P 1"
_space_group_IT_number       1

loop_
  _space_group_symop_operation_xyz
  'x, y, z'

loop_
  _atom_site_type_symbol
  _atom_site_label
  _atom_site_symmetry_multiplicity
  _atom_site_fract_x
  _atom_site_fract_y
  _atom_site_fract_z
  _atom_site_occupancy
  F   F1        1.0  0.49741047620773315  0.5513867735862732  0.9529858231544495  1.0000
  F   F2        1.0  0.8669686317443848  0.9257494807243347  0.6477901339530945  1.0000
  F   F3        1.0  0.8640618324279785  0.39770063757896423  0.1422681361436844  1.0000
  Lu  Lu1       1.0  0.1464242935180664  0.40614089369773865  0.29003480076789856  1.0000
  Ni  Ni1       1.0  0.710559606552124  0.9057009220123291  0.648962676525116  1.0000
  Ni  Ni2       1.0  0.455424964427948  0.646377682685852  0.5067396759986877  1.0000
  Ni  Ni3       1.0  0.6375163197517395  0.9149511456489563  0.5219427943229675  1.0000
  Ni  Ni4       1.0  0.12679387629032135  0.9108108878135681  0.2216280996799469  1.0000
  P   P1        1.0  0.37468191981315613  0.9048274159431458  0.886843740940094  1.0000
  Zn  Zn1       1.0  0.15773363411426544  0.9036660194396973  0.6678591370582581  1.0000
