data_image0
_chemical_formula_structural       F2LuNi2PbPtZn3
_chemical_formula_sum              "F2 Lu1 Ni2 Pb1 Pt1 Zn3"
_cell_length_a       5.917769511229522
_cell_length_b       6.559170330801655
_cell_length_c       6.8321051597595215
_cell_angle_alpha    63.96311978551106
_cell_angle_beta     63.036349568417855
_cell_angle_gamma    61.542849222063104

_space_group_name_H-M_alt    "P 1"
_space_group_IT_number       1

loop_
  _space_group_symop_operation_xyz
  'x, y, z'

loop_
  _atom_site_type_symbol
  _atom_site_label
  _atom_site_symmetry_multiplicity
  _atom_site_fract_x
  _atom_site_fract_y
  _atom_site_fract_z
  _atom_site_occupancy
  F   F1        1.0  0.7678621411323547  0.15042425692081451  0.3768945634365082  1.0000
  F   F2        1.0  0.27419713139533997  0.6226701140403748  0.3541553318500519  1.0000
  Lu  Lu1       1.0  0.28872302174568176  0.6173363924026489  0.32270073890686035  1.0000
  Ni  Ni1       1.0  0.018122104927897453  0.14292104542255402  0.8453841805458069  1.0000
  Ni  Ni2       1.0  0.5665208697319031  0.40544047951698303  0.3693580627441406  1.0000
  Pb  Pb1       1.0  0.5657812356948853  0.7952396869659424  0.9577409029006958  1.0000
  Pt  Pt1       1.0  0.9353166818618774  0.6895180344581604  0.3342297375202179  1.0000
  Zn  Zn1       1.0  0.7345922589302063  0.09912113845348358  0.6069446802139282  1.0000
  Zn  Zn2       1.0  0.6083642840385437  0.25958964228630066  0.0897737368941307  1.0000
  Zn  Zn3       1.0  0.08645810186862946  0.29530978202819824  0.09487145394086838  1.0000
