data_image0
_chemical_formula_structural       F3Ni5PbZn
_chemical_formula_sum              "F3 Ni5 Pb1 Zn1"
_cell_length_a       5.928106427487336
_cell_length_b       6.2964926401837396
_cell_length_c       6.327287673950195
_cell_angle_alpha    107.61551047999967
_cell_angle_beta     105.9417479437134
_cell_angle_gamma    112.44482750828601

_space_group_name_H-M_alt    "P 1"
_space_group_IT_number       1

loop_
  _space_group_symop_operation_xyz
  'x, y, z'

loop_
  _atom_site_type_symbol
  _atom_site_label
  _atom_site_symmetry_multiplicity
  _atom_site_fract_x
  _atom_site_fract_y
  _atom_site_fract_z
  _atom_site_occupancy
  F   F1        1.0  0.46610838174819946  0.44025394320487976  0.360735148191452  1.0000
  F   F2        1.0  0.45982468128204346  0.18565626442432404  0.8579567074775696  1.0000
  F   F3        1.0  0.97629451751709  0.4746948182582855  0.2424195855855942  1.0000
  Ni  Ni1       1.0  0.7703678607940674  0.17455869913101196  0.36102449893951416  1.0000
  Ni  Ni2       1.0  0.3283980190753937  0.9290733337402344  0.6075146198272705  1.0000
  Ni  Ni3       1.0  0.2055184245109558  0.5439236760139465  0.5877041816711426  1.0000
  Ni  Ni4       1.0  0.3995552957057953  0.433784157037735  0.09715896099805832  1.0000
  Ni  Ni5       1.0  0.20004884898662567  0.8187646865844727  0.10078564286231999  1.0000
  Pb  Pb1       1.0  0.7014937996864319  0.21305248141288757  0.14571547508239746  1.0000
  Zn  Zn1       1.0  0.8559857606887817  0.5444803833961487  0.015573957003653051  1.0000
