data_image0
_chemical_formula_structural       FLuNbNi4PPbY
_chemical_formula_sum              "F1 Lu1 Nb1 Ni4 P1 Pb1 Y1"
_cell_length_a       5.618643403343077
_cell_length_b       6.6633597234406245
_cell_length_c       6.847873210906982
_cell_angle_alpha    113.81117884181182
_cell_angle_beta     95.7572536963245
_cell_angle_gamma    107.53208384544872

_space_group_name_H-M_alt    "P 1"
_space_group_IT_number       1

loop_
  _space_group_symop_operation_xyz
  'x, y, z'

loop_
  _atom_site_type_symbol
  _atom_site_label
  _atom_site_symmetry_multiplicity
  _atom_site_fract_x
  _atom_site_fract_y
  _atom_site_fract_z
  _atom_site_occupancy
  F   F1        1.0  0.6424530148506165  0.2336735874414444  0.27722060680389404  1.0000
  Lu  Lu1       1.0  0.8973844647407532  0.03533542528748512  0.7856521606445312  1.0000
  Nb  Nb1       1.0  0.41455140709877014  0.19941337406635284  0.9722573757171631  1.0000
  Ni  Ni1       1.0  0.15005193650722504  0.45807111263275146  0.6132004857063293  1.0000
  Ni  Ni2       1.0  0.507169246673584  0.562276303768158  0.8855977654457092  1.0000
  Ni  Ni3       1.0  0.6272222995758057  0.5579462051391602  0.2942194938659668  1.0000
  Ni  Ni4       1.0  0.897797167301178  0.5432816743850708  0.39820846915245056  1.0000
  P   P1        1.0  0.4045073986053467  0.8300992250442505  0.2264640033245086  1.0000
  Pb  Pb1       1.0  0.8957468867301941  0.8127857446670532  0.7865039110183716  1.0000
  Y   Y1        1.0  0.2727987766265869  0.7054236531257629  0.9763018488883972  1.0000
