data_image0
_chemical_formula_structural       F5NiPb4
_chemical_formula_sum              "F5 Ni1 Pb4"
_cell_length_a       5.9386775800306
_cell_length_b       6.00024431031874
_cell_length_c       5.77788782119751
_cell_angle_alpha    60.250198442126006
_cell_angle_beta     62.054693252820066
_cell_angle_gamma    61.74050095802876

_space_group_name_H-M_alt    "P 1"
_space_group_IT_number       1

loop_
  _space_group_symop_operation_xyz
  'x, y, z'

loop_
  _atom_site_type_symbol
  _atom_site_label
  _atom_site_symmetry_multiplicity
  _atom_site_fract_x
  _atom_site_fract_y
  _atom_site_fract_z
  _atom_site_occupancy
  F   F1        1.0  0.5538168549537659  0.4707868993282318  0.8519148826599121  1.0000
  F   F2        1.0  0.06731534004211426  0.909787654876709  0.8191608786582947  1.0000
  F   F3        1.0  0.3407140374183655  0.9717959761619568  0.9830604195594788  1.0000
  F   F4        1.0  0.6304322481155396  0.7008479833602905  0.5795407295227051  1.0000
  F   F5        1.0  0.8133490681648254  0.9620654582977295  0.811639130115509  1.0000
  Ni  Ni1       1.0  0.36355477571487427  0.2513822317123413  0.3228081166744232  1.0000
  Pb  Pb1       1.0  0.33852556347846985  0.9199929237365723  0.3092089295387268  1.0000
  Pb  Pb2       1.0  0.34911951422691345  0.41963693499565125  0.5607358813285828  1.0000
  Pb  Pb3       1.0  0.8291741013526917  0.4561474323272705  0.5735030770301819  1.0000
  Pb  Pb4       1.0  0.046474531292915344  0.20549112558364868  0.4622388482093811  1.0000
