data_image0
_chemical_formula_structural       F5NiPb4
_chemical_formula_sum              "F5 Ni1 Pb4"
_cell_length_a       5.19404076625032
_cell_length_b       5.6661785258426525
_cell_length_c       5.827303409576416
_cell_angle_alpha    63.721592644131825
_cell_angle_beta     57.66997294886712
_cell_angle_gamma    50.57490818039241

_space_group_name_H-M_alt    "P 1"
_space_group_IT_number       1

loop_
  _space_group_symop_operation_xyz
  'x, y, z'

loop_
  _atom_site_type_symbol
  _atom_site_label
  _atom_site_symmetry_multiplicity
  _atom_site_fract_x
  _atom_site_fract_y
  _atom_site_fract_z
  _atom_site_occupancy
  F   F1        1.0  0.3885139226913452  0.5075541138648987  0.6673427820205688  1.0000
  F   F2        1.0  0.3900185525417328  0.05581662803888321  0.9626807570457458  1.0000
  F   F3        1.0  0.1537715196609497  0.03924345225095749  0.8496475219726562  1.0000
  F   F4        1.0  0.5833674073219299  0.537874698638916  0.1581975817680359  1.0000
  F   F5        1.0  0.9502425193786621  0.05940826237201691  0.19952718913555145  1.0000
  Ni  Ni1       1.0  0.9692068696022034  0.38864049315452576  0.8359382152557373  1.0000
  Pb  Pb1       1.0  0.6910420060157776  0.026823528110980988  0.13830177485942838  1.0000
  Pb  Pb2       1.0  0.03232837840914726  0.3794935345649719  0.36248111724853516  1.0000
  Pb  Pb3       1.0  0.6653394103050232  0.9755416512489319  0.18278314173221588  1.0000
  Pb  Pb4       1.0  0.004995465278625488  0.6540045738220215  0.16316857933998108  1.0000
