data_image0
_chemical_formula_structural       Ce2Cs2S2Sb2Sc6
_chemical_formula_sum              "Ce2 Cs2 S2 Sb2 Sc6"
_cell_length_a       4.8819525132937
_cell_length_b       8.792374825584695
_cell_length_c       10.894527435302734
_cell_angle_alpha    92.93446600612127
_cell_angle_beta     89.43460717353788
_cell_angle_gamma    89.77578465500697

_space_group_name_H-M_alt    "P 1"
_space_group_IT_number       1

loop_
  _space_group_symop_operation_xyz
  'x, y, z'

loop_
  _atom_site_type_symbol
  _atom_site_label
  _atom_site_symmetry_multiplicity
  _atom_site_fract_x
  _atom_site_fract_y
  _atom_site_fract_z
  _atom_site_occupancy
  Ce  Ce1       1.0  0.2661759555339813  0.24906094372272491  0.7156314253807068  1.0000
  Ce  Ce2       1.0  0.762481689453125  0.11096668988466263  0.9061369299888611  1.0000
  Cs  Cs1       1.0  0.26166534423828125  0.22027646005153656  0.2294299453496933  1.0000
  Cs  Cs2       1.0  0.2487793415784836  0.8744320869445801  0.15744340419769287  1.0000
  S   S1        1.0  0.7606965899467468  0.8522637486457825  0.4411974251270294  1.0000
  S   S2        1.0  0.768193781375885  0.4784402549266815  0.22242096066474915  1.0000
  Sb  Sb1       1.0  0.759404718875885  0.8300817608833313  0.5063009858131409  1.0000
  Sb  Sb2       1.0  0.26265111565589905  0.715878427028656  0.4301696717739105  1.0000
  Sc  Sc1       1.0  0.763766884803772  0.37279099225997925  0.738814115524292  1.0000
  Sc  Sc2       1.0  0.25481054186820984  0.36541250348091125  0.39493122696876526  1.0000
  Sc  Sc3       1.0  0.7559844255447388  0.4507354199886322  0.39787808060646057  1.0000
  Sc  Sc4       1.0  0.749891996383667  0.7668838500976562  0.3315355181694031  1.0000
  Sc  Sc5       1.0  0.7684969305992126  0.21524381637573242  0.31546393036842346  1.0000
  Sc  Sc6       1.0  0.7756074666976929  0.9474602937698364  0.17142009735107422  1.0000
