data_image0
_chemical_formula_structural       Ce4Cs2NiSSc6
_chemical_formula_sum              "Ce4 Cs2 Ni1 S1 Sc6"
_cell_length_a       4.614872725296223
_cell_length_b       8.55796087361606
_cell_length_c       9.668222427368164
_cell_angle_alpha    100.10402227946346
_cell_angle_beta     90.77246750439065
_cell_angle_gamma    90.05892673118046

_space_group_name_H-M_alt    "P 1"
_space_group_IT_number       1

loop_
  _space_group_symop_operation_xyz
  'x, y, z'

loop_
  _atom_site_type_symbol
  _atom_site_label
  _atom_site_symmetry_multiplicity
  _atom_site_fract_x
  _atom_site_fract_y
  _atom_site_fract_z
  _atom_site_occupancy
  Ce  Ce1       1.0  0.06929508596658707  0.7227296233177185  0.07746381312608722  1.0000
  Ce  Ce2       1.0  0.05994708091020584  0.29659947752952576  0.33366328477859497  1.0000
  Ce  Ce3       1.0  0.5528388619422913  0.1566435843706131  0.9103692173957825  1.0000
  Ce  Ce4       1.0  0.05520697683095932  0.024895502254366875  0.11370531469583511  1.0000
  Cs  Cs1       1.0  0.052880920469760895  0.15439367294311523  0.5333936214447021  1.0000
  Cs  Cs2       1.0  0.07440172135829926  0.6364002823829651  0.4257637560367584  1.0000
  Ni  Ni1       1.0  0.07106591761112213  0.6401693820953369  0.7322141528129578  1.0000
  S   S1        1.0  0.5654722452163696  0.018063832074403763  0.42021963000297546  1.0000
  Sc  Sc1       1.0  0.5580700635910034  0.13861410319805145  0.08392632007598877  1.0000
  Sc  Sc2       1.0  0.562820553779602  0.648925244808197  0.8379823565483093  1.0000
  Sc  Sc3       1.0  0.5555939078330994  0.48542386293411255  0.4004305601119995  1.0000
  Sc  Sc4       1.0  0.06672586500644684  0.49049830436706543  0.6222855448722839  1.0000
  Sc  Sc5       1.0  0.060558948665857315  0.31312096118927  0.9381719827651978  1.0000
  Sc  Sc6       1.0  0.5516051054000854  0.16775839030742645  0.8430178165435791  1.0000
