data_image0
_chemical_formula_structural       Ce2MnRhS2Sb3Sc5
_chemical_formula_sum              "Ce2 Mn1 Rh1 S2 Sb3 Sc5"
_cell_length_a       5.471080059947767
_cell_length_b       9.379837807792166
_cell_length_c       9.705826759338379
_cell_angle_alpha    118.69756165267249
_cell_angle_beta     90.33955755283124
_cell_angle_gamma    89.97646402833294

_space_group_name_H-M_alt    "P 1"
_space_group_IT_number       1

loop_
  _space_group_symop_operation_xyz
  'x, y, z'

loop_
  _atom_site_type_symbol
  _atom_site_label
  _atom_site_symmetry_multiplicity
  _atom_site_fract_x
  _atom_site_fract_y
  _atom_site_fract_z
  _atom_site_occupancy
  Ce  Ce1       1.0  0.3432985842227936  0.03114282712340355  0.5928725600242615  1.0000
  Ce  Ce2       1.0  0.6532505750656128  0.05402654781937599  0.6879841089248657  1.0000
  Mn  Mn1       1.0  0.6403825283050537  0.8048456907272339  0.9285102486610411  1.0000
  Rh  Rh1       1.0  0.15371277928352356  0.3486323058605194  0.17291918396949765  1.0000
  S   S1        1.0  0.6641292572021484  0.229938805103302  0.7226331233978271  1.0000
  S   S2        1.0  0.15136702358722687  0.30242323875427246  0.07954995334148404  1.0000
  Sb  Sb1       1.0  0.6496079564094543  0.608876645565033  0.18258422613143915  1.0000
  Sb  Sb2       1.0  0.1623913049697876  0.33770012855529785  0.49905171990394587  1.0000
  Sb  Sb3       1.0  0.13536567986011505  0.7294926047325134  0.6812630891799927  1.0000
  Sc  Sc1       1.0  0.6589580178260803  0.7007925510406494  0.16810320317745203  1.0000
  Sc  Sc2       1.0  0.1473996788263321  0.5707066655158997  0.16270233690738672  1.0000
  Sc  Sc3       1.0  0.6315068006515503  0.5143634080886841  0.3081808388233184  1.0000
  Sc  Sc4       1.0  0.15217727422714233  0.7138743996620178  0.9147532582283019  1.0000
  Sc  Sc5       1.0  0.6508407592773438  0.030711326748132706  0.7311847805976868  1.0000
