data_image0
_chemical_formula_structural       BrCe4Cr2Ga2IrMnReSTb
_chemical_formula_sum              "Br1 Ce4 Cr2 Ga2 Ir1 Mn1 Re1 S1 Tb1"
_cell_length_a       5.943525468932664
_cell_length_b       8.82515118600457
_cell_length_c       9.011836051940918
_cell_angle_alpha    119.1458345167521
_cell_angle_beta     88.94166897135571
_cell_angle_gamma    90.47186597932577

_space_group_name_H-M_alt    "P 1"
_space_group_IT_number       1

loop_
  _space_group_symop_operation_xyz
  'x, y, z'

loop_
  _atom_site_type_symbol
  _atom_site_label
  _atom_site_symmetry_multiplicity
  _atom_site_fract_x
  _atom_site_fract_y
  _atom_site_fract_z
  _atom_site_occupancy
  Br  Br1       1.0  0.49343183636665344  0.4856413006782532  0.025448903441429138  1.0000
  Ce  Ce1       1.0  0.7532397508621216  0.7554948329925537  0.8323454260826111  1.0000
  Ce  Ce2       1.0  0.5137890577316284  0.13539117574691772  0.3930741250514984  1.0000
  Ce  Ce3       1.0  0.4886815547943115  0.9731622338294983  0.9026280045509338  1.0000
  Ce  Ce4       1.0  0.7580559849739075  0.9845339059829712  0.12041675299406063  1.0000
  Cr  Cr1       1.0  0.010928135365247726  0.0824318379163742  0.34410780668258667  1.0000
  Cr  Cr2       1.0  0.24690258502960205  0.7644985318183899  0.8519124388694763  1.0000
  Ga  Ga1       1.0  0.5091374516487122  0.42328667640686035  0.4030097424983978  1.0000
  Ga  Ga2       1.0  0.7273274660110474  0.7483451962471008  0.6386746764183044  1.0000
  Ir  Ir1       1.0  0.979780912399292  0.4879368543624878  0.2791525423526764  1.0000
  Mn  Mn1       1.0  0.5059248208999634  0.27643582224845886  0.7327249646186829  1.0000
  Re  Re1       1.0  0.9791139960289001  0.6507341861724854  0.6836211681365967  1.0000
  S   S1        1.0  0.9829985499382019  0.25716233253479004  0.7520162463188171  1.0000
  Tb  Tb1       1.0  0.2578389048576355  0.4418306052684784  0.45066729187965393  1.0000
