data_image0
_chemical_formula_structural       CeMnNiS2Sb2Sc7
_chemical_formula_sum              "Ce1 Mn1 Ni1 S2 Sb2 Sc7"
_cell_length_a       6.952837942064361
_cell_length_b       8.216944927875058
_cell_length_c       9.022780418395996
_cell_angle_alpha    71.80717425737241
_cell_angle_beta     68.2974514345211
_cell_angle_gamma    66.87139203014584

_space_group_name_H-M_alt    "P 1"
_space_group_IT_number       1

loop_
  _space_group_symop_operation_xyz
  'x, y, z'

loop_
  _atom_site_type_symbol
  _atom_site_label
  _atom_site_symmetry_multiplicity
  _atom_site_fract_x
  _atom_site_fract_y
  _atom_site_fract_z
  _atom_site_occupancy
  Ce  Ce1       1.0  0.5257338881492615  0.7012438178062438  0.844007134437561  1.0000
  Mn  Mn1       1.0  0.7157832384109497  0.38865372538566584  0.9471173882484436  1.0000
  Ni  Ni1       1.0  0.34863829612731934  0.6517926454544066  0.7309873700141907  1.0000
  S   S1        1.0  0.500887930393219  0.6295365095138549  0.5893111228942871  1.0000
  S   S2        1.0  0.8234277367591858  0.15147382020950315  0.4269302189350128  1.0000
  Sb  Sb1       1.0  0.5145580172538757  0.3264738023281097  0.8943061828613281  1.0000
  Sb  Sb2       1.0  0.13976210355758675  0.8521874547004699  0.3898319900035858  1.0000
  Sc  Sc1       1.0  0.4962289929389954  0.6228114962577819  0.10742054134607315  1.0000
  Sc  Sc2       1.0  0.32388392090797424  0.06860682368278503  0.9073895215988159  1.0000
  Sc  Sc3       1.0  0.8840349912643433  0.22089047729969022  0.9055262207984924  1.0000
  Sc  Sc4       1.0  0.2979808449745179  0.6264580488204955  0.40669170022010803  1.0000
  Sc  Sc5       1.0  0.8709739446640015  0.8427273631095885  0.5925174951553345  1.0000
  Sc  Sc6       1.0  0.5986290574073792  0.203651487827301  0.6107738614082336  1.0000
  Sc  Sc7       1.0  0.30981436371803284  0.3556016087532043  0.8571428656578064  1.0000
