data_image0
_chemical_formula_structural       BrCe4CrGa2Mn2ReRhSSb
_chemical_formula_sum              "Br1 Ce4 Cr1 Ga2 Mn2 Re1 Rh1 S1 Sb1"
_cell_length_a       7.20732914623967
_cell_length_b       8.349864291357061
_cell_length_c       8.504626274108887
_cell_angle_alpha    118.82587478075244
_cell_angle_beta     114.39525871548429
_cell_angle_gamma    90.32807997404005

_space_group_name_H-M_alt    "P 1"
_space_group_IT_number       1

loop_
  _space_group_symop_operation_xyz
  'x, y, z'

loop_
  _atom_site_type_symbol
  _atom_site_label
  _atom_site_symmetry_multiplicity
  _atom_site_fract_x
  _atom_site_fract_y
  _atom_site_fract_z
  _atom_site_occupancy
  Br  Br1       1.0  0.9708082675933839  0.06459301710128784  0.6279458403587341  1.0000
  Ce  Ce1       1.0  0.4778617918491364  0.0026160660199820995  0.7401164770126343  1.0000
  Ce  Ce2       1.0  0.20076462626457214  0.5989180207252502  0.22570601105689997  1.0000
  Ce  Ce3       1.0  0.16459815204143524  0.09405406564474106  0.737379789352417  1.0000
  Ce  Ce4       1.0  0.9713858366012574  0.4597139060497284  0.352084755897522  1.0000
  Cr  Cr1       1.0  0.13081598281860352  0.9338789582252502  0.06142716854810715  1.0000
  Ga  Ga1       1.0  0.9142493009567262  0.7364912033081055  0.8740540146827698  1.0000
  Ga  Ga2       1.0  0.664435088634491  0.5729327201843262  0.8744685053825378  1.0000
  Mn  Mn1       1.0  0.8425075411796571  0.4534567892551422  0.471748024225235  1.0000
  Mn  Mn2       1.0  0.9667557477951051  0.5536498427391052  0.38138100504875183  1.0000
  Re  Re1       1.0  0.3492516577243805  0.5030187368392944  0.4097328782081604  1.0000
  Rh  Rh1       1.0  0.9733670353889466  0.04020315781235695  0.7093980312347412  1.0000
  S   S1        1.0  0.006433254107832892  0.49736237525939936  0.8933553695678711  1.0000
  Sb  Sb1       1.0  0.46431893110275274  0.5440455675125122  0.3395845890045166  1.0000
