data_image0
_chemical_formula_structural       Cr4CsF2KSc
_chemical_formula_sum              "Cr4 Cs1 F2 K1 Sc1"
_cell_length_a       5.588280239019297
_cell_length_b       5.900116808748246
_cell_length_c       8.400510787963867
_cell_angle_alpha    88.77969501847126
_cell_angle_beta     90.87643394719392
_cell_angle_gamma    115.89411622929569

_space_group_name_H-M_alt    "P 1"
_space_group_IT_number       1

loop_
  _space_group_symop_operation_xyz
  'x, y, z'

loop_
  _atom_site_type_symbol
  _atom_site_label
  _atom_site_symmetry_multiplicity
  _atom_site_fract_x
  _atom_site_fract_y
  _atom_site_fract_z
  _atom_site_occupancy
  Cr  Cr1       1.0  0.48347100615501404  0.5818454623222351  0.04864657670259476  1.0000
  Cr  Cr2       1.0  0.9819509983062744  0.058760851621627815  0.942012369632721  1.0000
  Cr  Cr3       1.0  0.2521291673183441  0.7415004372596741  0.7262420654296876  1.0000
  Cr  Cr4       1.0  0.2219266742467881  0.8557578325271608  0.3842241168022156  1.0000
  Cs  Cs1       1.0  0.24608007073402405  0.1854054480791092  0.7147456407546997  1.0000
  F   F1        1.0  0.7764595746994019  0.5405200719833374  0.5505648851394653  1.0000
  F   F2        1.0  0.5894298553466798  0.8670541048049928  0.20821672677993774  1.0000
  K   K1        1.0  0.9072572588920593  0.8447370529174806  0.4400704801082611  1.0000
  Sc  Sc1       1.0  0.8740914463996887  0.35384222865104675  0.3451063632965088  1.0000
