data_image0
_chemical_formula_structural       Cr2F2K4Sc
_chemical_formula_sum              "Cr2 F2 K4 Sc1"
_cell_length_a       6.0640251493242365
_cell_length_b       6.781931260452809
_cell_length_c       8.297463417053223
_cell_angle_alpha    100.1878830884371
_cell_angle_beta     88.82623560370101
_cell_angle_gamma    112.96881542610623

_space_group_name_H-M_alt    "P 1"
_space_group_IT_number       1

loop_
  _space_group_symop_operation_xyz
  'x, y, z'

loop_
  _atom_site_type_symbol
  _atom_site_label
  _atom_site_symmetry_multiplicity
  _atom_site_fract_x
  _atom_site_fract_y
  _atom_site_fract_z
  _atom_site_occupancy
  Cr  Cr1       1.0  0.9029937982559204  0.3197653293609619  0.6097652912139893  1.0000
  Cr  Cr2       1.0  0.8975858688354492  0.8155301213264464  0.3646056354045868  1.0000
  F   F1        1.0  0.41877752542495716  0.8155727982521056  0.9300466775894165  1.0000
  F   F2        1.0  0.24160142242908472  0.4263263046741485  0.6287854313850403  1.0000
  K   K1        1.0  0.9071199893951416  0.3346841931343078  0.021878670901060104  1.0000
  K   K2        1.0  0.41321706771850586  0.33204722404479975  0.8632969856262207  1.0000
  K   K3        1.0  0.25180158019065846  0.832632541656494  0.13354720175266266  1.0000
  K   K4        1.0  0.9250664710998535  0.8301334977149962  0.599047839641571  1.0000
  Sc  Sc1       1.0  0.6091198325157166  0.5119931101799011  0.09123148769140244  1.0000
