data_image0
_chemical_formula_structural       Cr5F3K
_chemical_formula_sum              "Cr5 F3 K1"
_cell_length_a       5.109068083555905
_cell_length_b       5.75804590349782
_cell_length_c       7.039441108703613
_cell_angle_alpha    91.03527983914265
_cell_angle_beta     88.49780339370842
_cell_angle_gamma    115.60154865506011

_space_group_name_H-M_alt    "P 1"
_space_group_IT_number       1

loop_
  _space_group_symop_operation_xyz
  'x, y, z'

loop_
  _atom_site_type_symbol
  _atom_site_label
  _atom_site_symmetry_multiplicity
  _atom_site_fract_x
  _atom_site_fract_y
  _atom_site_fract_z
  _atom_site_occupancy
  Cr  Cr1       1.0  0.20943716168403625  0.08814088255167007  0.3029311001300812  1.0000
  Cr  Cr2       1.0  0.7873546481132507  0.08493825793266296  0.29221057891845703  1.0000
  Cr  Cr3       1.0  0.4830048084259033  0.037163782864809036  0.8306030035018921  1.0000
  Cr  Cr4       1.0  0.32501721382141113  0.8756992816925049  0.5988813042640686  1.0000
  Cr  Cr5       1.0  0.08950384706258774  0.3845581114292145  0.5950154662132263  1.0000
  F   F1        1.0  0.8242093324661255  0.5997791886329651  0.1701955944299698  1.0000
  F   F2        1.0  0.19987455010414124  0.5912628173828125  0.3058668076992035  1.0000
  F   F3        1.0  0.7939299941062927  0.3766390085220337  0.5950660109519958  1.0000
  K   K1        1.0  0.7998505234718323  0.8728049397468567  0.08243685960769653  1.0000
