data_image0
_chemical_formula_structural       CIMoPbPt3
_chemical_formula_sum              "C1 I1 Mo1 Pb1 Pt3"
_cell_length_a       5.076591739409512
_cell_length_b       4.696794304741402
_cell_length_c       5.240559101104736
_cell_angle_alpha    120.81398389950964
_cell_angle_beta     91.6769171072202
_cell_angle_gamma    84.697424889501

_space_group_name_H-M_alt    "P 1"
_space_group_IT_number       1

loop_
  _space_group_symop_operation_xyz
  'x, y, z'

loop_
  _atom_site_type_symbol
  _atom_site_label
  _atom_site_symmetry_multiplicity
  _atom_site_fract_x
  _atom_site_fract_y
  _atom_site_fract_z
  _atom_site_occupancy
  C   C1        1.0  0.46989569067955017  0.3532072901725769  0.09266772866249084  1.0000
  I   I1        1.0  0.99009108543396  0.10943025350570679  0.7067570686340332  1.0000
  Mo  Mo1       1.0  0.9834724068641663  0.924362301826477  0.33843570947647095  1.0000
  Pb  Pb1       1.0  0.480106383562088  0.6014060378074646  0.6627759337425232  1.0000
  Pt  Pt1       1.0  0.452047199010849  0.3702050447463989  0.9670343995094298  1.0000
  Pt  Pt2       1.0  0.46820199489593506  0.9186589121818542  0.18097162246704102  1.0000
  Pt  Pt3       1.0  0.9652960300445557  0.39322322607040405  0.9180938601493834  1.0000
