data_image0
_chemical_formula_structural       CoGaIMo2PtU
_chemical_formula_sum              "Co1 Ga1 I1 Mo2 Pt1 U1"
_cell_length_a       5.884773644609902
_cell_length_b       5.262116952353846
_cell_length_c       5.096724987030029
_cell_angle_alpha    56.371435500831076
_cell_angle_beta     64.46079587451419
_cell_angle_gamma    59.320749533979836

_space_group_name_H-M_alt    "P 1"
_space_group_IT_number       1

loop_
  _space_group_symop_operation_xyz
  'x, y, z'

loop_
  _atom_site_type_symbol
  _atom_site_label
  _atom_site_symmetry_multiplicity
  _atom_site_fract_x
  _atom_site_fract_y
  _atom_site_fract_z
  _atom_site_occupancy
  Co  Co1       1.0  0.46274447441101074  0.8231796026229858  0.34981590509414673  1.0000
  Ga  Ga1       1.0  0.1627861112356186  0.21917477250099182  0.8047279119491577  1.0000
  I   I1        1.0  0.6655381917953491  0.616471529006958  0.5048416256904602  1.0000
  Mo  Mo1       1.0  0.6592820286750793  0.6466557383537292  0.18936975300312042  1.0000
  Mo  Mo2       1.0  0.933853268623352  0.14916594326496124  0.405952125787735  1.0000
  Pt  Pt1       1.0  0.12812016904354095  0.7904034852981567  0.20421013236045837  1.0000
  U   U1        1.0  0.4190386235713959  0.2718436121940613  0.9971358776092529  1.0000
