data_image0
_chemical_formula_structural       CaDyHPPdPt4
_chemical_formula_sum              "Ca1 Dy1 H1 P1 Pd1 Pt4"
_cell_length_a       4.6555662257710475
_cell_length_b       4.592551659587886
_cell_length_c       7.164974212646484
_cell_angle_alpha    93.67224044645877
_cell_angle_beta     90.72286271042806
_cell_angle_gamma    116.14645833305444

_space_group_name_H-M_alt    "P 1"
_space_group_IT_number       1

loop_
  _space_group_symop_operation_xyz
  'x, y, z'

loop_
  _atom_site_type_symbol
  _atom_site_label
  _atom_site_symmetry_multiplicity
  _atom_site_fract_x
  _atom_site_fract_y
  _atom_site_fract_z
  _atom_site_occupancy
  Ca  Ca1       1.0  0.2903684675693512  0.6705738306045532  0.2360591292381287  1.0000
  Dy  Dy1       1.0  0.9426413774490356  0.438129186630249  0.3444067239761353  1.0000
  H   H1        1.0  0.7912083268165588  0.7787586450576782  0.3719820380210877  1.0000
  P   P1        1.0  0.931945264339447  0.36402082443237305  0.5041649341583252  1.0000
  Pd  Pd1       1.0  0.32892391085624695  0.7696623802185059  0.9854184985160829  1.0000
  Pt  Pt1       1.0  0.9785802364349365  0.557197093963623  0.17004577815532687  1.0000
  Pt  Pt2       1.0  0.4502432942390442  0.2646879255771637  0.7262035012245179  1.0000
  Pt  Pt3       1.0  0.43944209814071655  0.4254262447357178  0.8665959835052491  1.0000
  Pt  Pt4       1.0  0.308020681142807  0.06931567192077637  0.1618941128253937  1.0000
