data_image0
_chemical_formula_structural       P2Pd4Pt2S
_chemical_formula_sum              "P2 Pd4 Pt2 S1"
_cell_length_a       5.4135236177163
_cell_length_b       2.874195651546694
_cell_length_c       5.817944526672363
_cell_angle_alpha    52.16579062709893
_cell_angle_beta     60.13351698253139
_cell_angle_gamma    31.394044033890264

_space_group_name_H-M_alt    "P 1"
_space_group_IT_number       1

loop_
  _space_group_symop_operation_xyz
  'x, y, z'

loop_
  _atom_site_type_symbol
  _atom_site_label
  _atom_site_symmetry_multiplicity
  _atom_site_fract_x
  _atom_site_fract_y
  _atom_site_fract_z
  _atom_site_occupancy
  P   P1        1.0  0.791174054145813  0.7050594091415405  0.8272016644477843  1.0000
  P   P2        1.0  0.817658007144928  0.0657121017575264  0.3015231788158417  1.0000
  Pd  Pd1       1.0  0.33284443616867065  0.24756814539432526  0.13008034229278564  1.0000
  Pd  Pd2       1.0  0.7767417430877686  0.6739828586578369  0.5066336989402771  1.0000
  Pd  Pd3       1.0  0.8055040240287781  0.5600268840789795  0.9481980800628661  1.0000
  Pd  Pd4       1.0  0.8238428235054016  0.7677354216575623  0.6321326494216919  1.0000
  Pt  Pt1       1.0  0.34139057993888855  0.6864929795265198  0.43672204017639155  1.0000
  Pt  Pt2       1.0  0.2975712716579437  0.05357392504811287  0.5345543026924133  1.0000
  S   S1        1.0  0.29944634437561035  0.3222973644733429  0.659285306930542  1.0000
