data_image0
_chemical_formula_structural       Pd4S4Tl
_chemical_formula_sum              "Pd4 S4 Tl1"
_cell_length_a       4.88336907990135
_cell_length_b       5.042289339576593
_cell_length_c       5.924037933349609
_cell_angle_alpha    90.97160477930551
_cell_angle_beta     90.69951022915059
_cell_angle_gamma    97.70212704922311

_space_group_name_H-M_alt    "P 1"
_space_group_IT_number       1

loop_
  _space_group_symop_operation_xyz
  'x, y, z'

loop_
  _atom_site_type_symbol
  _atom_site_label
  _atom_site_symmetry_multiplicity
  _atom_site_fract_x
  _atom_site_fract_y
  _atom_site_fract_z
  _atom_site_occupancy
  Pd  Pd1       1.0  0.7464118599891663  0.4568960964679718  0.8293642997741699  1.0000
  Pd  Pd2       1.0  0.7585157752037048  0.3690107464790344  0.6179801821708679  1.0000
  Pd  Pd3       1.0  0.2552580237388611  0.3583553433418274  0.6575179696083069  1.0000
  Pd  Pd4       1.0  0.25970175862312317  0.22637417912483215  0.10913120955228806  1.0000
  S   S1        1.0  0.26365926861763  0.04792378470301628  0.1429154872894287  1.0000
  S   S2        1.0  0.7654932141304016  0.6864554286003113  0.6752179265022278  1.0000
  S   S3        1.0  0.7552698850631714  0.34330976009368896  0.15591458976268768  1.0000
  S   S4        1.0  0.24712345004081726  0.8471583724021912  0.05716506391763687  1.0000
  Tl  Tl1       1.0  0.7684723734855652  0.6081965565681458  0.20531047880649567  1.0000
