data_image0
_chemical_formula_structural       BiClF2FeGeLaLiPr
_chemical_formula_sum              "Bi1 Cl1 F2 Fe1 Ge1 La1 Li1 Pr1"
_cell_length_a       6.1495984577493825
_cell_length_b       6.158252879881869
_cell_length_c       6.88818883895874
_cell_angle_alpha    64.95496237679768
_cell_angle_beta     65.29428750162504
_cell_angle_gamma    61.254723672061296

_space_group_name_H-M_alt    "P 1"
_space_group_IT_number       1

loop_
  _space_group_symop_operation_xyz
  'x, y, z'

loop_
  _atom_site_type_symbol
  _atom_site_label
  _atom_site_symmetry_multiplicity
  _atom_site_fract_x
  _atom_site_fract_y
  _atom_site_fract_z
  _atom_site_occupancy
  Bi  Bi1       1.0  0.23783032596111298  0.2634997069835663  0.28845006227493286  1.0000
  Cl  Cl1       1.0  0.09976302087306976  0.7406595945358276  0.8035046458244324  1.0000
  F   F1        1.0  0.36678022146224976  0.01685027964413166  0.8989887833595276  1.0000
  F   F2        1.0  0.8977575898170471  0.8870990872383118  0.27868556976318365  1.0000
  Fe  Fe1       1.0  0.27338606119155884  0.7317249178886414  0.1409731060266495  1.0000
  Ge  Ge1       1.0  0.5888887643814087  0.5367368459701538  0.2778438627719879  1.0000
  La  La1       1.0  0.7153884768486023  0.1016533374786377  0.5899786949157715  1.0000
  Li  Li1       1.0  0.49479830265045166  0.8080481290817261  0.47241571545600897  1.0000
  Pr  Pr1       1.0  0.9306588768959045  0.3136768043041229  0.9386257529258728  1.0000
