data_image0
_chemical_formula_structural       Bi3Cl4Li2
_chemical_formula_sum              "Bi3 Cl4 Li2"
_cell_length_a       4.1190676195859295
_cell_length_b       7.372921707727711
_cell_length_c       8.899869918823242
_cell_angle_alpha    105.41123230871538
_cell_angle_beta     89.95307938106868
_cell_angle_gamma    106.40771799154001

_space_group_name_H-M_alt    "P 1"
_space_group_IT_number       1

loop_
  _space_group_symop_operation_xyz
  'x, y, z'

loop_
  _atom_site_type_symbol
  _atom_site_label
  _atom_site_symmetry_multiplicity
  _atom_site_fract_x
  _atom_site_fract_y
  _atom_site_fract_z
  _atom_site_occupancy
  Bi  Bi1       1.0  0.2018103301525116  0.4709388315677643  0.80468612909317  1.0000
  Bi  Bi2       1.0  0.9334012866020203  0.03176458925008774  0.2943585515022277  1.0000
  Bi  Bi3       1.0  0.8290479779243469  0.7443540096282959  0.997627317905426  1.0000
  Cl  Cl1       1.0  0.23752115666866302  0.6047602295875549  0.4038468599319458  1.0000
  Cl  Cl2       1.0  0.5423036813735962  0.21961839497089386  0.07215600460767745  1.0000
  Cl  Cl3       1.0  0.8908172249794006  0.896916389465332  0.7403194904327393  1.0000
  Cl  Cl4       1.0  0.5411404371261597  0.20794588327407837  0.5394618511199952  1.0000
  Li  Li1       1.0  0.143743634223938  0.41869401931762695  0.1240587905049324  1.0000
  Li  Li2       1.0  0.7215887904167175  0.5667629837989807  0.5907459259033203  1.0000
