data_image0
_chemical_formula_structural       Bi3Cl3Li3
_chemical_formula_sum              "Bi3 Cl3 Li3"
_cell_length_a       3.9867697775764603
_cell_length_b       6.934436252931117
_cell_length_c       9.12613582611084
_cell_angle_alpha    104.56549918908472
_cell_angle_beta     89.96914198227229
_cell_angle_gamma    107.33620821106268

_space_group_name_H-M_alt    "P 1"
_space_group_IT_number       1

loop_
  _space_group_symop_operation_xyz
  'x, y, z'

loop_
  _atom_site_type_symbol
  _atom_site_label
  _atom_site_symmetry_multiplicity
  _atom_site_fract_x
  _atom_site_fract_y
  _atom_site_fract_z
  _atom_site_occupancy
  Bi  Bi1       1.0  0.5194841623306274  0.16347701847553253  0.9937471747398376  1.0000
  Bi  Bi2       1.0  0.16263876855373383  0.4394584000110626  0.1867525428533554  1.0000
  Bi  Bi3       1.0  0.5466778874397278  0.20821964740753174  0.36603763699531555  1.0000
  Cl  Cl1       1.0  0.8340936303138733  0.7719265818595886  0.19706633687019345  1.0000
  Cl  Cl2       1.0  0.9302787780761719  0.00614715414121747  0.6272851228713989  1.0000
  Cl  Cl3       1.0  0.7286261320114136  0.5548903942108154  0.7328921556472779  1.0000
  Li  Li1       1.0  0.1280820369720459  0.3470715582370758  0.8380365967750548  1.0000
  Li  Li2       1.0  0.3765093982219696  0.8469539284706116  0.7577897310256958  1.0000
  Li  Li3       1.0  0.7790781259536743  0.6469423770904541  0.43345651030540466  1.0000
