data_image0
_chemical_formula_structural       BiBrClF2Li2NaSb
_chemical_formula_sum              "Bi1 Br1 Cl1 F2 Li2 Na1 Sb1"
_cell_length_a       6.603684199398583
_cell_length_b       6.578361203771079
_cell_length_c       6.918784141540527
_cell_angle_alpha    62.977788488279856
_cell_angle_beta     63.14306371186213
_cell_angle_gamma    60.89967672860182

_space_group_name_H-M_alt    "P 1"
_space_group_IT_number       1

loop_
  _space_group_symop_operation_xyz
  'x, y, z'

loop_
  _atom_site_type_symbol
  _atom_site_label
  _atom_site_symmetry_multiplicity
  _atom_site_fract_x
  _atom_site_fract_y
  _atom_site_fract_z
  _atom_site_occupancy
  Bi  Bi1       1.0  0.8568332195281982  0.26201292872428894  0.5627993941307069  1.0000
  Br  Br1       1.0  0.2575199604034424  0.27901691198349  0.7857313752174377  1.0000
  Cl  Cl1       1.0  0.6350566148757935  0.6046669483184814  0.7847684025764465  1.0000
  F   F1        1.0  0.11921342462301254  0.605290949344635  0.2316595762968063  1.0000
  F   F2        1.0  0.9991415143013  0.9022702574729919  0.7814457416534424  1.0000
  Li  Li1       1.0  0.24007880687713623  0.8555291891098022  0.9228873252868652  1.0000
  Li  Li2       1.0  0.8916419744491577  0.6504467129707336  0.9686101675033569  1.0000
  Na  Na1       1.0  0.4937642812728882  0.9784400463104248  0.2488569021224975  1.0000
  Sb  Sb1       1.0  0.44246938824653625  0.4217340648174286  0.32279068231582636  1.0000
