data_image0
_chemical_formula_structural       EuGeLu6MoSb2Zn3
_chemical_formula_sum              "Eu1 Ge1 Lu6 Mo1 Sb2 Zn3"
_cell_length_a       5.4073675243845445
_cell_length_b       7.349825966999536
_cell_length_c       8.928674697875977
_cell_angle_alpha    90.25800393133102
_cell_angle_beta     89.93809731641868
_cell_angle_gamma    90.83633152454763

_space_group_name_H-M_alt    "P 1"
_space_group_IT_number       1

loop_
  _space_group_symop_operation_xyz
  'x, y, z'

loop_
  _atom_site_type_symbol
  _atom_site_label
  _atom_site_symmetry_multiplicity
  _atom_site_fract_x
  _atom_site_fract_y
  _atom_site_fract_z
  _atom_site_occupancy
  Eu  Eu1       1.0  0.3804420232772827  0.1364678144454956  0.22336481511592865  1.0000
  Ge  Ge1       1.0  0.8837623596191407  0.20649890601634982  0.699196994304657  1.0000
  Lu  Lu1       1.0  0.880308985710144  0.7414304018020631  0.11769995093345642  1.0000
  Lu  Lu2       1.0  0.876388669013977  0.4856863915920258  0.5358344912528992  1.0000
  Lu  Lu3       1.0  0.876348614692688  0.9947406053543092  0.8819838166236879  1.0000
  Lu  Lu4       1.0  0.8839630484580994  0.5319362282752991  0.5064595341682434  1.0000
  Lu  Lu5       1.0  0.8828507661819458  0.13161081075668335  0.6546213626861572  1.0000
  Lu  Lu6       1.0  0.8830999135971069  0.4666601419448853  0.7695707678794862  1.0000
  Mo  Mo1       1.0  0.3817487061023712  0.41305446624755865  0.32546836137771606  1.0000
  Sb  Sb1       1.0  0.37798404693603516  0.38281875848770147  0.8334472179412842  1.0000
  Sb  Sb2       1.0  0.37914735078811646  0.48751005530357366  0.6174230575561523  1.0000
  Zn  Zn1       1.0  0.38312068581581116  0.32473662495613104  0.00835395883768797  1.0000
  Zn  Zn2       1.0  0.38002505898475647  0.9955096244812013  0.6226205229759216  1.0000
  Zn  Zn3       1.0  0.38219374418258667  0.19196106493473056  0.7132686972618103  1.0000
