data_image0
_chemical_formula_structural       ClGe2ILu7OPSb
_chemical_formula_sum              "Cl1 Ge2 I1 Lu7 O1 P1 Sb1"
_cell_length_a       0.3679028107397712
_cell_length_b       6.410296213156027
_cell_length_c       8.202960968017578
_cell_angle_alpha    109.16155091911904
_cell_angle_beta     177.24300103893478
_cell_angle_gamma    68.27109722817023

_space_group_name_H-M_alt    "P 1"
_space_group_IT_number       1

loop_
  _space_group_symop_operation_xyz
  'x, y, z'

loop_
  _atom_site_type_symbol
  _atom_site_label
  _atom_site_symmetry_multiplicity
  _atom_site_fract_x
  _atom_site_fract_y
  _atom_site_fract_z
  _atom_site_occupancy
  Cl  Cl1       1.0  0.5020862221717892  0.4413146078586579  0.26178568601608304  1.0000
  Ge  Ge1       1.0  0.505510866642008  0.4207268953323364  0.032364767044783076  1.0000
  Ge  Ge2       1.0  0.475162476301189  0.1527172029018402  0.23826180398464183  1.0000
  I   I1        1.0  0.5009034872055078  0.006794371642172336  0.8199750781059266  1.0000
  Lu  Lu1       1.0  0.012214820831997467  0.9251238703727722  0.5343418717384331  1.0000
  Lu  Lu2       1.0  0.5025237202644445  0.6757138967514038  0.8953651189804082  1.0000
  Lu  Lu3       1.0  0.47162032127379344  0.8435139656066896  0.6390131711959834  1.0000
  Lu  Lu4       1.0  0.7694007158279547  0.8006526827812194  0.845148921012879  1.0000
  Lu  Lu5       1.0  0.5519399642944209  0.6480717062950134  0.17130485177040045  1.0000
  Lu  Lu6       1.0  0.4996181130409241  0.1477714478969574  0.3240334689617157  1.0000
  Lu  Lu7       1.0  0.007983694784371416  0.9517892003059386  0.8968638777732861  1.0000
  O   O1        1.0  0.5207681655884236  0.9773840904235839  0.5508049130439778  1.0000
  P   P1        1.0  0.011759938672184793  0.01996542513370514  0.47284579277038574  1.0000
  Sb  Sb1       1.0  0.006120748352275146  0.6945044994354248  0.27009841799736095  1.0000
