data_image0
_chemical_formula_structural       BiIrLu9OScZn
_chemical_formula_sum              "Bi1 Ir1 Lu9 O1 Sc1 Zn1"
_cell_length_a       4.957529552740053
_cell_length_b       5.1392641694130985
_cell_length_c       9.058486938476562
_cell_angle_alpha    90.4308659298065
_cell_angle_beta     90.47814048247021
_cell_angle_gamma    88.00323947713485

_space_group_name_H-M_alt    "P 1"
_space_group_IT_number       1

loop_
  _space_group_symop_operation_xyz
  'x, y, z'

loop_
  _atom_site_type_symbol
  _atom_site_label
  _atom_site_symmetry_multiplicity
  _atom_site_fract_x
  _atom_site_fract_y
  _atom_site_fract_z
  _atom_site_occupancy
  Bi  Bi1       1.0  0.19972269237041473  0.845629870891571  0.34950754046440125  1.0000
  Ir  Ir1       1.0  0.20765426754951477  0.1812673807144165  0.7542057037353516  1.0000
  Lu  Lu1       1.0  0.7022209763526917  0.6086196303367615  0.37018463015556335  1.0000
  Lu  Lu2       1.0  0.20484980940818787  0.5662815570831299  0.3454411029815674  1.0000
  Lu  Lu3       1.0  0.20792005956172943  0.7717528939247131  0.8233145475387573  1.0000
  Lu  Lu4       1.0  0.2001873403787613  0.40555617213249207  0.12836168706417084  1.0000
  Lu  Lu5       1.0  0.7400367856025696  0.9187790155410767  0.6801028251647949  1.0000
  Lu  Lu6       1.0  0.6995632648468018  0.8758786916732788  0.3448377251625061  1.0000
  Lu  Lu7       1.0  0.7037298679351807  0.016248531639575958  0.41128939390182495  1.0000
  Lu  Lu8       1.0  0.19879870116710663  0.8545017242431641  0.42219480872154236  1.0000
  Lu  Lu9       1.0  0.7057193517684937  0.9762469530105591  0.4341461658477783  1.0000
  O   O1        1.0  0.2699221968650818  0.44889286160469055  0.6483712792396545  1.0000
  Sc  Sc1       1.0  0.7181035876274109  0.35388869047164917  0.5286819934844971  1.0000
  Zn  Zn1       1.0  0.7036842107772827  0.9735813140869141  0.8252301812171936  1.0000
