data_image0
_chemical_formula_structural       Bi3Cl2Lu7O2
_chemical_formula_sum              "Bi3 Cl2 Lu7 O2"
_cell_length_a       4.913181411540464
_cell_length_b       5.606439439843719
_cell_length_c       9.67394733428955
_cell_angle_alpha    91.69223990895128
_cell_angle_beta     91.01672225078397
_cell_angle_gamma    90.80174555598181

_space_group_name_H-M_alt    "P 1"
_space_group_IT_number       1

loop_
  _space_group_symop_operation_xyz
  'x, y, z'

loop_
  _atom_site_type_symbol
  _atom_site_label
  _atom_site_symmetry_multiplicity
  _atom_site_fract_x
  _atom_site_fract_y
  _atom_site_fract_z
  _atom_site_occupancy
  Bi  Bi1       1.0  0.7379344701766968  0.9082844257354736  0.2527018189430237  1.0000
  Bi  Bi2       1.0  0.7331994771957397  0.7147266268730164  0.23433879017829895  1.0000
  Bi  Bi3       1.0  0.7408706545829773  0.4495048522949219  0.6117536425590515  1.0000
  Cl  Cl1       1.0  0.7486616373062134  0.07022199779748917  0.06018029898405075  1.0000
  Cl  Cl2       1.0  0.24532189965248105  0.9333117008209229  0.01778950355947018  1.0000
  Lu  Lu1       1.0  0.22934111952781674  0.48741447925567627  0.8061339855194092  1.0000
  Lu  Lu2       1.0  0.25343605875968933  0.31452640891075134  0.9723266363143921  1.0000
  Lu  Lu3       1.0  0.3771767318248749  0.45185616612434387  0.6381837725639343  1.0000
  Lu  Lu4       1.0  0.2510502338409424  0.38427966833114624  0.42714768648147583  1.0000
  Lu  Lu5       1.0  0.7216624617576599  0.26287463307380676  0.2652846574783325  1.0000
  Lu  Lu6       1.0  0.18675106763839722  0.6606535315513611  0.09069634974002838  1.0000
  Lu  Lu7       1.0  0.27662694454193115  0.3003351390361786  0.9817649126052856  1.0000
  O   O1        1.0  0.48033791780471796  0.7103086709976196  0.033493876457214355  1.0000
  O   O2        1.0  0.2766529321670532  0.038774214684963226  0.8750280737876892  1.0000
