data_image0
_chemical_formula_structural       Bi3ClLaLu4NiO4
_chemical_formula_sum              "Bi3 Cl1 La1 Lu4 Ni1 O4"
_cell_length_a       5.272464581758676
_cell_length_b       6.459423799932429
_cell_length_c       8.786158561706543
_cell_angle_alpha    105.22290402614347
_cell_angle_beta     94.95711721985342
_cell_angle_gamma    103.67586469995635

_space_group_name_H-M_alt    "P 1"
_space_group_IT_number       1

loop_
  _space_group_symop_operation_xyz
  'x, y, z'

loop_
  _atom_site_type_symbol
  _atom_site_label
  _atom_site_symmetry_multiplicity
  _atom_site_fract_x
  _atom_site_fract_y
  _atom_site_fract_z
  _atom_site_occupancy
  Bi  Bi1       1.0  0.8813385367393494  0.6826954483985901  0.18416087329387665  1.0000
  Bi  Bi2       1.0  0.37517374753952026  0.1939602643251419  0.05643729120492935  1.0000
  Bi  Bi3       1.0  0.8843056559562683  0.3586382269859314  0.719127893447876  1.0000
  Cl  Cl1       1.0  0.3506052792072296  0.07022221386432648  0.5022523403167725  1.0000
  La  La1       1.0  0.8559703230857849  0.13369444012641907  0.6899332404136658  1.0000
  Lu  Lu1       1.0  0.8729293942451477  0.7322268486022949  0.0745689868927002  1.0000
  Lu  Lu2       1.0  0.374222993850708  0.731599748134613  0.938080906867981  1.0000
  Lu  Lu3       1.0  0.3713647425174713  0.015583818778395651  0.1275862753391266  1.0000
  Lu  Lu4       1.0  0.6191577911376953  0.5498934388160706  0.2907964289188385  1.0000
  Ni  Ni1       1.0  0.37921547889709467  0.9569990634918212  0.34475940465927124  1.0000
  O   O1        1.0  0.861760139465332  0.18666209280490875  0.6129283905029297  1.0000
  O   O2        1.0  0.3556777834892273  0.6265364289283752  0.4529540240764618  1.0000
  O   O3        1.0  0.34585505723953247  0.3041897714138031  0.07388341426849365  1.0000
  O   O4        1.0  0.3909872770309448  0.2356888800859451  0.7059995532035828  1.0000
