data_image0
_chemical_formula_structural       ClGe2Lu9OPb
_chemical_formula_sum              "Cl1 Ge2 Lu9 O1 Pb1"
_cell_length_a       6.133104208345575
_cell_length_b       6.094422231055556
_cell_length_c       8.417624473571777
_cell_angle_alpha    74.88032377102208
_cell_angle_beta     64.35122080604197
_cell_angle_gamma    47.2501955240225

_space_group_name_H-M_alt    "P 1"
_space_group_IT_number       1

loop_
  _space_group_symop_operation_xyz
  'x, y, z'

loop_
  _atom_site_type_symbol
  _atom_site_label
  _atom_site_symmetry_multiplicity
  _atom_site_fract_x
  _atom_site_fract_y
  _atom_site_fract_z
  _atom_site_occupancy
  Cl  Cl1       1.0  0.6981072425842285  0.508236825466156  0.3998406231403351  1.0000
  Ge  Ge1       1.0  0.9125508666038513  0.4477439224720001  0.36966097354888916  1.0000
  Ge  Ge2       1.0  0.3782387673854828  0.5943438410758972  0.40598076581954956  1.0000
  Lu  Lu1       1.0  0.9323157668113708  0.4377436339855194  0.28171610832214355  1.0000
  Lu  Lu2       1.0  0.9723594188690186  0.18861977756023407  0.8617202639579773  1.0000
  Lu  Lu3       1.0  0.4200589060783386  0.43622368574142456  0.7805932760238647  1.0000
  Lu  Lu4       1.0  0.4993988871574402  0.057495176792144775  0.011813114397227738  1.0000
  Lu  Lu5       1.0  0.640920877456665  0.11533065140247345  0.9516780972480774  1.0000
  Lu  Lu6       1.0  0.9007312059402466  0.382981538772583  0.8854441046714783  1.0000
  Lu  Lu7       1.0  0.9823608994483948  0.7156398296356201  0.21192079782485962  1.0000
  Lu  Lu8       1.0  0.996993899345398  0.3956148624420166  0.675287127494812  1.0000
  Lu  Lu9       1.0  0.8574662804603577  0.7004720568656921  0.9138177633285522  1.0000
  O   O1        1.0  0.3128717541694641  0.3745063543319702  0.1183328703045845  1.0000
  Pb  Pb1       1.0  0.4238801896572113  0.8746936917304993  0.4653892517089844  1.0000
