data_image0
_chemical_formula_structural       GaGeH2Ho2NiPb2PtZn
_chemical_formula_sum              "Ga1 Ge1 H2 Ho2 Ni1 Pb2 Pt1 Zn1"
_cell_length_a       5.307649082795409
_cell_length_b       5.902732506275311
_cell_length_c       6.335794448852539
_cell_angle_alpha    112.2115152141305
_cell_angle_beta     103.60532446257848
_cell_angle_gamma    102.06054766026413

_space_group_name_H-M_alt    "P 1"
_space_group_IT_number       1

loop_
  _space_group_symop_operation_xyz
  'x, y, z'

loop_
  _atom_site_type_symbol
  _atom_site_label
  _atom_site_symmetry_multiplicity
  _atom_site_fract_x
  _atom_site_fract_y
  _atom_site_fract_z
  _atom_site_occupancy
  Ga  Ga1       1.0  0.23840796947479248  0.47802960872650146  0.058192566037178046  1.0000
  Ge  Ge1       1.0  0.7488250136375427  0.7991766929626465  0.5846833586692811  1.0000
  H   H1        1.0  0.718956470489502  0.5036653280258179  0.427027314901352  1.0000
  H   H2        1.0  0.7429983615875244  0.3822970986366272  0.09356228262186055  1.0000
  Ho  Ho1       1.0  0.7565848231315613  0.32910025119781494  0.274482399225235  1.0000
  Ho  Ho2       1.0  0.7322155833244324  0.5020694136619568  0.08183975517749788  1.0000
  Ni  Ni1       1.0  0.25208452343940735  0.8445825576782227  0.4318831562995912  1.0000
  Pb  Pb1       1.0  0.23642666637897491  0.05716732144355774  0.9557006955146791  1.0000
  Pb  Pb2       1.0  0.24150964617729187  0.6059225797653198  0.35865908861160284  1.0000
  Pt  Pt1       1.0  0.7388847470283508  0.020887022837996483  0.8222962021827699  1.0000
  Zn  Zn1       1.0  0.23649105429649353  0.9742491245269775  0.16634000837802895  1.0000
