data_image0
_chemical_formula_structural       HHo3IrNiPPb3Zr
_chemical_formula_sum              "H1 Ho3 Ir1 Ni1 P1 Pb3 Zr1"
_cell_length_a       5.46841694517287
_cell_length_b       4.965409851303156
_cell_length_c       5.954007148742676
_cell_angle_alpha    79.98530232327677
_cell_angle_beta     67.84174353941658
_cell_angle_gamma    58.75655692784686

_space_group_name_H-M_alt    "P 1"
_space_group_IT_number       1

loop_
  _space_group_symop_operation_xyz
  'x, y, z'

loop_
  _atom_site_type_symbol
  _atom_site_label
  _atom_site_symmetry_multiplicity
  _atom_site_fract_x
  _atom_site_fract_y
  _atom_site_fract_z
  _atom_site_occupancy
  H   H1        1.0  0.46863365173339844  0.6871582865715027  0.9660640358924866  1.0000
  Ho  Ho1       1.0  0.36149999499320984  0.9375693798065186  0.3878452181816101  1.0000
  Ho  Ho2       1.0  0.33785784244537354  0.006884094327688217  0.6991605162620544  1.0000
  Ho  Ho3       1.0  0.9606598615646362  0.5279707312583923  0.3283986747264862  1.0000
  Ir  Ir1       1.0  0.36013516783714294  0.9034753441810608  0.39976587891578674  1.0000
  Ni  Ni1       1.0  0.9487218260765076  0.7445209622383118  0.2593021392822266  1.0000
  P   P1        1.0  0.9959510564804077  0.7938621640205383  0.14891222119331368  1.0000
  Pb  Pb1       1.0  0.8789846301078796  0.6141470670700073  0.5341883897781372  1.0000
  Pb  Pb2       1.0  0.4753214418888092  0.22846533358097076  0.9269837141036987  1.0000
  Pb  Pb3       1.0  0.9606042504310608  0.26722854375839233  0.8666964769363403  1.0000
  Zr  Zr1       1.0  0.9561972618103027  0.15447382628917694  0.4087624847888947  1.0000
