data_image0
_chemical_formula_structural       GeHo3Ni7
_chemical_formula_sum              "Ge1 Ho3 Ni7"
_cell_length_a       4.582931441145181
_cell_length_b       4.958966463558226
_cell_length_c       5.969152927398682
_cell_angle_alpha    89.64923859319461
_cell_angle_beta     89.65837987553314
_cell_angle_gamma    89.11329645209898

_space_group_name_H-M_alt    "P 1"
_space_group_IT_number       1

loop_
  _space_group_symop_operation_xyz
  'x, y, z'

loop_
  _atom_site_type_symbol
  _atom_site_label
  _atom_site_symmetry_multiplicity
  _atom_site_fract_x
  _atom_site_fract_y
  _atom_site_fract_z
  _atom_site_occupancy
  Ge  Ge1       1.0  0.8026472926139832  0.003454397432506084  0.6951790452003479  1.0000
  Ho  Ho1       1.0  0.3096696138381958  0.8746612668037413  0.7672125101089478  1.0000
  Ho  Ho2       1.0  0.8005979061126709  0.2545020878314972  0.6771206855773926  1.0000
  Ho  Ho3       1.0  0.30955198407173157  0.8642044067382811  0.20839251577854156  1.0000
  Ni  Ni1       1.0  0.31312063336372375  0.5188784599304199  0.763164758682251  1.0000
  Ni  Ni2       1.0  0.8093263506889343  0.33034130930900574  0.9591310620307922  1.0000
  Ni  Ni3       1.0  0.8159429430961609  0.6155146360397339  0.7098942399024963  1.0000
  Ni  Ni4       1.0  0.3141157031059265  0.8460147976875305  0.19046662747859955  1.0000
  Ni  Ni5       1.0  0.7985129356384277  0.06793215125799179  0.2065839171409607  1.0000
  Ni  Ni6       1.0  0.31191301345825195  0.8856692910194396  0.7621429562568665  1.0000
  Ni  Ni7       1.0  0.30989599227905273  0.7208923697471619  0.10759872198104858  1.0000
