data_image0
_chemical_formula_structural       Ge3H2Ho3P2Ti
_chemical_formula_sum              "Ge3 H2 Ho3 P2 Ti1"
_cell_length_a       5.345621842578904
_cell_length_b       5.558401230551735
_cell_length_c       7.428650379180908
_cell_angle_alpha    69.79193049004886
_cell_angle_beta     83.27308915725578
_cell_angle_gamma    98.72784975168356

_space_group_name_H-M_alt    "P 1"
_space_group_IT_number       1

loop_
  _space_group_symop_operation_xyz
  'x, y, z'

loop_
  _atom_site_type_symbol
  _atom_site_label
  _atom_site_symmetry_multiplicity
  _atom_site_fract_x
  _atom_site_fract_y
  _atom_site_fract_z
  _atom_site_occupancy
  Ge  Ge1       1.0  0.6406750082969666  0.596164882183075  0.7394161820411682  1.0000
  Ge  Ge2       1.0  0.13492028415203094  0.7566967010498047  0.8514313697814941  1.0000
  Ge  Ge3       1.0  0.16495265066623688  0.7588677406311035  0.4918462634086609  1.0000
  H   H1        1.0  0.9852027297019958  0.27113208174705505  0.4859238862991333  1.0000
  H   H2        1.0  0.8246445655822754  0.8158845901489258  0.7955911159515381  1.0000
  Ho  Ho1       1.0  0.21086116135120392  0.9591189622879028  0.1949120759963989  1.0000
  Ho  Ho2       1.0  0.6611241102218628  0.5427117943763733  0.6116567850112915  1.0000
  Ho  Ho3       1.0  0.3571515679359436  0.7060418128967285  0.037272095680236816  1.0000
  P   P1        1.0  0.8632886409759521  0.7083677649497986  0.4425084888935089  1.0000
  P   P2        1.0  0.6344466805458069  0.8327436447143555  0.9402734637260437  1.0000
  Ti  Ti1       1.0  0.1561206877231598  0.28162240982055664  0.9378365874290466  1.0000
