data_image0
_chemical_formula_structural       Ge2HoNi8
_chemical_formula_sum              "Ge2 Ho1 Ni8"
_cell_length_a       3.974587808347728
_cell_length_b       4.334755557166996
_cell_length_c       5.181845188140869
_cell_angle_alpha    104.34935693113948
_cell_angle_beta     75.05591974739069
_cell_angle_gamma    82.42240580194543

_space_group_name_H-M_alt    "P 1"
_space_group_IT_number       1

loop_
  _space_group_symop_operation_xyz
  'x, y, z'

loop_
  _atom_site_type_symbol
  _atom_site_label
  _atom_site_symmetry_multiplicity
  _atom_site_fract_x
  _atom_site_fract_y
  _atom_site_fract_z
  _atom_site_occupancy
  Ge  Ge1       1.0  0.06596016138792038  0.6344751715660095  0.4468075931072235  1.0000
  Ge  Ge2       1.0  0.5633001923561097  0.41043755412101746  0.7231175303459167  1.0000
  Ho  Ho1       1.0  0.05673325434327126  0.7981378436088562  0.5707969665527344  1.0000
  Ni  Ni1       1.0  0.04982548207044602  0.9439501166343689  0.624789297580719  1.0000
  Ni  Ni2       1.0  0.5642458200454713  0.6647143959999084  0.5643551349639893  1.0000
  Ni  Ni3       1.0  0.5576986670494081  0.09130427241325378  0.3993476331233978  1.0000
  Ni  Ni4       1.0  0.5657531619071962  0.17734546959400177  0.10761386901140213  1.0000
  Ni  Ni5       1.0  0.06288810074329376  0.6681920886039734  0.9479527473449707  1.0000
  Ni  Ni6       1.0  0.5661951303482057  0.6722278594970703  0.8157665729522705  1.0000
  Ni  Ni7       1.0  0.5615046620368959  0.8037347793579102  0.5378961563110352  1.0000
  Ni  Ni8       1.0  0.05581513792276383  0.3824855089187622  0.9820358157157898  1.0000
