data_image0
_chemical_formula_structural       CoGeHHo4PPb2Ti
_chemical_formula_sum              "Co1 Ge1 H1 Ho4 P1 Pb2 Ti1"
_cell_length_a       4.67472453095456
_cell_length_b       6.7689873687181
_cell_length_c       7.749373435974121
_cell_angle_alpha    72.35221142571604
_cell_angle_beta     61.33155999029375
_cell_angle_gamma    60.10146202623756

_space_group_name_H-M_alt    "P 1"
_space_group_IT_number       1

loop_
  _space_group_symop_operation_xyz
  'x, y, z'

loop_
  _atom_site_type_symbol
  _atom_site_label
  _atom_site_symmetry_multiplicity
  _atom_site_fract_x
  _atom_site_fract_y
  _atom_site_fract_z
  _atom_site_occupancy
  Co  Co1       1.0  0.604424238204956  0.1881154328584671  0.518665611743927  1.0000
  Ge  Ge1       1.0  0.08007650822401047  0.6867760419845581  0.5489262938499451  1.0000
  H   H1        1.0  0.19956453144550323  0.7430988550186157  0.43951189517974854  1.0000
  Ho  Ho1       1.0  0.19039107859134674  0.1408788412809372  0.4757034182548523  1.0000
  Ho  Ho2       1.0  0.8452595472335817  0.015009355731308459  0.34251475334167475  1.0000
  Ho  Ho3       1.0  0.3487530350685121  0.9055665731430053  0.39784321188926697  1.0000
  Ho  Ho4       1.0  0.5052265524864197  0.05449176207184791  0.7495479583740234  1.0000
  P   P1        1.0  0.541812002658844  0.1554431915283203  0.7278993129730225  1.0000
  Pb  Pb1       1.0  0.7833820581436158  0.8729671835899352  0.5534021258354187  1.0000
  Pb  Pb2       1.0  0.37070682644844066  0.9445450901985167  0.25512832403182983  1.0000
  Ti  Ti1       1.0  0.01799619570374489  0.5656384229660034  0.6095126271247864  1.0000
