data_image0
_chemical_formula_structural       AsAuBrCHHg2ISb
_chemical_formula_sum              "As1 Au1 Br1 C1 H1 Hg2 I1 Sb1"
_cell_length_a       6.375032391245533
_cell_length_b       6.354186937162932
_cell_length_c       6.319819450378418
_cell_angle_alpha    94.59599985955842
_cell_angle_beta     94.52817848870768
_cell_angle_gamma    94.43817477221279

_space_group_name_H-M_alt    "P 1"
_space_group_IT_number       1

loop_
  _space_group_symop_operation_xyz
  'x, y, z'

loop_
  _atom_site_type_symbol
  _atom_site_label
  _atom_site_symmetry_multiplicity
  _atom_site_fract_x
  _atom_site_fract_y
  _atom_site_fract_z
  _atom_site_occupancy
  As  As1       1.0  0.7542653679847717  0.9495084285736084  0.21492642164230347  1.0000
  Au  Au1       1.0  0.5978298187255859  0.21930021047592163  0.12198978662490843  1.0000
  Br  Br1       1.0  0.8300066590309143  0.5426287055015564  0.5008283257484436  1.0000
  C   C1        1.0  0.2466358244419098  0.08217395842075348  0.5906828045845032  1.0000
  H   H1        1.0  0.09638254344463348  0.0866076722741127  0.6976796388626099  1.0000
  Hg  Hg1       1.0  0.12253236770629883  0.15444180369377136  0.3200633227825165  1.0000
  Hg  Hg2       1.0  0.6758069396018982  0.6915668845176697  0.8885200619697571  1.0000
  I   I1        1.0  0.2474278211593628  0.557743489742279  0.03220859542489052  1.0000
  Sb  Sb1       1.0  0.5382344722747803  0.08512907475233078  0.7042773962020873  1.0000
