data_image0
_chemical_formula_structural       As4Au2Ni3
_chemical_formula_sum              "As4 Au2 Ni3"
_cell_length_a       4.086501869441078
_cell_length_b       6.28414581861906
_cell_length_c       6.545105457305908
_cell_angle_alpha    106.84713267797416
_cell_angle_beta     89.97913046069378
_cell_angle_gamma    90.00005349210032

_space_group_name_H-M_alt    "P 1"
_space_group_IT_number       1

loop_
  _space_group_symop_operation_xyz
  'x, y, z'

loop_
  _atom_site_type_symbol
  _atom_site_label
  _atom_site_symmetry_multiplicity
  _atom_site_fract_x
  _atom_site_fract_y
  _atom_site_fract_z
  _atom_site_occupancy
  As  As1       1.0  0.3876611292362213  0.5279063582420349  0.878024160861969  1.0000
  As  As2       1.0  0.88944411277771  0.4743955731391907  0.2898026704788208  1.0000
  As  As3       1.0  0.8876023888587952  0.016780046746134758  0.8394789099693297  1.0000
  As  As4       1.0  0.3870950937271118  0.9708726406097412  0.25665783882141113  1.0000
  Au  Au1       1.0  0.8874557614326477  0.5997070074081421  0.6642449498176575  1.0000
  Au  Au2       1.0  0.3872690200805664  0.12663936614990234  0.6735307574272155  1.0000
  Ni  Ni1       1.0  0.8883898854255676  0.1465155929327011  0.369894415140152  1.0000
  Ni  Ni2       1.0  0.38899075984954834  0.6047089099884033  0.2615390121936798  1.0000
  Ni  Ni3       1.0  0.886115550994873  0.767891526222229  0.08393606543540956  1.0000
