data_image0
_chemical_formula_structural       As3Au4Ni2
_chemical_formula_sum              "As3 Au4 Ni2"
_cell_length_a       3.9829451511950036
_cell_length_b       6.67579222084219
_cell_length_c       6.660646915435791
_cell_angle_alpha    113.75594242627147
_cell_angle_beta     90.03305095412752
_cell_angle_gamma    90.04904514518465

_space_group_name_H-M_alt    "P 1"
_space_group_IT_number       1

loop_
  _space_group_symop_operation_xyz
  'x, y, z'

loop_
  _atom_site_type_symbol
  _atom_site_label
  _atom_site_symmetry_multiplicity
  _atom_site_fract_x
  _atom_site_fract_y
  _atom_site_fract_z
  _atom_site_occupancy
  As  As1       1.0  0.2749197781085968  0.9649744033813477  0.603809118270874  1.0000
  As  As2       1.0  0.2745834290981293  0.4733612835407257  0.10766677558422087  1.0000
  As  As3       1.0  0.7748032212257385  0.9665988087654114  0.11330908536911014  1.0000
  Au  Au1       1.0  0.7735196948051453  0.19564348459243774  0.8859978318214417  1.0000
  Au  Au2       1.0  0.27416926622390747  0.1957516074180603  0.28813329339027405  1.0000
  Au  Au3       1.0  0.27298375964164734  0.7508893609046936  0.8790504336357117  1.0000
  Au  Au4       1.0  0.7741769552230835  0.7339422702789307  0.3483942449092865  1.0000
  Ni  Ni1       1.0  0.7755225896835327  0.4838925302028656  0.5803736448287965  1.0000
  Ni  Ni2       1.0  0.27176523208618164  0.35257238149642944  0.7209883332252502  1.0000
