data_image0
_chemical_formula_structural       FeILuO5Sr2
_chemical_formula_sum              "Fe1 I1 Lu1 O5 Sr2"
_cell_length_a       5.449506189961026
_cell_length_b       5.532257705794181
_cell_length_c       8.761140823364258
_cell_angle_alpha    76.54120019090155
_cell_angle_beta     68.4655416214919
_cell_angle_gamma    61.012753894024705

_space_group_name_H-M_alt    "P 1"
_space_group_IT_number       1

loop_
  _space_group_symop_operation_xyz
  'x, y, z'

loop_
  _atom_site_type_symbol
  _atom_site_label
  _atom_site_symmetry_multiplicity
  _atom_site_fract_x
  _atom_site_fract_y
  _atom_site_fract_z
  _atom_site_occupancy
  Fe  Fe1       1.0  0.2234695702791214  0.3825377821922302  0.9622704982757568  1.0000
  I   I1        1.0  0.24920275807380676  0.4679466485977173  0.01661076955497265  1.0000
  Lu  Lu1       1.0  0.24226133525371552  0.526423454284668  0.6237104535102844  1.0000
  O   O1        1.0  0.7947858572006226  0.50351482629776  0.13340146839618677  1.0000
  O   O2        1.0  0.8243458867073059  0.6587059497833252  0.7600197196006775  1.0000
  O   O3        1.0  0.09041274338960648  0.347140371799469  0.6301736831665039  1.0000
  O   O4        1.0  0.5434082746505737  0.6606361865997314  0.7677949070930481  1.0000
  O   O5        1.0  0.28622153401374817  0.5592131614685059  0.9505302906036377  1.0000
  Sr  Sr1       1.0  0.6031465530395508  0.7556646466255188  0.8451855182647705  1.0000
  Sr  Sr2       1.0  0.7727411389350891  0.5760176181793213  0.4634295403957367  1.0000
