data_image0
_chemical_formula_structural       ILi2O4PSrZr
_chemical_formula_sum              "I1 Li2 O4 P1 Sr1 Zr1"
_cell_length_a       5.522222279847498
_cell_length_b       6.4815538881087855
_cell_length_c       7.015822410583496
_cell_angle_alpha    115.11248696279074
_cell_angle_beta     97.70053465543174
_cell_angle_gamma    108.70033139698387

_space_group_name_H-M_alt    "P 1"
_space_group_IT_number       1

loop_
  _space_group_symop_operation_xyz
  'x, y, z'

loop_
  _atom_site_type_symbol
  _atom_site_label
  _atom_site_symmetry_multiplicity
  _atom_site_fract_x
  _atom_site_fract_y
  _atom_site_fract_z
  _atom_site_occupancy
  I   I1        1.0  0.08201979100704193  0.7687494158744812  0.8143052458763121  1.0000
  Li  Li1       1.0  0.5771213173866272  0.2630063593387604  0.9908332228660582  1.0000
  Li  Li2       1.0  0.069617584347725  0.9678574204444886  0.9995861053466796  1.0000
  O   O1        1.0  0.5685917735099792  0.33599933981895447  0.7664028406143187  1.0000
  O   O2        1.0  0.5774149894714355  0.22938159108161926  0.5167548656463623  1.0000
  O   O3        1.0  0.5670817494392395  0.437092661857605  0.4443212151527404  1.0000
  O   O4        1.0  0.10582278668880463  0.31739091873168945  0.32059466838836664  1.0000
  P   P1        1.0  0.5807033777236938  0.25688451528549194  0.06170893087983131  1.0000
  Sr  Sr1       1.0  0.577512264251709  0.5208425521850586  0.409068077802658  1.0000
  Zr  Zr1       1.0  0.07613801211118698  0.8247680068016052  0.8367158770561217  1.0000
