data_image0
_chemical_formula_structural       FeI2O3Sr4
_chemical_formula_sum              "Fe1 I2 O3 Sr4"
_cell_length_a       4.770293504166757
_cell_length_b       4.688778908854571
_cell_length_c       9.432629585266113
_cell_angle_alpha    89.84612118587515
_cell_angle_beta     89.27378877470224
_cell_angle_gamma    97.62806090598211

_space_group_name_H-M_alt    "P 1"
_space_group_IT_number       1

loop_
  _space_group_symop_operation_xyz
  'x, y, z'

loop_
  _atom_site_type_symbol
  _atom_site_label
  _atom_site_symmetry_multiplicity
  _atom_site_fract_x
  _atom_site_fract_y
  _atom_site_fract_z
  _atom_site_occupancy
  Fe  Fe1       1.0  0.7496475577354431  0.8076785802841187  0.15421611070632935  1.0000
  I   I1        1.0  0.745490312576294  0.6879141330718994  0.21643967926502228  1.0000
  I   I2        1.0  0.24800246953964233  0.13721226155757904  0.5157740116119385  1.0000
  O   O1        1.0  0.2576896548271179  0.8163107633590698  0.739436686038971  1.0000
  O   O2        1.0  0.761176347732544  0.48983398079872126  0.11161485314369202  1.0000
  O   O3        1.0  0.7106219530105591  0.36959758400917053  0.49087274074554443  1.0000
  Sr  Sr1       1.0  0.7700864672660828  0.034756992012262344  0.23200978338718414  1.0000
  Sr  Sr2       1.0  0.25814786553382874  0.881129801273346  0.6428096294403076  1.0000
  Sr  Sr3       1.0  0.24662898480892181  0.783819854259491  0.6955568790435791  1.0000
  Sr  Sr4       1.0  0.23942601680755615  0.8345744609832764  0.2904089391231537  1.0000
