data_image0
_chemical_formula_structural       Fe5O3Sr2
_chemical_formula_sum              "Fe5 O3 Sr2"
_cell_length_a       4.62495499795168
_cell_length_b       4.8405060489346035
_cell_length_c       4.817890644073486
_cell_angle_alpha    67.59681736145757
_cell_angle_beta     65.88202482920508
_cell_angle_gamma    62.8845946360412

_space_group_name_H-M_alt    "P 1"
_space_group_IT_number       1

loop_
  _space_group_symop_operation_xyz
  'x, y, z'

loop_
  _atom_site_type_symbol
  _atom_site_label
  _atom_site_symmetry_multiplicity
  _atom_site_fract_x
  _atom_site_fract_y
  _atom_site_fract_z
  _atom_site_occupancy
  Fe  Fe1       1.0  0.5292015671730042  0.7387668490409851  0.08823208510875712  1.0000
  Fe  Fe2       1.0  0.04548078775405884  0.5880486965179443  0.9129067659378052  1.0000
  Fe  Fe3       1.0  0.5294370055198669  0.8215908408164978  0.7580139636993408  1.0000
  Fe  Fe4       1.0  0.532136857509613  0.3694746494293213  0.08548890054225927  1.0000
  Fe  Fe5       1.0  0.9245200753211975  0.29307621717453003  0.32199913263320923  1.0000
  O   O1        1.0  0.027724476531147957  0.6719138026237488  0.7887738347053528  1.0000
  O   O2        1.0  0.01678800955414772  0.3192013204097748  0.8970005512237549  1.0000
  O   O3        1.0  0.3657437264919281  0.2803400456905365  0.9252312183380127  1.0000
  Sr  Sr1       1.0  0.038059670478105545  0.8709030151367188  0.8067085146903992  1.0000
  Sr  Sr2       1.0  0.5328440070152283  0.266290545463562  0.547019362449646  1.0000
