data_image0
_chemical_formula_structural       FeHO3Sr5
_chemical_formula_sum              "Fe1 H1 O3 Sr5"
_cell_length_a       5.626649809141818
_cell_length_b       6.043490658414742
_cell_length_c       6.716434478759766
_cell_angle_alpha    71.23690967189697
_cell_angle_beta     70.95912712304154
_cell_angle_gamma    66.45084861428715

_space_group_name_H-M_alt    "P 1"
_space_group_IT_number       1

loop_
  _space_group_symop_operation_xyz
  'x, y, z'

loop_
  _atom_site_type_symbol
  _atom_site_label
  _atom_site_symmetry_multiplicity
  _atom_site_fract_x
  _atom_site_fract_y
  _atom_site_fract_z
  _atom_site_occupancy
  Fe  Fe1       1.0  0.5290827751159668  0.2926492989063263  0.3037388026714325  1.0000
  H   H1        1.0  0.5737637281417847  0.3360801041126251  0.13186053931713104  1.0000
  O   O1        1.0  0.11268840730190277  0.9653616547584534  0.9036370515823364  1.0000
  O   O2        1.0  0.8973850607872009  0.6902772784233093  0.8051067590713501  1.0000
  O   O3        1.0  0.9053778052330017  0.3604085147380829  0.5497214198112488  1.0000
  Sr  Sr1       1.0  0.9446035623550415  0.7693923711776733  0.12448485940694809  1.0000
  Sr  Sr2       1.0  0.5722091197967529  0.32632654905319214  0.08591778576374054  1.0000
  Sr  Sr3       1.0  0.08438266813755035  0.2975945770740509  0.9336050748825073  1.0000
  Sr  Sr4       1.0  0.5644357800483704  0.140603706240654  0.05319621413946152  1.0000
  Sr  Sr5       1.0  0.6315417885780334  0.9399989247322083  0.231122225522995  1.0000
