data_image0
_chemical_formula_structural       Fe4O4Sr2
_chemical_formula_sum              "Fe4 O4 Sr2"
_cell_length_a       4.91326844750881
_cell_length_b       5.506631364595711
_cell_length_c       5.3647141456604
_cell_angle_alpha    82.25186984030071
_cell_angle_beta     74.44388421549955
_cell_angle_gamma    71.8273926670111

_space_group_name_H-M_alt    "P 1"
_space_group_IT_number       1

loop_
  _space_group_symop_operation_xyz
  'x, y, z'

loop_
  _atom_site_type_symbol
  _atom_site_label
  _atom_site_symmetry_multiplicity
  _atom_site_fract_x
  _atom_site_fract_y
  _atom_site_fract_z
  _atom_site_occupancy
  Fe  Fe1       1.0  0.41206130385398865  0.10556287318468095  0.7288789153099061  1.0000
  Fe  Fe2       1.0  0.9581059813499451  0.06669197231531143  0.33839449286460876  1.0000
  Fe  Fe3       1.0  0.46834972500801086  0.03331056982278824  0.11868018656969069  1.0000
  Fe  Fe4       1.0  0.47554096579551697  0.2916002869606018  0.455337256193161  1.0000
  O   O1        1.0  0.7355009317398071  0.612180769443512  0.26142266392707825  1.0000
  O   O2        1.0  0.998314380645752  0.41106685996055603  0.2195727676153183  1.0000
  O   O3        1.0  0.994832456111908  0.5413558483123779  0.35380977392196655  1.0000
  O   O4        1.0  0.4961773157119751  0.20022405683994293  0.005212643649429083  1.0000
  Sr  Sr1       1.0  0.9573017358779907  0.3016238808631897  0.9336503148078918  1.0000
  Sr  Sr2       1.0  0.9671630263328552  0.22443711757659915  0.8877286314964294  1.0000
