data_image0
_chemical_formula_structural       As2CuPPt2Zn
_chemical_formula_sum              "As2 Cu1 P1 Pt2 Zn1"
_cell_length_a       5.8411592543908375
_cell_length_b       5.893761337824237
_cell_length_c       6.778796195983887
_cell_angle_alpha    116.39035255393861
_cell_angle_beta     95.74131815114434
_cell_angle_gamma    91.57652291082272

_space_group_name_H-M_alt    "P 1"
_space_group_IT_number       1

loop_
  _space_group_symop_operation_xyz
  'x, y, z'

loop_
  _atom_site_type_symbol
  _atom_site_label
  _atom_site_symmetry_multiplicity
  _atom_site_fract_x
  _atom_site_fract_y
  _atom_site_fract_z
  _atom_site_occupancy
  As  As1       1.0  0.6752323508262634  0.5232402086257935  0.0447387732565403  1.0000
  As  As2       1.0  0.1683405041694641  0.09282822161912918  0.48357337713241577  1.0000
  Cu  Cu1       1.0  0.43124088644981384  0.391330361366272  0.26708680391311646  1.0000
  P   P1        1.0  0.9077265858650208  0.7153156995773315  0.11391233652830124  1.0000
  Pt  Pt1       1.0  0.15730716288089752  0.1691948026418686  0.11991950124502182  1.0000
  Pt  Pt2       1.0  0.16236786544322968  0.3933720588684082  0.139621764421463  1.0000
  Zn  Zn1       1.0  0.65812748670578  0.6354898810386658  0.15365861356258392  1.0000
