data_image0
_chemical_formula_structural       As4Cu3
_chemical_formula_sum              "As4 Cu3"
_cell_length_a       4.07007343715361
_cell_length_b       5.082691887350642
_cell_length_c       5.845572471618652
_cell_angle_alpha    104.34292328755281
_cell_angle_beta     90.40253348828472
_cell_angle_gamma    88.70692054675531

_space_group_name_H-M_alt    "P 1"
_space_group_IT_number       1

loop_
  _space_group_symop_operation_xyz
  'x, y, z'

loop_
  _atom_site_type_symbol
  _atom_site_label
  _atom_site_symmetry_multiplicity
  _atom_site_fract_x
  _atom_site_fract_y
  _atom_site_fract_z
  _atom_site_occupancy
  As  As1       1.0  0.7745340466499329  0.07952183485031128  0.43507546186447144  1.0000
  As  As2       1.0  0.2604188024997711  0.1595509797334671  0.45112287998199463  1.0000
  As  As3       1.0  0.27182596921920776  0.2803344428539276  0.31472137570381165  1.0000
  As  As4       1.0  0.2650567293167114  0.8119091987609863  0.9666175246238708  1.0000
  Cu  Cu1       1.0  0.7700887322425842  0.6007801294326782  0.31574293971061707  1.0000
  Cu  Cu2       1.0  0.7703427672386169  0.6160778999328613  0.2332068532705307  1.0000
  Cu  Cu3       1.0  0.2726750075817108  0.8828207850456238  0.05923958867788319  1.0000
