data_image0
_chemical_formula_structural       As3DyPZnZr
_chemical_formula_sum              "As3 Dy1 P1 Zn1 Zr1"
_cell_length_a       4.176233538774269
_cell_length_b       3.741054285656614
_cell_length_c       8.333793640136719
_cell_angle_alpha    99.71642904345526
_cell_angle_beta     89.4412094459701
_cell_angle_gamma    129.39717704109623

_space_group_name_H-M_alt    "P 1"
_space_group_IT_number       1

loop_
  _space_group_symop_operation_xyz
  'x, y, z'

loop_
  _atom_site_type_symbol
  _atom_site_label
  _atom_site_symmetry_multiplicity
  _atom_site_fract_x
  _atom_site_fract_y
  _atom_site_fract_z
  _atom_site_occupancy
  As  As1       1.0  0.3919760286808014  0.9134901165962219  0.8732812404632568  1.0000
  As  As2       1.0  0.5887253284454346  0.8046162724494934  0.9092316627502441  1.0000
  As  As3       1.0  0.23986801505088806  0.7305567264556885  0.10474187880754471  1.0000
  Dy  Dy1       1.0  0.3695773482322693  0.58937007188797  0.9559150338172914  1.0000
  P   P1        1.0  0.857970118522644  0.597028374671936  0.5454805493354797  1.0000
  Zn  Zn1       1.0  0.3545263409614563  0.2274489849805832  0.5419783592224121  1.0000
  Zr  Zr1       1.0  0.8693448305130006  0.9897461533546449  0.4210623502731323  1.0000
