data_image0
_chemical_formula_structural       As4Cu3
_chemical_formula_sum              "As4 Cu3"
_cell_length_a       4.347866466700152
_cell_length_b       4.779343586183537
_cell_length_c       6.144568920135498
_cell_angle_alpha    113.87732765589313
_cell_angle_beta     95.94405867207891
_cell_angle_gamma    90.73525729127377

_space_group_name_H-M_alt    "P 1"
_space_group_IT_number       1

loop_
  _space_group_symop_operation_xyz
  'x, y, z'

loop_
  _atom_site_type_symbol
  _atom_site_label
  _atom_site_symmetry_multiplicity
  _atom_site_fract_x
  _atom_site_fract_y
  _atom_site_fract_z
  _atom_site_occupancy
  As  As1       1.0  0.6800771951675415  0.2034943401813507  0.13053470849990845  1.0000
  As  As2       1.0  0.682864785194397  0.12136302143335342  0.5686993598937988  1.0000
  As  As3       1.0  0.17273607850074768  0.6113359332084656  0.3200013339519501  1.0000
  As  As4       1.0  0.6817172169685364  0.5795591473579407  0.09300599992275238  1.0000
  Cu  Cu1       1.0  0.18051539361476898  0.2495133876800537  0.6956978440284729  1.0000
  Cu  Cu2       1.0  0.67769455909729  0.7086655497550964  0.17800767719745636  1.0000
  Cu  Cu3       1.0  0.17804470658302307  0.7894359827041626  0.27885979413986206  1.0000
