data_image0
_chemical_formula_structural       FGe2H3HoLaO2P
_chemical_formula_sum              "F1 Ge2 H3 Ho1 La1 O2 P1"
_cell_length_a       5.246700086116274
_cell_length_b       6.56834507944404
_cell_length_c       7.137217998504639
_cell_angle_alpha    81.49961146032432
_cell_angle_beta     77.63337075660563
_cell_angle_gamma    74.95969470622205

_space_group_name_H-M_alt    "P 1"
_space_group_IT_number       1

loop_
  _space_group_symop_operation_xyz
  'x, y, z'

loop_
  _atom_site_type_symbol
  _atom_site_label
  _atom_site_symmetry_multiplicity
  _atom_site_fract_x
  _atom_site_fract_y
  _atom_site_fract_z
  _atom_site_occupancy
  F   F1        1.0  0.5906392335891724  0.04294223338365555  0.31318116188049316  1.0000
  Ge  Ge1       1.0  0.6162649989128113  0.03639863431453705  0.5584583282470703  1.0000
  Ge  Ge2       1.0  0.6442356705665588  0.5237297415733337  0.2153146117925644  1.0000
  H   H1        1.0  0.1592720001935959  0.8991379737854004  0.22616787254810333  1.0000
  H   H2        1.0  0.6330683827400208  0.8376457691192627  0.4470306932926178  1.0000
  H   H3        1.0  0.6295877695083618  0.6862592697143555  0.9986888766288757  1.0000
  Ho  Ho1       1.0  0.13234789669513702  0.3616776466369629  0.2645202875137329  1.0000
  La  La1       1.0  0.1249304637312889  0.2936027944087982  0.49979838728904724  1.0000
  O   O1        1.0  0.4318106472492218  0.26914751529693604  0.01355935912579298  1.0000
  O   O2        1.0  0.6105794906616211  0.23984603583812714  0.9087210297584534  1.0000
  P   P1        1.0  0.12167197465896605  0.9553439617156982  0.7697508931159973  1.0000
