data_image0
_chemical_formula_structural       CoGe2H2LaN2O2Zn
_chemical_formula_sum              "Co1 Ge2 H2 La1 N2 O2 Zn1"
_cell_length_a       6.287925460351252
_cell_length_b       6.080552761003448
_cell_length_c       6.571288585662842
_cell_angle_alpha    110.06019238207607
_cell_angle_beta     111.64855909195197
_cell_angle_gamma    112.43523628983915

_space_group_name_H-M_alt    "P 1"
_space_group_IT_number       1

loop_
  _space_group_symop_operation_xyz
  'x, y, z'

loop_
  _atom_site_type_symbol
  _atom_site_label
  _atom_site_symmetry_multiplicity
  _atom_site_fract_x
  _atom_site_fract_y
  _atom_site_fract_z
  _atom_site_occupancy
  Co  Co1       1.0  0.9975712299346924  0.1989709734916687  0.33059367537498474  1.0000
  Ge  Ge1       1.0  0.3101225793361664  0.7119877934455872  0.887254536151886  1.0000
  Ge  Ge2       1.0  0.7127791047096252  0.8034728765487671  0.07096073031425469  1.0000
  H   H1        1.0  0.06318479031324387  0.9475399851799011  0.8285737037658691  1.0000
  H   H2        1.0  0.003933466039597988  0.800176739692688  0.11217706650495524  1.0000
  La  La1       1.0  0.4820941090583801  0.606369137763977  0.4187725782394409  1.0000
  N   N1        1.0  0.8491401672363281  0.7389144897460938  0.0793115571141243  1.0000
  N   N2        1.0  0.6960499882698059  0.10544556379318237  0.22186180949211126  1.0000
  O   O1        1.0  0.22068461775779724  0.059769827872514725  0.07427017390727997  1.0000
  O   O2        1.0  0.0446540005505085  0.5366339087486267  0.9632393717765808  1.0000
  Zn  Zn1       1.0  0.45782145857810974  0.37830549478530884  0.7471156716346741  1.0000
