data_image0
_chemical_formula_structural       H7NO3
_chemical_formula_sum              "H7 N1 O3"
_cell_length_a       4.601782891423457
_cell_length_b       5.394912544915796
_cell_length_c       6.111446380615234
_cell_angle_alpha    80.58842486433483
_cell_angle_beta     74.89352781595508
_cell_angle_gamma    73.28685357404215

_space_group_name_H-M_alt    "P 1"
_space_group_IT_number       1

loop_
  _space_group_symop_operation_xyz
  'x, y, z'

loop_
  _atom_site_type_symbol
  _atom_site_label
  _atom_site_symmetry_multiplicity
  _atom_site_fract_x
  _atom_site_fract_y
  _atom_site_fract_z
  _atom_site_occupancy
  H   H1        1.0  0.1635306477546692  0.7834835052490234  0.14136749505996704  1.0000
  H   H2        1.0  0.3611449897289276  0.43995270133018494  0.3255023956298828  1.0000
  H   H3        1.0  0.6876828074455261  0.825714111328125  0.2608642280101776  1.0000
  H   H4        1.0  0.12454401701688766  0.8208431005477905  0.03946748003363609  1.0000
  H   H5        1.0  0.13770166039466858  0.7219039797782898  0.9838030338287354  1.0000
  H   H6        1.0  0.16334360837936396  0.9626317620277406  0.1700572967529297  1.0000
  H   H7        1.0  0.6258882284164429  0.10911290347576141  0.8767493963241577  1.0000
  N   N1        1.0  0.1696983277797699  0.03691083565354347  0.16057515144348145  1.0000
  O   O1        1.0  0.669115424156189  0.1201494336128235  0.5875867009162903  1.0000
  O   O2        1.0  0.13163360953330994  0.7689540386199951  0.1954321414232254  1.0000
  O   O3        1.0  0.8246667981147766  0.4927275180816651  0.9853949546813965  1.0000
