data_image0
_chemical_formula_structural       CH3I2NO2PZr
_chemical_formula_sum              "C1 H3 I2 N1 O2 P1 Zr1"
_cell_length_a       5.2368665696800845
_cell_length_b       5.382002333423734
_cell_length_c       8.869175910949707
_cell_angle_alpha    90.36171538048514
_cell_angle_beta     91.5363831082587
_cell_angle_gamma    95.1452563347065

_space_group_name_H-M_alt    "P 1"
_space_group_IT_number       1

loop_
  _space_group_symop_operation_xyz
  'x, y, z'

loop_
  _atom_site_type_symbol
  _atom_site_label
  _atom_site_symmetry_multiplicity
  _atom_site_fract_x
  _atom_site_fract_y
  _atom_site_fract_z
  _atom_site_occupancy
  C   C1        1.0  0.31862756609916687  0.7483749985694885  0.6501742005348206  1.0000
  H   H1        1.0  0.49484935402870184  0.03205309435725212  0.5315445065498352  1.0000
  H   H2        1.0  0.5578756928443909  0.3289153277873993  0.5735726356506348  1.0000
  H   H3        1.0  0.7952759265899658  0.7127563953399658  0.2821825444698334  1.0000
  I   I1        1.0  0.8012914061546326  0.5019596815109253  0.14445453882217407  1.0000
  I   I2        1.0  0.05350220575928689  0.3611088693141937  0.8392452001571655  1.0000
  N   N1        1.0  0.856993317604065  0.8474642038345337  0.459505558013916  1.0000
  O   O1        1.0  0.8373112678527833  0.004727114457637072  0.5491732954978943  1.0000
  O   O2        1.0  0.2971207797527313  0.22811326384544373  0.2455768883228302  1.0000
  P   P1        1.0  0.49822539091110235  0.43872201442718506  0.7033399939537048  1.0000
  Zr  Zr1       1.0  0.8084990382194519  0.1918332427740097  0.27966463565826416  1.0000
