data_image0
_chemical_formula_structural       C2CoH5O3
_chemical_formula_sum              "C2 Co1 H5 O3"
_cell_length_a       4.293799961324797
_cell_length_b       4.61160906108522
_cell_length_c       5.766335487365723
_cell_angle_alpha    80.25170082821357
_cell_angle_beta     68.6922822641548
_cell_angle_gamma    63.971917414169276

_space_group_name_H-M_alt    "P 1"
_space_group_IT_number       1

loop_
  _space_group_symop_operation_xyz
  'x, y, z'

loop_
  _atom_site_type_symbol
  _atom_site_label
  _atom_site_symmetry_multiplicity
  _atom_site_fract_x
  _atom_site_fract_y
  _atom_site_fract_z
  _atom_site_occupancy
  C   C1        1.0  0.21687670052051544  0.24933932721614838  0.650565505027771  1.0000
  C   C2        1.0  0.7078752517700195  0.04210425168275833  0.4173613488674164  1.0000
  Co  Co1       1.0  0.7062762379646301  0.5305215716362  0.43922990560531616  1.0000
  H   H1        1.0  0.6998619437217712  0.3433471918106079  0.5266059637069702  1.0000
  H   H2        1.0  0.2146429419517517  0.6432883143424988  0.9089522361755371  1.0000
  H   H3        1.0  0.44189104437828064  0.6564373970031738  0.42123308777809143  1.0000
  H   H4        1.0  0.2254388928413391  0.11405022442340851  0.23632939159870148  1.0000
  H   H5        1.0  0.19875583052635193  0.943253755569458  0.502354621887207  1.0000
  O   O1        1.0  0.9719632267951965  0.5024627447128296  0.8529711365699768  1.0000
  O   O2        1.0  0.7004339098930359  0.1872163861989975  0.8778889179229736  1.0000
  O   O3        1.0  0.9524248242378235  0.0707300677895546  0.8887057900428772  1.0000
