data_image0
_chemical_formula_structural       CCoGaGeH4NO2
_chemical_formula_sum              "C1 Co1 Ga1 Ge1 H4 N1 O2"
_cell_length_a       4.85778907278302
_cell_length_b       4.754402904637607
_cell_length_c       7.649412631988525
_cell_angle_alpha    91.2713999769288
_cell_angle_beta     92.7108008103296
_cell_angle_gamma    104.63626630548897

_space_group_name_H-M_alt    "P 1"
_space_group_IT_number       1

loop_
  _space_group_symop_operation_xyz
  'x, y, z'

loop_
  _atom_site_type_symbol
  _atom_site_label
  _atom_site_symmetry_multiplicity
  _atom_site_fract_x
  _atom_site_fract_y
  _atom_site_fract_z
  _atom_site_occupancy
  C   C1        1.0  0.9381099939346313  0.2513425648212433  0.26306018233299255  1.0000
  Co  Co1       1.0  0.26896676421165466  0.5786814093589783  0.3080764710903168  1.0000
  Ga  Ga1       1.0  0.7361998558044434  0.6075782179832458  0.9274448156356812  1.0000
  Ge  Ge1       1.0  0.761071503162384  0.5932857394218445  0.5312115550041199  1.0000
  H   H1        1.0  0.2549566328525543  0.11780404299497604  0.12817467749118805  1.0000
  H   H2        1.0  0.9068732261657715  0.004606462549418211  0.3593599796295166  1.0000
  H   H3        1.0  0.23178307712078094  0.8160567283630371  0.9460918307304381  1.0000
  H   H4        1.0  0.4485989809036255  0.174641951918602  0.699472963809967  1.0000
  N   N1        1.0  0.2372225821018219  0.834613561630249  0.8037713170051575  1.0000
  O   O1        1.0  0.20963308215141296  0.35138630867004395  0.4995928406715393  1.0000
  O   O2        1.0  0.2323109656572342  0.4574846923351288  0.5224153995513916  1.0000
