data_image0
_chemical_formula_structural       Li4O7P2
_chemical_formula_sum              "Li4 O7 P2"
_cell_length_a       4.134623791507957
_cell_length_b       6.537100165033194
_cell_length_c       6.704950332641602
_cell_angle_alpha    100.81827753890312
_cell_angle_beta     97.36718240067788
_cell_angle_gamma    89.1368912226335

_space_group_name_H-M_alt    "P 1"
_space_group_IT_number       1

loop_
  _space_group_symop_operation_xyz
  'x, y, z'

loop_
  _atom_site_type_symbol
  _atom_site_label
  _atom_site_symmetry_multiplicity
  _atom_site_fract_x
  _atom_site_fract_y
  _atom_site_fract_z
  _atom_site_occupancy
  Li  Li1       1.0  0.7976913452148438  0.6328245401382447  0.8124002814292908  1.0000
  Li  Li2       1.0  0.1511155217885971  0.8681716918945314  0.1406680941581726  1.0000
  Li  Li3       1.0  0.4352051913738251  0.5776155591011047  0.31444835662841797  1.0000
  Li  Li4       1.0  0.6836228370666504  0.13952545821666718  0.5825098752975464  1.0000
  O   O1        1.0  0.5224157571792603  0.6933618783950807  0.43069925904273987  1.0000
  O   O2        1.0  0.8188954591751099  0.010345218703150751  0.8187304139137268  1.0000
  O   O3        1.0  0.9253574013710022  0.22885683178901675  0.5128276348114014  1.0000
  O   O4        1.0  0.9390026330947876  0.5716262459754944  0.7265652418136597  1.0000
  O   O5        1.0  0.20474061369895935  0.6010403037071228  0.7679187655448914  1.0000
  O   O6        1.0  0.32447272539138794  0.3397537767887116  0.3900087773799896  1.0000
  O   O7        1.0  0.6607291102409364  0.42193242907524114  0.04926886409521103  1.0000
  P   P1        1.0  0.38941454887390137  0.2380623370409012  0.9062603712081909  1.0000
  P   P2        1.0  0.4102090001106262  0.8501024842262269  0.7277026772499084  1.0000
