data_image0
_chemical_formula_structural       Li2Na2O5P4
_chemical_formula_sum              "Li2 Na2 O5 P4"
_cell_length_a       5.70814811731979
_cell_length_b       6.046661613704521
_cell_length_c       6.27172327041626
_cell_angle_alpha    75.97372945411126
_cell_angle_beta     63.51976777085104
_cell_angle_gamma    65.5661561336253

_space_group_name_H-M_alt    "P 1"
_space_group_IT_number       1

loop_
  _space_group_symop_operation_xyz
  'x, y, z'

loop_
  _atom_site_type_symbol
  _atom_site_label
  _atom_site_symmetry_multiplicity
  _atom_site_fract_x
  _atom_site_fract_y
  _atom_site_fract_z
  _atom_site_occupancy
  Li  Li1       1.0  0.6688411831855774  0.15074969828128815  0.0559956356883049  1.0000
  Li  Li2       1.0  0.6748355627059937  0.09789769351482391  0.8646293878555298  1.0000
  Na  Na1       1.0  0.1742127537727356  0.6088593006134033  0.8790591359138489  1.0000
  Na  Na2       1.0  0.9531483054161072  0.42256563901901245  0.4595751464366913  1.0000
  O   O1        1.0  0.4583253264427185  0.3806813359260559  0.710936963558197  1.0000
  O   O2        1.0  0.8235909342765808  0.9823664426803589  0.05348840728402138  1.0000
  O   O3        1.0  0.7456295490264893  0.8157451748847961  0.3738109767436981  1.0000
  O   O4        1.0  0.2966540455818176  0.11871619522571564  0.6839854717254639  1.0000
  O   O5        1.0  0.7451311945915222  0.437791109085083  0.8129473328590393  1.0000
  P   P1        1.0  0.8713313937187195  0.012213661335408688  0.07504395395517349  1.0000
  P   P2        1.0  0.8509207963943481  0.8055642247200012  0.5249535441398621  1.0000
  P   P3        1.0  0.3917350471019745  0.008586299605667591  0.38320666551589966  1.0000
  P   P4        1.0  0.3854300379753113  0.4916940927505493  0.38545703887939453  1.0000
