data_image0
_chemical_formula_structural       Li3NaO7P2
_chemical_formula_sum              "Li3 Na1 O7 P2"
_cell_length_a       4.44226555964102
_cell_length_b       6.104260879699924
_cell_length_c       6.030630588531494
_cell_angle_alpha    104.05671273822907
_cell_angle_beta     91.63246679833009
_cell_angle_gamma    94.985395116762

_space_group_name_H-M_alt    "P 1"
_space_group_IT_number       1

loop_
  _space_group_symop_operation_xyz
  'x, y, z'

loop_
  _atom_site_type_symbol
  _atom_site_label
  _atom_site_symmetry_multiplicity
  _atom_site_fract_x
  _atom_site_fract_y
  _atom_site_fract_z
  _atom_site_occupancy
  Li  Li1       1.0  0.394253134727478  0.14446280896663666  0.8948626518249512  1.0000
  Li  Li2       1.0  0.5435143709182739  0.6494089365005493  0.35096216201782227  1.0000
  Li  Li3       1.0  0.7302999496459961  0.4452076256275177  0.038751497864723206  1.0000
  Na  Na1       1.0  0.011732122860848904  0.3857722878456116  0.8520960211753845  1.0000
  O   O1        1.0  0.685489296913147  0.013026357628405094  0.007609502878040075  1.0000
  O   O2        1.0  0.24291817843914032  0.4726884961128235  0.567717969417572  1.0000
  O   O3        1.0  0.552626371383667  0.9791016578674316  0.2365734726190567  1.0000
  O   O4        1.0  0.04118005931377411  0.7343155145645142  0.3057072162628174  1.0000
  O   O5        1.0  0.9505738019943237  0.34103602170944214  0.27432429790496826  1.0000
  O   O6        1.0  0.7206506729125977  0.5106931328773499  0.7388272285461426  1.0000
  O   O7        1.0  0.29357826709747314  0.6838667392730713  0.7049024701118469  1.0000
  P   P1        1.0  0.5711608529090881  0.880093514919281  0.63417649269104  1.0000
  P   P2        1.0  0.012184929102659225  0.6461606025695801  0.3396327495574951  1.0000
