data_image0
_chemical_formula_structural       Li4O7P2
_chemical_formula_sum              "Li4 O7 P2"
_cell_length_a       5.758279367257042
_cell_length_b       5.901351821920524
_cell_length_c       6.072178840637207
_cell_angle_alpha    62.87142334112916
_cell_angle_beta     60.75910440978221
_cell_angle_gamma    61.08400803385699

_space_group_name_H-M_alt    "P 1"
_space_group_IT_number       1

loop_
  _space_group_symop_operation_xyz
  'x, y, z'

loop_
  _atom_site_type_symbol
  _atom_site_label
  _atom_site_symmetry_multiplicity
  _atom_site_fract_x
  _atom_site_fract_y
  _atom_site_fract_z
  _atom_site_occupancy
  Li  Li1       1.0  0.6492179036140442  0.08765003830194473  0.21690307557582855  1.0000
  Li  Li2       1.0  0.41634902358055115  0.6183995604515076  0.9801223874092102  1.0000
  Li  Li3       1.0  0.06080685555934906  0.4278896450996399  0.8911733031272888  1.0000
  Li  Li4       1.0  0.8716868162155151  0.0840580016374588  0.7171388268470764  1.0000
  O   O1        1.0  0.771242082118988  0.26890018582344055  0.3836427628993988  1.0000
  O   O2        1.0  0.931395411491394  0.6528934240341187  0.9751949310302734  1.0000
  O   O3        1.0  0.2733544111251831  0.6320011019706726  0.0010709916241467  1.0000
  O   O4        1.0  0.4187862277030945  0.15911298990249634  0.6860647797584534  1.0000
  O   O5        1.0  0.571813702583313  0.12045334279537201  0.05965147539973259  1.0000
  O   O6        1.0  0.44315198063850403  0.17253965139389038  0.6000300049781799  1.0000
  O   O7        1.0  0.3400793671607971  0.8900664448738098  0.34036505222320557  1.0000
  P   P1        1.0  0.10149578005075455  0.7304993867874146  0.7031757235527039  1.0000
  P   P2        1.0  0.4739316403865814  0.406441867351532  0.8226060271263123  1.0000
