data_image0
_chemical_formula_structural       Li3NaO7P2
_chemical_formula_sum              "Li3 Na1 O7 P2"
_cell_length_a       3.6523810202323737
_cell_length_b       6.448149188111555
_cell_length_c       6.2267165184021
_cell_angle_alpha    105.66673123094859
_cell_angle_beta     93.40226333335563
_cell_angle_gamma    89.0058186386003

_space_group_name_H-M_alt    "P 1"
_space_group_IT_number       1

loop_
  _space_group_symop_operation_xyz
  'x, y, z'

loop_
  _atom_site_type_symbol
  _atom_site_label
  _atom_site_symmetry_multiplicity
  _atom_site_fract_x
  _atom_site_fract_y
  _atom_site_fract_z
  _atom_site_occupancy
  Li  Li1       1.0  0.5828340649604796  0.5929754972457886  0.6765748858451843  1.0000
  Li  Li2       1.0  0.08684018254280089  0.36732006072998047  0.9384028911590578  1.0000
  Li  Li3       1.0  0.11310516297817229  0.8338366746902467  0.4862345457077027  1.0000
  Na  Na1       1.0  0.6005111932754515  0.0856068879365921  0.8549663424491883  1.0000
  O   O1        1.0  0.11358124017715453  0.3628270924091339  0.014099146239459534  1.0000
  O   O2        1.0  0.5898497700691222  0.1424473226070404  0.7397160530090333  1.0000
  O   O3        1.0  0.11240145564079283  0.7800029516220094  0.848294496536255  1.0000
  O   O4        1.0  0.07405388355255126  0.583742082118988  0.214939296245575  1.0000
  O   O5        1.0  0.5804335474967955  0.06465954333543777  0.18498103320598605  1.0000
  O   O6        1.0  0.5833370089530944  0.663140058517456  0.0025056039448827687  1.0000
  O   O7        1.0  0.11697908490896224  0.3149746060371399  0.5187455415725708  1.0000
  P   P1        1.0  0.10722675919532774  0.8504800200462342  0.514738142490387  1.0000
  P   P2        1.0  0.10751962661743163  0.7419695258140565  0.5548539757728577  1.0000
