data_image0
_chemical_formula_structural       Li4NaO5P3
_chemical_formula_sum              "Li4 Na1 O5 P3"
_cell_length_a       4.0882897135445635
_cell_length_b       6.596224986018567
_cell_length_c       6.544244289398193
_cell_angle_alpha    104.44948806768346
_cell_angle_beta     89.40845498418695
_cell_angle_gamma    90.72518956681166

_space_group_name_H-M_alt    "P 1"
_space_group_IT_number       1

loop_
  _space_group_symop_operation_xyz
  'x, y, z'

loop_
  _atom_site_type_symbol
  _atom_site_label
  _atom_site_symmetry_multiplicity
  _atom_site_fract_x
  _atom_site_fract_y
  _atom_site_fract_z
  _atom_site_occupancy
  Li  Li1       1.0  0.2984295189380646  0.9893739819526672  0.7318105101585388  1.0000
  Li  Li2       1.0  0.2756668031215668  0.8198281526565552  0.4373294413089752  1.0000
  Li  Li3       1.0  0.5272511839866638  0.5521823763847351  0.1671036034822464  1.0000
  Li  Li4       1.0  0.752079427242279  0.8258568644523621  0.7238945960998535  1.0000
  Na  Na1       1.0  0.796194314956665  0.1622323989868164  0.05134078487753868  1.0000
  O   O1        1.0  0.8130190372467041  0.6073086261749268  0.3739088475704193  1.0000
  O   O2        1.0  0.041674695909023285  0.5065429210662842  0.09161683171987534  1.0000
  O   O3        1.0  0.26484963297843933  0.7617107033729553  0.0973140895366669  1.0000
  O   O4        1.0  0.5631623864173889  0.8040748834609985  0.37415891885757446  1.0000
  O   O5        1.0  0.508600115776062  0.0049132429994642735  0.13846908509731293  1.0000
  P   P1        1.0  0.026213476434350014  0.32932278513908386  0.24405984580516815  1.0000
  P   P2        1.0  0.003823030972853303  0.6327585577964783  0.849808394908905  1.0000
  P   P3        1.0  0.2813663184642792  0.24496664106845856  0.6254972815513611  1.0000
