data_image0
_chemical_formula_structural       I2LiP2Pt4SbSr
_chemical_formula_sum              "I2 Li1 P2 Pt4 Sb1 Sr1"
_cell_length_a       5.387736406245784
_cell_length_b       6.2877127232854475
_cell_length_c       7.493337631225586
_cell_angle_alpha    89.94104238765719
_cell_angle_beta     89.90608109402554
_cell_angle_gamma    91.14606951454374

_space_group_name_H-M_alt    "P 1"
_space_group_IT_number       1

loop_
  _space_group_symop_operation_xyz
  'x, y, z'

loop_
  _atom_site_type_symbol
  _atom_site_label
  _atom_site_symmetry_multiplicity
  _atom_site_fract_x
  _atom_site_fract_y
  _atom_site_fract_z
  _atom_site_occupancy
  I   I1        1.0  0.8827368021011353  0.1837564706802368  0.26972541213035583  1.0000
  I   I2        1.0  0.8859800696372986  0.3654054403305053  0.15904088318347934  1.0000
  Li  Li1       1.0  0.38216257095336914  0.7037391066551207  0.38533842563629156  1.0000
  P   P1        1.0  0.8795042037963867  0.8887676000595092  0.988108515739441  1.0000
  P   P2        1.0  0.8936605453491211  0.8825235366821288  0.1112218201160431  1.0000
  Pt  Pt1       1.0  0.9040360450744629  0.2807896137237549  0.49633085727691656  1.0000
  Pt  Pt2       1.0  0.8853206038475037  0.5841739773750305  0.7256453037261964  1.0000
  Pt  Pt3       1.0  0.8938049674034119  0.8059135079383849  0.7843763828277589  1.0000
  Pt  Pt4       1.0  0.38640695810317993  0.8856065273284911  0.6048696637153627  1.0000
  Sb  Sb1       1.0  0.3852432370185852  0.05334540829062461  0.23136366903781894  1.0000
  Sr  Sr1       1.0  0.38487890362739563  0.6146306395530701  0.8648709654808046  1.0000
