data_image0
_chemical_formula_structural       LiNP3Pt4SrTi
_chemical_formula_sum              "Li1 N1 P3 Pt4 Sr1 Ti1"
_cell_length_a       6.232845208895955
_cell_length_b       6.270095860470776
_cell_length_c       6.94874382019043
_cell_angle_alpha    72.95966757564102
_cell_angle_beta     73.98835143616866
_cell_angle_gamma    67.44198379306138

_space_group_name_H-M_alt    "P 1"
_space_group_IT_number       1

loop_
  _space_group_symop_operation_xyz
  'x, y, z'

loop_
  _atom_site_type_symbol
  _atom_site_label
  _atom_site_symmetry_multiplicity
  _atom_site_fract_x
  _atom_site_fract_y
  _atom_site_fract_z
  _atom_site_occupancy
  Li  Li1       1.0  0.4380055069923401  0.4320855438709259  0.16314387321472168  1.0000
  N   N1        1.0  0.939289391040802  0.8852812647819519  0.5930876135826111  1.0000
  P   P1        1.0  0.2444896548986435  0.6322968602180481  0.0036357047501951456  1.0000
  P   P2        1.0  0.9454702138900757  0.5729928016662598  0.2632518410682678  1.0000
  P   P3        1.0  0.9283602833747864  0.8855209946632385  0.8377261161804199  1.0000
  Pt  Pt1       1.0  0.4313031733036041  0.6222147345542908  0.5203350186347961  1.0000
  Pt  Pt2       1.0  0.21944324672222137  0.559559166431427  0.6802719831466675  1.0000
  Pt  Pt3       1.0  0.9255432486534119  0.015861373394727707  0.20639489591121674  1.0000
  Pt  Pt4       1.0  0.4360269606113434  0.2567530870437622  0.06752927601337433  1.0000
  Sr  Sr1       1.0  0.4325728416442871  0.41603174805641174  0.6093568801879883  1.0000
  Ti  Ti1       1.0  0.9869704842567444  0.3906833529472351  0.06375820189714432  1.0000
