data_image0
_chemical_formula_structural       PPt4Sr6
_chemical_formula_sum              "P1 Pt4 Sr6"
_cell_length_a       4.7663592371147505
_cell_length_b       5.024906783582533
_cell_length_c       8.518854141235352
_cell_angle_alpha    89.93028304316164
_cell_angle_beta     89.85320489730661
_cell_angle_gamma    89.5892869835542

_space_group_name_H-M_alt    "P 1"
_space_group_IT_number       1

loop_
  _space_group_symop_operation_xyz
  'x, y, z'

loop_
  _atom_site_type_symbol
  _atom_site_label
  _atom_site_symmetry_multiplicity
  _atom_site_fract_x
  _atom_site_fract_y
  _atom_site_fract_z
  _atom_site_occupancy
  P   P1        1.0  0.5199897885322571  0.028685046359896656  0.25259411334991455  1.0000
  Pt  Pt1       1.0  0.5222049355506897  0.6202523708343506  0.33944711089134216  1.0000
  Pt  Pt2       1.0  0.021879013627767563  0.2952871322631836  0.6938413977622986  1.0000
  Pt  Pt3       1.0  0.02525652013719082  0.1399509757757187  0.36122050881385803  1.0000
  Pt  Pt4       1.0  0.5259307622909546  0.6625640988349915  0.3652402460575104  1.0000
  Sr  Sr1       1.0  0.02384873479604721  0.11484929919242857  0.26152971386909485  1.0000
  Sr  Sr2       1.0  0.022688496857881546  0.4626795053482055  0.5744778513908386  1.0000
  Sr  Sr3       1.0  0.5226665735244751  0.7538922429084778  0.7552831172943115  1.0000
  Sr  Sr4       1.0  0.5234614014625549  0.9266520142555236  0.7379454374313354  1.0000
  Sr  Sr5       1.0  0.5231461524963379  0.7054348587989807  0.6853746175765991  1.0000
  Sr  Sr6       1.0  0.02431812696158886  0.6733457446098328  0.6750820875167847  1.0000
