data_image0
_chemical_formula_structural       P2PbPt5Sr3
_chemical_formula_sum              "P2 Pb1 Pt5 Sr3"
_cell_length_a       5.442775114111069
_cell_length_b       6.017776975422616
_cell_length_c       7.110316276550293
_cell_angle_alpha    90.03428368315491
_cell_angle_beta     90.33893753070672
_cell_angle_gamma    89.93625877609261

_space_group_name_H-M_alt    "P 1"
_space_group_IT_number       1

loop_
  _space_group_symop_operation_xyz
  'x, y, z'

loop_
  _atom_site_type_symbol
  _atom_site_label
  _atom_site_symmetry_multiplicity
  _atom_site_fract_x
  _atom_site_fract_y
  _atom_site_fract_z
  _atom_site_occupancy
  P   P1        1.0  0.6193339824676514  0.15731731057167053  0.8303796648979187  1.0000
  P   P2        1.0  0.6272616386413574  0.3519284129142761  0.8391581773757935  1.0000
  Pb  Pb1       1.0  0.1158525198698044  0.417561799287796  0.3362041115760803  1.0000
  Pt  Pt1       1.0  0.619628369808197  0.6565870046615601  0.28673869371414185  1.0000
  Pt  Pt2       1.0  0.6205966472625732  0.6391431093215942  0.8569087982177734  1.0000
  Pt  Pt3       1.0  0.12642671167850494  0.27574414014816284  0.8171254992485046  1.0000
  Pt  Pt4       1.0  0.11650884896516801  0.40796226263046265  0.918965220451355  1.0000
  Pt  Pt5       1.0  0.11920867115259172  0.2153521478176117  0.6446714401245117  1.0000
  Sr  Sr1       1.0  0.11883361637592317  0.9989804625511169  0.9254300594329834  1.0000
  Sr  Sr2       1.0  0.6201887130737305  0.6722577810287476  0.6076647043228149  1.0000
  Sr  Sr3       1.0  0.14151796698570251  0.2885395288467407  0.5131723284721375  1.0000
