data_image0
_chemical_formula_structural       IP2Pt6Sr2
_chemical_formula_sum              "I1 P2 Pt6 Sr2"
_cell_length_a       6.57757369963204
_cell_length_b       7.1566544799295615
_cell_length_c       7.64223051071167
_cell_angle_alpha    68.96666958903809
_cell_angle_beta     65.44350864026514
_cell_angle_gamma    65.69074293395262

_space_group_name_H-M_alt    "P 1"
_space_group_IT_number       1

loop_
  _space_group_symop_operation_xyz
  'x, y, z'

loop_
  _atom_site_type_symbol
  _atom_site_label
  _atom_site_symmetry_multiplicity
  _atom_site_fract_x
  _atom_site_fract_y
  _atom_site_fract_z
  _atom_site_occupancy
  I   I1        1.0  0.010095201432704926  0.8147624731063843  0.9095822572708129  1.0000
  P   P1        1.0  0.6107710599899292  0.29496777057647705  0.9847244024276732  1.0000
  P   P2        1.0  0.1160484030842781  0.3221728801727295  0.6323757767677307  1.0000
  Pt  Pt1       1.0  0.5593875646591187  0.5265012979507446  0.2609230577945709  1.0000
  Pt  Pt2       1.0  0.11869478970766068  0.3537622392177582  0.7746716141700745  1.0000
  Pt  Pt3       1.0  0.9132984280586243  0.31192585825920105  0.4258631765842437  1.0000
  Pt  Pt4       1.0  0.4697221517562866  0.3457016348838806  0.92710542678833  1.0000
  Pt  Pt5       1.0  0.16308990120887756  0.9223084449768066  0.0394064299762249  1.0000
  Pt  Pt6       1.0  0.6209328770637512  0.9432512521743774  0.06288614124059677  1.0000
  Sr  Sr1       1.0  0.6233490705490112  0.5813899040222168  0.5519275069236755  1.0000
  Sr  Sr2       1.0  0.1049349382519722  0.2832200229167938  0.2188116908073425  1.0000
