data_image0
_chemical_formula_structural       Pt4SbSr6
_chemical_formula_sum              "Pt4 Sb1 Sr6"
_cell_length_a       4.8880921062349065
_cell_length_b       5.483359133682418
_cell_length_c       11.75273323059082
_cell_angle_alpha    91.05966766801156
_cell_angle_beta     90.77556950511818
_cell_angle_gamma    92.64597332360322

_space_group_name_H-M_alt    "P 1"
_space_group_IT_number       1

loop_
  _space_group_symop_operation_xyz
  'x, y, z'

loop_
  _atom_site_type_symbol
  _atom_site_label
  _atom_site_symmetry_multiplicity
  _atom_site_fract_x
  _atom_site_fract_y
  _atom_site_fract_z
  _atom_site_occupancy
  Pt  Pt1       1.0  0.6935799717903137  0.3617876172065735  0.06347743421792984  1.0000
  Pt  Pt2       1.0  0.6980334520339966  0.3731302320957184  0.007606206461787224  1.0000
  Pt  Pt3       1.0  0.19816838204860687  0.18181248009204865  0.5372473001480103  1.0000
  Pt  Pt4       1.0  0.6971938610076904  0.34750813245773315  0.4116913080215454  1.0000
  Sb  Sb1       1.0  0.19589057564735413  0.8804597854614257  0.3838314712047577  1.0000
  Sr  Sr1       1.0  0.6962707042694092  0.6491109728813171  0.924315869808197  1.0000
  Sr  Sr2       1.0  0.1960846334695816  0.39576756954193115  0.8741046786308289  1.0000
  Sr  Sr3       1.0  0.6968214511871338  0.820810556411743  0.777743935585022  1.0000
  Sr  Sr4       1.0  0.19683736562728882  0.3875330686569214  0.3404266834259033  1.0000
  Sr  Sr5       1.0  0.19730497896671295  0.2617177665233612  0.5394260883331299  1.0000
  Sr  Sr6       1.0  0.6999375820159912  0.9508197307586669  0.01781895011663437  1.0000
