data_image0
_chemical_formula_structural       B3Co2LuY2Yb
_chemical_formula_sum              "B3 Co2 Lu1 Y2 Yb1"
_cell_length_a       4.796916052197292
_cell_length_b       4.938877967256335
_cell_length_c       5.864095211029053
_cell_angle_alpha    112.14670647601514
_cell_angle_beta     113.29943750651292
_cell_angle_gamma    86.16647266230771

_space_group_name_H-M_alt    "P 1"
_space_group_IT_number       1

loop_
  _space_group_symop_operation_xyz
  'x, y, z'

loop_
  _atom_site_type_symbol
  _atom_site_label
  _atom_site_symmetry_multiplicity
  _atom_site_fract_x
  _atom_site_fract_y
  _atom_site_fract_z
  _atom_site_occupancy
  B   B1        1.0  0.128608837723732  0.4205975830554962  0.3123205304145813  1.0000
  B   B2        1.0  0.11397003382444382  0.9789144992828369  0.1675676852464676  1.0000
  B   B3        1.0  0.8845500946044922  0.27101215720176697  0.9573771357536316  1.0000
  Co  Co1       1.0  0.9032497406005859  0.7974318265914917  0.9268015623092651  1.0000
  Co  Co2       1.0  0.4015716314315796  0.2806428074836731  0.9181824922561646  1.0000
  Lu  Lu1       1.0  0.8586938977241516  0.7945634722709656  0.7905899882316589  1.0000
  Y   Y1        1.0  0.12331008166074753  0.6869758367538452  0.19462542235851285  1.0000
  Y   Y2        1.0  0.4026887118816376  0.7986034750938416  0.9409478902816772  1.0000
  Yb  Yb1       1.0  0.6615198254585266  0.04249114543199539  0.4366261065006256  1.0000
