data_image0
_chemical_formula_structural       B2Co3LuY2Yb
_chemical_formula_sum              "B2 Co3 Lu1 Y2 Yb1"
_cell_length_a       3.4078175437617193
_cell_length_b       3.5219606477026084
_cell_length_c       8.50798511505127
_cell_angle_alpha    88.67662469737841
_cell_angle_beta     101.0452294569555
_cell_angle_gamma    136.37387755173907

_space_group_name_H-M_alt    "P 1"
_space_group_IT_number       1

loop_
  _space_group_symop_operation_xyz
  'x, y, z'

loop_
  _atom_site_type_symbol
  _atom_site_label
  _atom_site_symmetry_multiplicity
  _atom_site_fract_x
  _atom_site_fract_y
  _atom_site_fract_z
  _atom_site_occupancy
  B   B1        1.0  0.1829976588487625  0.8298986554145813  0.4261539876461029  1.0000
  B   B2        1.0  0.5491737127304077  0.3647238314151764  0.5853527188301086  1.0000
  Co  Co1       1.0  0.15131844580173492  0.10638324171304703  0.7229793667793274  1.0000
  Co  Co2       1.0  0.10287809371948242  0.5849360227584839  0.037642158567905426  1.0000
  Co  Co3       1.0  0.5448822379112244  0.34932076930999756  0.8389752507209778  1.0000
  Lu  Lu1       1.0  0.6363785862922668  0.6111021637916565  0.7312038540840149  1.0000
  Y   Y1        1.0  0.8510905504226685  0.8050811290740967  0.3865671157836914  1.0000
  Y   Y2        1.0  0.2153102159500122  0.8220289945602417  0.23364976048469543  1.0000
  Yb  Yb1       1.0  0.666200578212738  0.09600124508142471  0.5131953954696655  1.0000
