data_image0
_chemical_formula_structural       B2Co2Lu3SiY
_chemical_formula_sum              "B2 Co2 Lu3 Si1 Y1"
_cell_length_a       5.6947401056361135
_cell_length_b       5.808281090536322
_cell_length_c       6.2387776374816895
_cell_angle_alpha    107.0421940927002
_cell_angle_beta     106.63166105478233
_cell_angle_gamma    111.67831298471968

_space_group_name_H-M_alt    "P 1"
_space_group_IT_number       1

loop_
  _space_group_symop_operation_xyz
  'x, y, z'

loop_
  _atom_site_type_symbol
  _atom_site_label
  _atom_site_symmetry_multiplicity
  _atom_site_fract_x
  _atom_site_fract_y
  _atom_site_fract_z
  _atom_site_occupancy
  B   B1        1.0  0.4500458538532257  0.1967005431652069  0.22855444252490997  1.0000
  B   B2        1.0  0.5623164772987366  0.7978588342666626  0.5700247883796693  1.0000
  Co  Co1       1.0  0.547151505947113  0.42822524905204773  0.2610524892807007  1.0000
  Co  Co2       1.0  0.04392514377832413  0.9127435088157654  0.9757931232452393  1.0000
  Lu  Lu1       1.0  0.45140382647514343  0.42753949761390686  0.9674153327941895  1.0000
  Lu  Lu2       1.0  0.07875434309244156  0.9121043086051941  0.5653101205825806  1.0000
  Lu  Lu3       1.0  0.08545493334531784  0.17750592529773712  0.4832113981246948  1.0000
  Si  Si1       1.0  0.5529923439025879  0.6274795532226562  0.19913205504417422  1.0000
  Y   Y1        1.0  0.8027142286300659  0.12168221175670624  0.7169009447097778  1.0000
