data_image0
_chemical_formula_structural       B6Co2Y
_chemical_formula_sum              "B6 Co2 Y1"
_cell_length_a       5.199653033065843
_cell_length_b       4.968091797616797
_cell_length_c       4.97261381149292
_cell_angle_alpha    105.1066899774312
_cell_angle_beta     102.74499961249087
_cell_angle_gamma    112.46300765148597

_space_group_name_H-M_alt    "P 1"
_space_group_IT_number       1

loop_
  _space_group_symop_operation_xyz
  'x, y, z'

loop_
  _atom_site_type_symbol
  _atom_site_label
  _atom_site_symmetry_multiplicity
  _atom_site_fract_x
  _atom_site_fract_y
  _atom_site_fract_z
  _atom_site_occupancy
  B   B1        1.0  0.1990952342748642  0.11198807507753372  0.3672313094139099  1.0000
  B   B2        1.0  0.4438225328922272  0.8070641756057739  0.7916582226753235  1.0000
  B   B3        1.0  0.6887410879135132  0.5652362108230591  0.3060734272003174  1.0000
  B   B4        1.0  0.7880570888519287  0.5013479590415955  0.800589382648468  1.0000
  B   B5        1.0  0.8043709397315979  0.9848734736442566  0.08455497026443481  1.0000
  B   B6        1.0  0.9790655374526978  0.8040010929107666  0.12472959607839584  1.0000
  Co  Co1       1.0  0.8449837565422058  0.8826327919960022  0.8790785074234009  1.0000
  Co  Co2       1.0  0.49072298407554626  0.8904025554656982  0.6330978870391846  1.0000
  Y   Y1        1.0  0.31167352199554443  0.42016279697418213  0.13030964136123657  1.0000
