data_image0
_chemical_formula_structural       B4Co2Y3
_chemical_formula_sum              "B4 Co2 Y3"
_cell_length_a       4.420287000373169
_cell_length_b       4.849442393685189
_cell_length_c       7.358651161193848
_cell_angle_alpha    105.70950345236066
_cell_angle_beta     97.1146706825505
_cell_angle_gamma    100.17855864124385

_space_group_name_H-M_alt    "P 1"
_space_group_IT_number       1

loop_
  _space_group_symop_operation_xyz
  'x, y, z'

loop_
  _atom_site_type_symbol
  _atom_site_label
  _atom_site_symmetry_multiplicity
  _atom_site_fract_x
  _atom_site_fract_y
  _atom_site_fract_z
  _atom_site_occupancy
  B   B1        1.0  0.2441771775484085  0.669602632522583  0.7910259366035463  1.0000
  B   B2        1.0  0.44862106442451477  0.8240113854408264  0.2259105890989304  1.0000
  B   B3        1.0  0.7000802159309387  0.8272058367729187  0.9498714208602906  1.0000
  B   B4        1.0  0.914736807346344  0.09601907432079315  0.18947465717792514  1.0000
  Co  Co1       1.0  0.973771870136261  0.1402425915002823  0.08243404328823091  1.0000
  Co  Co2       1.0  0.5497196316719055  0.33358311653137207  0.017096122726798058  1.0000
  Y   Y1        1.0  0.17075221240520477  0.30083122849464417  0.5061573386192322  1.0000
  Y   Y2        1.0  0.8481485843658447  0.2989407181739807  0.4793591499328614  1.0000
  Y   Y3        1.0  0.4824985861778259  0.6134845614433289  0.2693830728530884  1.0000
