data_image0
_chemical_formula_structural       F3GaPPt3Zn
_chemical_formula_sum              "F3 Ga1 P1 Pt3 Zn1"
_cell_length_a       5.388036144568572
_cell_length_b       6.153945225550568
_cell_length_c       6.811031341552734
_cell_angle_alpha    121.5716614065273
_cell_angle_beta     92.02575553955047
_cell_angle_gamma    87.92941374934793

_space_group_name_H-M_alt    "P 1"
_space_group_IT_number       1

loop_
  _space_group_symop_operation_xyz
  'x, y, z'

loop_
  _atom_site_type_symbol
  _atom_site_label
  _atom_site_symmetry_multiplicity
  _atom_site_fract_x
  _atom_site_fract_y
  _atom_site_fract_z
  _atom_site_occupancy
  F   F1        1.0  0.03505763038992882  0.7531165480613708  0.9773310422897339  1.0000
  F   F2        1.0  0.2909170985221863  0.728313684463501  0.6517660021781921  1.0000
  F   F3        1.0  0.8816195130348206  0.989259958267212  0.8097708225250244  1.0000
  Ga  Ga1       1.0  0.6110122203826904  0.2873842418193817  0.115853451192379  1.0000
  P   P1        1.0  0.07646085321903229  0.6812182664871216  0.8466536402702332  1.0000
  Pt  Pt1       1.0  0.6115542054176331  0.15324166417121887  0.28881189227104187  1.0000
  Pt  Pt2       1.0  0.07722319662570953  0.031276896595954895  0.1858406364917755  1.0000
  Pt  Pt3       1.0  0.5647830963134766  0.4895241558551789  0.7329152822494507  1.0000
  Zn  Zn1       1.0  0.5994821786880493  0.5868822336196899  0.84266197681427  1.0000
