data_image0
_chemical_formula_structural       Cu3F4K2
_chemical_formula_sum              "Cu3 F4 K2"
_cell_length_a       5.968110643386935
_cell_length_b       5.815471297184821
_cell_length_c       5.8101630210876465
_cell_angle_alpha    111.2112199116091
_cell_angle_beta     106.78265625016934
_cell_angle_gamma    104.77097162308046

_space_group_name_H-M_alt    "P 1"
_space_group_IT_number       1

loop_
  _space_group_symop_operation_xyz
  'x, y, z'

loop_
  _atom_site_type_symbol
  _atom_site_label
  _atom_site_symmetry_multiplicity
  _atom_site_fract_x
  _atom_site_fract_y
  _atom_site_fract_z
  _atom_site_occupancy
  Cu  Cu1       1.0  0.8728118538856506  0.34259092807769775  0.5080596804618835  1.0000
  Cu  Cu2       1.0  0.49590861797332764  0.4556656777858734  0.7268340587615967  1.0000
  Cu  Cu3       1.0  0.9341206550598145  0.39179104566574097  0.5360663533210754  1.0000
  F   F1        1.0  0.5086879134178162  0.9962595701217651  0.9082977771759033  1.0000
  F   F2        1.0  0.5066238641738892  0.41150355339050293  0.9371682405471802  1.0000
  F   F3        1.0  0.9734374284744263  0.09662771970033646  0.27699172496795654  1.0000
  F   F4        1.0  0.07230362296104431  0.06994516402482986  0.01632305234670639  1.0000
  K   K1        1.0  0.43290597200393677  0.626701295375824  0.7946847081184387  1.0000
  K   K2        1.0  0.4412747323513031  0.9103689193725586  0.3794288337230682  1.0000
