data_image0
_chemical_formula_structural       F4GaPtZn3
_chemical_formula_sum              "F4 Ga1 Pt1 Zn3"
_cell_length_a       5.816742103864088
_cell_length_b       5.225268035605116
_cell_length_c       5.884339332580566
_cell_angle_alpha    114.85159248101421
_cell_angle_beta     109.47721042540581
_cell_angle_gamma    105.80668113132162

_space_group_name_H-M_alt    "P 1"
_space_group_IT_number       1

loop_
  _space_group_symop_operation_xyz
  'x, y, z'

loop_
  _atom_site_type_symbol
  _atom_site_label
  _atom_site_symmetry_multiplicity
  _atom_site_fract_x
  _atom_site_fract_y
  _atom_site_fract_z
  _atom_site_occupancy
  F   F1        1.0  0.5342106223106384  0.39936381578445435  0.1663908064365387  1.0000
  F   F2        1.0  0.03828680142760277  0.517107367515564  0.6519790887832642  1.0000
  F   F3        1.0  0.16065986454486847  0.8075656890869141  0.6805407404899597  1.0000
  F   F4        1.0  0.5312302708625793  0.8893063068389893  0.4935902953147888  1.0000
  Ga  Ga1       1.0  0.1225438341498375  0.430038720369339  0.3322435021400452  1.0000
  Pt  Pt1       1.0  0.597089946269989  0.9300153851509094  0.17857371270656586  1.0000
  Zn  Zn1       1.0  0.584571897983551  0.7789719104766846  0.445933073759079  1.0000
  Zn  Zn2       1.0  0.04143378883600235  0.446617990732193  0.7676644921302795  1.0000
  Zn  Zn3       1.0  0.0864066630601883  0.784773051738739  0.3101067543029785  1.0000
