data_image0
_chemical_formula_structural       F3GaPbPtVZnZr
_chemical_formula_sum              "F3 Ga1 Pb1 Pt1 V1 Zn1 Zr1"
_cell_length_a       4.943111684996052
_cell_length_b       2.8155064080723147
_cell_length_c       7.091530799865723
_cell_angle_alpha    125.76775000813741
_cell_angle_beta     101.31691887998161
_cell_angle_gamma    129.1115100083701

_space_group_name_H-M_alt    "P 1"
_space_group_IT_number       1

loop_
  _space_group_symop_operation_xyz
  'x, y, z'

loop_
  _atom_site_type_symbol
  _atom_site_label
  _atom_site_symmetry_multiplicity
  _atom_site_fract_x
  _atom_site_fract_y
  _atom_site_fract_z
  _atom_site_occupancy
  F   F1        1.0  0.5390359163284302  0.9653942584991455  0.11827434599399568  1.0000
  F   F2        1.0  0.3225313723087311  0.4593305885791779  0.6351618766784668  1.0000
  F   F3        1.0  0.7473087906837464  0.15888158977031747  0.969102442264557  1.0000
  Ga  Ga1       1.0  0.1837983429431916  0.989826560020447  0.8908611536026001  1.0000
  Pb  Pb1       1.0  0.7593235969543457  0.34550124406814575  0.021720947697758675  1.0000
  Pt  Pt1       1.0  0.7423236966133119  0.9739703536033631  0.4989941120147705  1.0000
  V   V1        1.0  0.6179198026657104  0.3103811740875244  0.919655442237854  1.0000
  Zn  Zn1       1.0  0.2549342513084413  0.3490757644176485  0.7941260933876038  1.0000
  Zr  Zr1       1.0  0.25647881627082825  0.8635128736495972  0.4222807288169861  1.0000
