data_image0
_chemical_formula_structural       AlClGeHfHgSr
_chemical_formula_sum              "Al1 Cl1 Ge1 Hf1 Hg1 Sr1"
_cell_length_a       4.919161358894219
_cell_length_b       4.927720561249138
_cell_length_c       6.641800403594971
_cell_angle_alpha    89.98054817139392
_cell_angle_beta     89.97375682308632
_cell_angle_gamma    119.86500514474577

_space_group_name_H-M_alt    "P 1"
_space_group_IT_number       1

loop_
  _space_group_symop_operation_xyz
  'x, y, z'

loop_
  _atom_site_type_symbol
  _atom_site_label
  _atom_site_symmetry_multiplicity
  _atom_site_fract_x
  _atom_site_fract_y
  _atom_site_fract_z
  _atom_site_occupancy
  Al  Al1       1.0  0.24092844128608704  0.67046719789505  0.5004135966300964  1.0000
  Cl  Cl1       1.0  0.5772392153739929  0.3368220329284668  0.32015088200569153  1.0000
  Ge  Ge1       1.0  0.9073553085327148  0.9965403079986572  0.9625288248062135  1.0000
  Hf  Hf1       1.0  0.906460702419281  0.9981939792633057  0.3629395365715027  1.0000
  Hg  Hg1       1.0  0.23903319239616394  0.6688236594200134  0.08179368078708649  1.0000
  Sr  Sr1       1.0  0.5754554271697998  0.33567747473716736  0.768756091594696  1.0000
