data_image0
_chemical_formula_structural       CoNp3PPr4Pt2
_chemical_formula_sum              "Co1 Np3 P1 Pr4 Pt2"
_cell_length_a       4.310202526746734
_cell_length_b       4.39722824164697
_cell_length_c       7.726522922515869
_cell_angle_alpha    102.64086948564328
_cell_angle_beta     95.66860387618176
_cell_angle_gamma    106.32936504757834

_space_group_name_H-M_alt    "P 1"
_space_group_IT_number       1

loop_
  _space_group_symop_operation_xyz
  'x, y, z'

loop_
  _atom_site_type_symbol
  _atom_site_label
  _atom_site_symmetry_multiplicity
  _atom_site_fract_x
  _atom_site_fract_y
  _atom_site_fract_z
  _atom_site_occupancy
  Co  Co1       1.0  0.30692487955093384  0.8488115668296814  0.25485703349113464  1.0000
  Np  Np1       1.0  0.0446028858423233  0.9587262272834778  0.18224881589412686  1.0000
  Np  Np2       1.0  0.5492161512374878  0.9843155741691589  0.4488819241523742  1.0000
  Np  Np3       1.0  0.5767948627471924  0.031007688492536545  0.817212164402008  1.0000
  P   P1        1.0  0.102542944252491  0.5472602844238281  0.14195697009563446  1.0000
  Pr  Pr1       1.0  0.5788885951042175  0.13660861551761627  0.8327599763870238  1.0000
  Pr  Pr2       1.0  0.5527999997138977  0.6062307357788086  0.1651324331760406  1.0000
  Pr  Pr3       1.0  0.5434704422950745  0.044492483139038086  0.6997362375259398  1.0000
  Pr  Pr4       1.0  0.043162815272808075  0.303762286901474  0.6918175220489501  1.0000
  Pt  Pt1       1.0  0.042756855487823486  0.21375349164009094  0.7432004213333129  1.0000
  Pt  Pt2       1.0  0.03855704516172409  0.06540951132774353  0.6744183897972107  1.0000
