data_image0
_chemical_formula_structural       INpP2PbPrPt4Si
_chemical_formula_sum              "I1 Np1 P2 Pb1 Pr1 Pt4 Si1"
_cell_length_a       4.866721173559118
_cell_length_b       5.794361552871152
_cell_length_c       7.558274269104004
_cell_angle_alpha    89.69589074772946
_cell_angle_beta     92.32944386417716
_cell_angle_gamma    89.82985055035428

_space_group_name_H-M_alt    "P 1"
_space_group_IT_number       1

loop_
  _space_group_symop_operation_xyz
  'x, y, z'

loop_
  _atom_site_type_symbol
  _atom_site_label
  _atom_site_symmetry_multiplicity
  _atom_site_fract_x
  _atom_site_fract_y
  _atom_site_fract_z
  _atom_site_occupancy
  I   I1        1.0  0.30024611949920654  0.927985668182373  0.9135977029800416  1.0000
  Np  Np1       1.0  0.6586307883262634  0.7512659430503845  0.945486068725586  1.0000
  P   P1        1.0  0.7087849974632263  0.08520995080471039  0.6274837255477906  1.0000
  P   P2        1.0  0.15572652220726013  0.15447118878364563  0.7293991446495057  1.0000
  Pb  Pb1       1.0  0.08824817836284637  0.4236186146736145  0.5886079668998719  1.0000
  Pr  Pr1       1.0  0.7181598544120789  0.7132359147071838  0.2152151018381119  1.0000
  Pt  Pt1       1.0  0.204440638422966  0.3805069923400879  0.17806981503963473  1.0000
  Pt  Pt2       1.0  0.6731780171394348  0.9202877879142761  0.5199697017669678  1.0000
  Pt  Pt3       1.0  0.21021142601966858  0.009287643246352673  0.0360296592116356  1.0000
  Pt  Pt4       1.0  0.9075757265090942  0.053205616772174835  0.7080578804016114  1.0000
  Si  Si1       1.0  0.18660297989845276  0.07662821561098099  0.5705919265747071  1.0000
