data_image0
_chemical_formula_structural       C3Co3Si5
_chemical_formula_sum              "C3 Co3 Si5"
_cell_length_a       4.928856658346273
_cell_length_b       4.987521060464917
_cell_length_c       6.855466842651367
_cell_angle_alpha    90.19706538545297
_cell_angle_beta     90.31938994790288
_cell_angle_gamma    92.04498001125845

_space_group_name_H-M_alt    "P 1"
_space_group_IT_number       1

loop_
  _space_group_symop_operation_xyz
  'x, y, z'

loop_
  _atom_site_type_symbol
  _atom_site_label
  _atom_site_symmetry_multiplicity
  _atom_site_fract_x
  _atom_site_fract_y
  _atom_site_fract_z
  _atom_site_occupancy
  C   C1        1.0  0.024991990998387337  0.9582893252372742  0.8536232709884644  1.0000
  C   C2        1.0  0.3791007697582245  0.6030823588371277  0.005968501791357994  1.0000
  C   C3        1.0  0.89337158203125  0.1384010910987854  0.6010839343070984  1.0000
  Co  Co1       1.0  0.8737318515777588  0.5450968146324158  0.17658774554729462  1.0000
  Co  Co2       1.0  0.49927857518196106  0.5153040289878845  0.002871547592803836  1.0000
  Co  Co3       1.0  0.03220316395163536  0.844650387763977  0.21310293674468994  1.0000
  Si  Si1       1.0  0.4864863157272339  0.32239335775375366  0.7926303148269653  1.0000
  Si  Si2       1.0  0.030738750472664833  0.4377911388874054  0.6631266474723816  1.0000
  Si  Si3       1.0  0.5412628054618835  0.7136625647544861  0.9174221754074097  1.0000
  Si  Si4       1.0  0.5112295746803284  0.19159547984600067  0.28678810596466064  1.0000
  Si  Si5       1.0  0.030114825814962387  0.8096453547477722  0.9184496998786926  1.0000
