data_image0
_chemical_formula_structural       NpPPr3Pt5Si
_chemical_formula_sum              "Np1 P1 Pr3 Pt5 Si1"
_cell_length_a       5.284321703512269
_cell_length_b       5.146148431951369
_cell_length_c       7.839471340179443
_cell_angle_alpha    88.9018666115357
_cell_angle_beta     92.82050118884911
_cell_angle_gamma    91.24165147124054

_space_group_name_H-M_alt    "P 1"
_space_group_IT_number       1

loop_
  _space_group_symop_operation_xyz
  'x, y, z'

loop_
  _atom_site_type_symbol
  _atom_site_label
  _atom_site_symmetry_multiplicity
  _atom_site_fract_x
  _atom_site_fract_y
  _atom_site_fract_z
  _atom_site_occupancy
  Np  Np1       1.0  0.3748108446598053  0.9785428047180176  0.1619774401187897  1.0000
  P   P1        1.0  0.5638635754585266  0.007582204416394234  0.7709662914276124  1.0000
  Pr  Pr1       1.0  0.5723318457603455  0.21466287970542908  0.21529968082904818  1.0000
  Pr  Pr2       1.0  0.8930323719978333  0.908172070980072  0.734507143497467  1.0000
  Pr  Pr3       1.0  0.9079106450080872  0.2907419800758362  0.62263560295105  1.0000
  Pt  Pt1       1.0  0.10524100065231323  0.22682173550128937  0.05475323274731637  1.0000
  Pt  Pt2       1.0  0.591192901134491  0.5967469215393066  0.7336354851722718  1.0000
  Pt  Pt3       1.0  0.5530549883842468  0.34508371353149414  0.6149309873580934  1.0000
  Pt  Pt4       1.0  0.701445460319519  0.7889930009841919  0.8585051894187928  1.0000
  Pt  Pt5       1.0  0.08098917454481125  0.034894660115242004  0.7553528547286988  1.0000
  Si  Si1       1.0  0.8876169323921204  0.6303788423538208  0.9500193595886232  1.0000
