data_image0
_chemical_formula_structural       C3Co3Si4U
_chemical_formula_sum              "C3 Co3 Si4 U1"
_cell_length_a       4.846388231042855
_cell_length_b       5.019465387225668
_cell_length_c       7.185296535491943
_cell_angle_alpha    89.30270519242305
_cell_angle_beta     89.59992617408618
_cell_angle_gamma    88.74139737241677

_space_group_name_H-M_alt    "P 1"
_space_group_IT_number       1

loop_
  _space_group_symop_operation_xyz
  'x, y, z'

loop_
  _atom_site_type_symbol
  _atom_site_label
  _atom_site_symmetry_multiplicity
  _atom_site_fract_x
  _atom_site_fract_y
  _atom_site_fract_z
  _atom_site_occupancy
  C   C1        1.0  0.9529770612716675  0.262031614780426  0.9955771565437318  1.0000
  C   C2        1.0  0.4340720772743225  0.44906142354011536  0.8013048768043519  1.0000
  C   C3        1.0  0.9308185577392578  0.41209113597869873  0.7422237992286684  1.0000
  Co  Co1       1.0  0.9406191110610962  0.8795093894004822  0.07922989130020142  1.0000
  Co  Co2       1.0  0.9342120289802551  0.9873409867286682  0.37821164727211004  1.0000
  Co  Co3       1.0  0.4294666051864624  0.6683468222618103  0.8977808952331544  1.0000
  Si  Si1       1.0  0.44742923974990845  0.2646276354789734  0.10232374072074892  1.0000
  Si  Si2       1.0  0.43488258123397827  0.414846807718277  0.6053527593612671  1.0000
  Si  Si3       1.0  0.4320722818374634  0.6992924809455872  0.39950680732727056  1.0000
  Si  Si4       1.0  0.9460129141807556  0.7797930240631104  0.5645225644111633  1.0000
  U   U1        1.0  0.9425709843635559  0.8469949960708618  0.05604151263833047  1.0000
