data_image0
_chemical_formula_structural       GaNpP2Pr2Pt4Si
_chemical_formula_sum              "Ga1 Np1 P2 Pr2 Pt4 Si1"
_cell_length_a       5.148411485915708
_cell_length_b       6.262999832009806
_cell_length_c       6.847599983215332
_cell_angle_alpha    119.08683391985147
_cell_angle_beta     90.56526388835404
_cell_angle_gamma    89.56582965985753

_space_group_name_H-M_alt    "P 1"
_space_group_IT_number       1

loop_
  _space_group_symop_operation_xyz
  'x, y, z'

loop_
  _atom_site_type_symbol
  _atom_site_label
  _atom_site_symmetry_multiplicity
  _atom_site_fract_x
  _atom_site_fract_y
  _atom_site_fract_z
  _atom_site_occupancy
  Ga  Ga1       1.0  0.5782800912857056  0.022098178043961525  0.15587511658668518  1.0000
  Np  Np1       1.0  0.07430028170347214  0.5874483585357666  0.22159986197948453  1.0000
  P   P1        1.0  0.5820542573928833  0.5281163454055786  0.2302894294261932  1.0000
  P   P2        1.0  0.07439947128295898  0.6198282241821289  0.7627177834510803  1.0000
  Pr  Pr1       1.0  0.5918518304824829  0.6327137351036072  0.48797202110290533  1.0000
  Pr  Pr2       1.0  0.08248483389616013  0.9398870468139648  0.7034972310066222  1.0000
  Pt  Pt1       1.0  0.08512052893638611  0.06090705841779709  0.5500900745391846  1.0000
  Pt  Pt2       1.0  0.5690410137176514  0.9315891265869141  0.7832121849060059  1.0000
  Pt  Pt3       1.0  0.09224030375480652  0.8149878978729248  0.7221400737762451  1.0000
  Pt  Pt4       1.0  0.5345767140388489  0.5913339257240295  0.7745068669319153  1.0000
  Si  Si1       1.0  0.5956887006759644  0.8682899475097656  0.7142526507377625  1.0000
