data_image0
_chemical_formula_structural       Bi2Na2O8PZr2
_chemical_formula_sum              "Bi2 Na2 O8 P1 Zr2"
_cell_length_a       6.989707728256338
_cell_length_b       7.1143734746764675
_cell_length_c       6.558152675628662
_cell_angle_alpha    60.62798403547383
_cell_angle_beta     58.26658543313031
_cell_angle_gamma    59.615647759705006

_space_group_name_H-M_alt    "P 1"
_space_group_IT_number       1

loop_
  _space_group_symop_operation_xyz
  'x, y, z'

loop_
  _atom_site_type_symbol
  _atom_site_label
  _atom_site_symmetry_multiplicity
  _atom_site_fract_x
  _atom_site_fract_y
  _atom_site_fract_z
  _atom_site_occupancy
  Bi  Bi1       1.0  0.6698950529098511  0.10483720898628235  0.6781248450279237  1.0000
  Bi  Bi2       1.0  0.19796298444271088  0.15507064759731293  0.06474493443965909  1.0000
  Na  Na1       1.0  0.6850805878639221  0.6415295004844666  0.5247518420219421  1.0000
  Na  Na2       1.0  0.8299137949943542  0.5359953045845032  0.43967714905738836  1.0000
  O   O1        1.0  0.14572149515151978  0.6432502269744873  0.17535205185413363  1.0000
  O   O2        1.0  0.3103964328765869  0.04625236243009567  0.41713336110115057  1.0000
  O   O3        1.0  0.7606990337371826  0.677551805973053  0.4727889001369477  1.0000
  O   O4        1.0  0.1965852677822113  0.10559114068746567  0.6383490562438965  1.0000
  O   O5        1.0  0.08279966562986374  0.1135668158531189  0.987661123275757  1.0000
  O   O6        1.0  0.6863625049591064  0.86553955078125  0.1901496648788451  1.0000
  O   O7        1.0  0.5736945271492004  0.4554097056388855  0.29162269830703735  1.0000
  O   O8        1.0  0.8304156064987183  0.5448113083839417  0.8599596023559571  1.0000
  P   P1        1.0  0.8417876362800598  0.040345776826143265  0.7839639186859129  1.0000
  Zr  Zr1       1.0  0.4611934423446655  0.38247108459472656  0.8786271810531617  1.0000
  Zr  Zr2       1.0  0.0775185376405716  0.7357415556907654  0.48593264818191534  1.0000
