data_image0
_chemical_formula_structural       BBi2Na3O7Zr2
_chemical_formula_sum              "B1 Bi2 Na3 O7 Zr2"
_cell_length_a       6.391396694315911
_cell_length_b       6.569296674660187
_cell_length_c       6.722239971160889
_cell_angle_alpha    62.61394065500159
_cell_angle_beta     61.67722340828894
_cell_angle_gamma    61.52053059867733

_space_group_name_H-M_alt    "P 1"
_space_group_IT_number       1

loop_
  _space_group_symop_operation_xyz
  'x, y, z'

loop_
  _atom_site_type_symbol
  _atom_site_label
  _atom_site_symmetry_multiplicity
  _atom_site_fract_x
  _atom_site_fract_y
  _atom_site_fract_z
  _atom_site_occupancy
  B   B1        1.0  0.9483997225761415  0.8191425800323487  0.4206387400627136  1.0000
  Bi  Bi1       1.0  0.5747400522232056  0.0016378221334889533  0.8306614756584167  1.0000
  Bi  Bi2       1.0  0.2254209518432617  0.8114171624183656  0.05014423653483391  1.0000
  Na  Na1       1.0  0.6013699173927307  0.15636536478996277  0.5828497409820557  1.0000
  Na  Na2       1.0  0.9190075993537904  0.4746794402599335  0.8856181502342224  1.0000
  Na  Na3       1.0  0.24208833277225497  0.439598560333252  0.06636075675487518  1.0000
  O   O1        1.0  0.9391880035400392  0.9209735989570619  0.31628671288490295  1.0000
  O   O2        1.0  0.8884409070014955  0.6552219390869141  0.7124483585357666  1.0000
  O   O3        1.0  0.02006196416914463  0.5037593245506287  0.965968668460846  1.0000
  O   O4        1.0  0.7525758743286133  0.9437965750694276  0.8826077580451965  1.0000
  O   O5        1.0  0.03812582790851593  0.09365344047546387  0.307902067899704  1.0000
  O   O6        1.0  0.5252896547317505  0.5195615291595459  0.3280588686466217  1.0000
  O   O7        1.0  0.2732639014720917  0.7785869240760804  0.5271655917167664  1.0000
  Zr  Zr1       1.0  0.6009085178375244  0.4847790896892548  0.09698817133903503  1.0000
  Zr  Zr2       1.0  0.23203316330909732  0.12883271276950836  0.8142043352127075  1.0000
