data_image0
_chemical_formula_structural       BBi3NaO8Ti2
_chemical_formula_sum              "B1 Bi3 Na1 O8 Ti2"
_cell_length_a       6.586983858352012
_cell_length_b       6.798930018878491
_cell_length_c       7.3762359619140625
_cell_angle_alpha    63.62579376824076
_cell_angle_beta     63.01626945462541
_cell_angle_gamma    62.117894601392294

_space_group_name_H-M_alt    "P 1"
_space_group_IT_number       1

loop_
  _space_group_symop_operation_xyz
  'x, y, z'

loop_
  _atom_site_type_symbol
  _atom_site_label
  _atom_site_symmetry_multiplicity
  _atom_site_fract_x
  _atom_site_fract_y
  _atom_site_fract_z
  _atom_site_occupancy
  B   B1        1.0  0.09953674674034116  0.3751459121704102  0.16201183199882507  1.0000
  Bi  Bi1       1.0  0.17541421949863434  0.33495229482650757  0.261996865272522  1.0000
  Bi  Bi2       1.0  0.7327554821968079  0.8661441802978517  0.9672778248786927  1.0000
  Bi  Bi3       1.0  0.3921036720275879  0.03091107122600079  0.5783946514129638  1.0000
  Na  Na1       1.0  0.3175754845142364  0.8678646087646485  0.43391349911689764  1.0000
  O   O1        1.0  0.29420170187950134  0.3934351801872254  0.8226508498191835  1.0000
  O   O2        1.0  0.7591832280158997  0.9104232788085939  0.8607301712036134  1.0000
  O   O3        1.0  0.5892646312713623  0.5831642746925354  0.6458502411842346  1.0000
  O   O4        1.0  0.7212626338005066  0.9230948686599733  0.9047861099243165  1.0000
  O   O5        1.0  0.38252997398376465  0.08822577446699144  0.6599993705749512  1.0000
  O   O6        1.0  0.147858127951622  0.6081756949424744  0.14874233305454254  1.0000
  O   O7        1.0  0.25813874602317805  0.8189722299575807  0.8066743016242982  1.0000
  O   O8        1.0  0.808381199836731  0.35682871937751776  0.1556188017129898  1.0000
  Ti  Ti1       1.0  0.7805054783821106  0.3493542969226837  0.6611713171005249  1.0000
  Ti  Ti2       1.0  0.5833114385604858  0.8674640059471131  0.24388188123703006  1.0000
