data_image0
_chemical_formula_structural       Au3Bi4FNaO6
_chemical_formula_sum              "Au3 Bi4 F1 Na1 O6"
_cell_length_a       6.888633862354802
_cell_length_b       7.135100619819734
_cell_length_c       7.563068866729736
_cell_angle_alpha    116.0481241140066
_cell_angle_beta     116.33694679942832
_cell_angle_gamma    89.66837475589054

_space_group_name_H-M_alt    "P 1"
_space_group_IT_number       1

loop_
  _space_group_symop_operation_xyz
  'x, y, z'

loop_
  _atom_site_type_symbol
  _atom_site_label
  _atom_site_symmetry_multiplicity
  _atom_site_fract_x
  _atom_site_fract_y
  _atom_site_fract_z
  _atom_site_occupancy
  Au  Au1       1.0  0.0494120642542839  0.3690869212150574  0.20709030330181125  1.0000
  Au  Au2       1.0  0.5917958617210388  0.19077570736408234  0.18457680940628046  1.0000
  Au  Au3       1.0  0.47542393207550043  0.8804020881652832  0.8984334468841554  1.0000
  Bi  Bi1       1.0  0.528652012348175  0.8179119825363159  0.1947764456272124  1.0000
  Bi  Bi2       1.0  0.9919168949127196  0.3730236887931824  0.394264280796051  1.0000
  Bi  Bi3       1.0  0.4006898999214172  0.05161843076348305  0.9443124532699586  1.0000
  Bi  Bi4       1.0  0.9978425502777098  0.9038204550743103  0.25207796692848206  1.0000
  F   F1        1.0  0.8683109283447265  0.2680847644805908  0.7954544425010681  1.0000
  Na  Na1       1.0  0.16971959173679352  0.6146533489227295  0.7915252447128296  1.0000
  O   O1        1.0  0.6810732483863831  0.19549007713794708  0.775795578956604  1.0000
  O   O2        1.0  0.20621576905250547  0.5483319163322449  0.43004328012466425  1.0000
  O   O3        1.0  0.357982188463211  0.7601166367530823  0.7019246220588684  1.0000
  O   O4        1.0  0.3739203214645385  0.01821085996925831  0.7760125994682312  1.0000
  O   O5        1.0  0.5457728505134583  0.5222764611244202  0.13428543508052826  1.0000
  O   O6        1.0  0.06647826731204987  0.5281066298484802  0.06874286383390427  1.0000
