data_image0
_chemical_formula_structural       Bi4LaNaNbO8
_chemical_formula_sum              "Bi4 La1 Na1 Nb1 O8"
_cell_length_a       7.187407339869986
_cell_length_b       7.354160416809309
_cell_length_c       7.715786457061768
_cell_angle_alpha    63.545185371465095
_cell_angle_beta     61.634862383525174
_cell_angle_gamma    61.99225814663419

_space_group_name_H-M_alt    "P 1"
_space_group_IT_number       1

loop_
  _space_group_symop_operation_xyz
  'x, y, z'

loop_
  _atom_site_type_symbol
  _atom_site_label
  _atom_site_symmetry_multiplicity
  _atom_site_fract_x
  _atom_site_fract_y
  _atom_site_fract_z
  _atom_site_occupancy
  Bi  Bi1       1.0  0.03640710189938545  0.5073497295379639  0.1586591601371765  1.0000
  Bi  Bi2       1.0  0.0727410763502121  0.8132171630859375  0.6887511014938354  1.0000
  Bi  Bi3       1.0  0.3311614394187927  0.08891986310482025  0.18044278025627136  1.0000
  Bi  Bi4       1.0  0.5391862988471985  0.8401539325714111  0.8405441045761108  1.0000
  La  La1       1.0  0.9562103152275085  0.7496249079704285  0.04408947005867958  1.0000
  Na  Na1       1.0  0.6705232262611389  0.8922653198242189  0.07880978286266327  1.0000
  Nb  Nb1       1.0  0.16935302317142484  0.8811256885528566  0.5614131689071655  1.0000
  O   O1        1.0  0.726800799369812  0.0005700588226318359  0.2916118800640106  1.0000
  O   O2        1.0  0.6721349358558655  0.21880640089511874  0.5908795595169067  1.0000
  O   O3        1.0  0.23169605433940887  0.5053918361663818  0.48027127981185913  1.0000
  O   O4        1.0  0.36646127700805664  0.9247183799743653  0.4488387107849121  1.0000
  O   O5        1.0  0.14625371992588043  0.5563194155693054  0.8753801584243774  1.0000
  O   O6        1.0  0.266266405582428  0.2675670385360718  0.365726500749588  1.0000
  O   O7        1.0  0.7941356897354126  0.5846644043922424  0.8759866952896118  1.0000
  O   O8        1.0  0.802398681640625  0.5777171850204468  0.613102376461029  1.0000
