data_image0
_chemical_formula_structural       Au2Bi7NaO5
_chemical_formula_sum              "Au2 Bi7 Na1 O5"
_cell_length_a       6.706505864793965
_cell_length_b       6.631068623375728
_cell_length_c       10.31762409210205
_cell_angle_alpha    98.01679741016827
_cell_angle_beta     90.82279247574905
_cell_angle_gamma    110.30807748231544

_space_group_name_H-M_alt    "P 1"
_space_group_IT_number       1

loop_
  _space_group_symop_operation_xyz
  'x, y, z'

loop_
  _atom_site_type_symbol
  _atom_site_label
  _atom_site_symmetry_multiplicity
  _atom_site_fract_x
  _atom_site_fract_y
  _atom_site_fract_z
  _atom_site_occupancy
  Au  Au1       1.0  0.5234178304672241  0.09727407246828079  0.7963153123855591  1.0000
  Au  Au2       1.0  0.443342924118042  0.8699555397033691  0.79461270570755  1.0000
  Bi  Bi1       1.0  0.06926389038562775  0.5182406902313232  0.00830612052232027  1.0000
  Bi  Bi2       1.0  0.3065809905529022  0.13496625423431396  0.7258707880973816  1.0000
  Bi  Bi3       1.0  0.883585512638092  0.08966198563575745  0.8984520435333252  1.0000
  Bi  Bi4       1.0  0.7798834443092346  0.38393235206604004  0.3244436979293823  1.0000
  Bi  Bi5       1.0  0.9390349388122559  0.1460675597190857  0.570848286151886  1.0000
  Bi  Bi6       1.0  0.5939931869506836  0.5583322644233704  0.9620361924171448  1.0000
  Bi  Bi7       1.0  0.26501086354255676  0.8934121131896973  0.2322826385498047  1.0000
  Na  Na1       1.0  0.4305858016014099  0.477297842502594  0.11865391582250595  1.0000
  O   O1        1.0  0.7313535809516907  0.838638186454773  0.8919613361358643  1.0000
  O   O2        1.0  0.5742563605308533  0.5901354551315308  0.5138785243034363  1.0000
  O   O3        1.0  0.9404026865959167  0.04847084358334541  0.7972509264945984  1.0000
  O   O4        1.0  0.2689878046512604  0.37967681884765625  0.25368908047676086  1.0000
  O   O5        1.0  0.9861944317817688  0.5189220309257507  0.07095826417207718  1.0000
