data_image0
_chemical_formula_structural       HPb7
_chemical_formula_sum              "H1 Pb7"
_cell_length_a       4.812895941276582
_cell_length_b       5.159117790787783
_cell_length_c       7.591907501220703
_cell_angle_alpha    79.2412859795235
_cell_angle_beta     76.03542850889448
_cell_angle_gamma    68.43349586008938

_space_group_name_H-M_alt    "P 1"
_space_group_IT_number       1

loop_
  _space_group_symop_operation_xyz
  'x, y, z'

loop_
  _atom_site_type_symbol
  _atom_site_label
  _atom_site_symmetry_multiplicity
  _atom_site_fract_x
  _atom_site_fract_y
  _atom_site_fract_z
  _atom_site_occupancy
  H   H1        1.0  0.05388521030545235  0.4646982252597809  0.43398648500442505  1.0000
  Pb  Pb1       1.0  0.5650433301925659  0.3411707580089569  0.4201186001300812  1.0000
  Pb  Pb2       1.0  0.5440060496330261  0.8200260400772095  0.031148860231041908  1.0000
  Pb  Pb3       1.0  0.05462709441781044  0.48478689789772034  0.21890835464000702  1.0000
  Pb  Pb4       1.0  0.06957186758518219  0.20467104017734528  0.64613938331604  1.0000
  Pb  Pb5       1.0  0.5457867980003357  0.6621997952461243  0.7752522230148315  1.0000
  Pb  Pb6       1.0  0.5368587374687195  0.7857849597930908  0.7400243878364563  1.0000
  Pb  Pb7       1.0  0.06088186055421829  0.3115255832672119  0.8552291989326477  1.0000
