data_image0
_chemical_formula_structural       Pb4PdW3
_chemical_formula_sum              "Pb4 Pd1 W3"
_cell_length_a       4.639352167527301
_cell_length_b       4.771574952694524
_cell_length_c       5.0918803215026855
_cell_angle_alpha    83.38764643210325
_cell_angle_beta     60.13773812702754
_cell_angle_gamma    61.39276129717495

_space_group_name_H-M_alt    "P 1"
_space_group_IT_number       1

loop_
  _space_group_symop_operation_xyz
  'x, y, z'

loop_
  _atom_site_type_symbol
  _atom_site_label
  _atom_site_symmetry_multiplicity
  _atom_site_fract_x
  _atom_site_fract_y
  _atom_site_fract_z
  _atom_site_occupancy
  Pb  Pb1       1.0  0.5380603671073914  0.7753865718841553  0.45170319080352783  1.0000
  Pb  Pb2       1.0  0.04029373079538345  0.6928316950798035  0.800073504447937  1.0000
  Pb  Pb3       1.0  0.030172916129231453  0.45611685514450073  0.9022132754325868  1.0000
  Pb  Pb4       1.0  0.5376119017601013  0.5823212265968323  0.7680120468139648  1.0000
  Pd  Pd1       1.0  0.037845537066459656  0.3387695252895355  0.6818094849586487  1.0000
  W   W1        1.0  0.03724401071667671  0.4130767583847046  0.7176073789596558  1.0000
  W   W2        1.0  0.5373127460479736  0.6852607131004333  0.2405710816383362  1.0000
  W   W3        1.0  0.035795826464891434  0.17845308780670166  0.808264434337616  1.0000
