data_image0
_chemical_formula_structural       HPb4PdVZr
_chemical_formula_sum              "H1 Pb4 Pd1 V1 Zr1"
_cell_length_a       4.108059883316653
_cell_length_b       2.9948210193747813
_cell_length_c       7.611547946929932
_cell_angle_alpha    96.28097412593985
_cell_angle_beta     86.03728494807524
_cell_angle_gamma    115.60343633484568

_space_group_name_H-M_alt    "P 1"
_space_group_IT_number       1

loop_
  _space_group_symop_operation_xyz
  'x, y, z'

loop_
  _atom_site_type_symbol
  _atom_site_label
  _atom_site_symmetry_multiplicity
  _atom_site_fract_x
  _atom_site_fract_y
  _atom_site_fract_z
  _atom_site_occupancy
  H   H1        1.0  0.12511108815670013  0.4838201403617859  0.6725813746452332  1.0000
  Pb  Pb1       1.0  0.7150317430496216  0.9753693342208862  0.726921796798706  1.0000
  Pb  Pb2       1.0  0.7891024947166443  0.18514294922351837  0.7329135537147522  1.0000
  Pb  Pb3       1.0  0.537797212600708  0.9838768243789673  0.15565526485443115  1.0000
  Pb  Pb4       1.0  0.2927061915397644  0.6611472368240356  0.2823443114757538  1.0000
  Pd  Pd1       1.0  0.46175122261047363  0.6152986884117126  0.5971553921699524  1.0000
  V   V1        1.0  0.6299433708190918  0.7688998579978943  0.3579241633415222  1.0000
  Zr  Zr1       1.0  0.04178199544548988  0.9423298239707947  0.20773059129714966  1.0000
