data_image0
_chemical_formula_structural       Au2Cd5
_chemical_formula_sum              "Au2 Cd5"
_cell_length_a       6.124961600855591
_cell_length_b       6.180064804550737
_cell_length_c       6.070652008056641
_cell_angle_alpha    90.3393459923895
_cell_angle_beta     90.05751246659617
_cell_angle_gamma    88.38363201159969

_space_group_name_H-M_alt    "P 1"
_space_group_IT_number       1

loop_
  _space_group_symop_operation_xyz
  'x, y, z'

loop_
  _atom_site_type_symbol
  _atom_site_label
  _atom_site_symmetry_multiplicity
  _atom_site_fract_x
  _atom_site_fract_y
  _atom_site_fract_z
  _atom_site_occupancy
  Au  Au1       1.0  0.7599908113479613  0.3876694440841675  0.18335729837417603  1.0000
  Au  Au2       1.0  0.09512363374233244  0.7234005928039551  0.6733751893043518  1.0000
  Cd  Cd1       1.0  0.4271846413612365  0.891928255558014  0.9601627588272095  1.0000
  Cd  Cd2       1.0  0.9034626483917235  0.39631763100624084  0.3321610391139984  1.0000
  Cd  Cd3       1.0  0.4346762001514434  0.7295600175857544  0.5208982229232788  1.0000
  Cd  Cd4       1.0  0.12440671771764754  0.0918106958270073  0.17077131569385529  1.0000
  Cd  Cd5       1.0  0.4293963015079498  0.38626721501350403  0.6582375764846802  1.0000
