data_image0
_chemical_formula_structural       Cd3FeSeUZn
_chemical_formula_sum              "Cd3 Fe1 Se1 U1 Zn1"
_cell_length_a       4.905684080627088
_cell_length_b       5.384935385547885
_cell_length_c       6.304571628570557
_cell_angle_alpha    91.15681243705454
_cell_angle_beta     90.3790876224299
_cell_angle_gamma    90.59859579456125

_space_group_name_H-M_alt    "P 1"
_space_group_IT_number       1

loop_
  _space_group_symop_operation_xyz
  'x, y, z'

loop_
  _atom_site_type_symbol
  _atom_site_label
  _atom_site_symmetry_multiplicity
  _atom_site_fract_x
  _atom_site_fract_y
  _atom_site_fract_z
  _atom_site_occupancy
  Cd  Cd1       1.0  0.4898020625114441  0.7740020155906677  0.1318410485982895  1.0000
  Cd  Cd2       1.0  0.009359870105981827  0.9605780839920044  0.33594465255737305  1.0000
  Cd  Cd3       1.0  0.18547771871089935  0.4721859097480774  0.6353480815887451  1.0000
  Fe  Fe1       1.0  0.0030612291302531958  0.6029249429702759  0.8452832102775575  1.0000
  Se  Se1       1.0  0.921377956867218  0.5146940350532532  0.1309843510389328  1.0000
  U   U1        1.0  0.5011453628540039  0.14600710570812225  0.81813645362854  1.0000
  Zn  Zn1       1.0  0.9042308330535889  0.9738361835479736  0.6311261057853699  1.0000
