data_image0
_chemical_formula_structural       Ce6CoDyFeILiPtSeZr
_chemical_formula_sum              "Ce6 Co1 Dy1 Fe1 I1 Li1 Pt1 Se1 Zr1"
_cell_length_a       5.124354682095553
_cell_length_b       8.743389047690378
_cell_length_c       9.571769714355469
_cell_angle_alpha    121.61998680674374
_cell_angle_beta     89.89319824207455
_cell_angle_gamma    88.8001835670058

_space_group_name_H-M_alt    "P 1"
_space_group_IT_number       1

loop_
  _space_group_symop_operation_xyz
  'x, y, z'

loop_
  _atom_site_type_symbol
  _atom_site_label
  _atom_site_symmetry_multiplicity
  _atom_site_fract_x
  _atom_site_fract_y
  _atom_site_fract_z
  _atom_site_occupancy
  Ce  Ce1       1.0  0.509498655796051  0.7633717656135559  0.5341781973838806  1.0000
  Ce  Ce2       1.0  0.5383822917938232  0.20394366979599  0.6541402339935303  1.0000
  Ce  Ce3       1.0  0.5545796751976013  0.3078795075416565  0.7085726261138916  1.0000
  Ce  Ce4       1.0  0.9621689915657043  0.7283241152763367  0.13686046004295344  1.0000
  Ce  Ce5       1.0  0.039095669984817505  0.2061164230108261  0.7052450180053711  1.0000
  Ce  Ce6       1.0  0.35707882046699524  0.8811201453208923  0.8579677939414978  1.0000
  Co  Co1       1.0  0.9333173632621765  0.15435545146465302  0.3325595259666443  1.0000
  Dy  Dy1       1.0  0.946168065071106  0.1299593448638916  0.37058499455451965  1.0000
  Fe  Fe1       1.0  0.8907886147499084  0.16972027719020844  0.43191298842430115  1.0000
  I   I1        1.0  0.592346727848053  0.7923117876052856  0.7943316102027893  1.0000
  Li  Li1       1.0  0.40420621633529663  0.5395416021347046  0.12488467991352081  1.0000
  Pt  Pt1       1.0  0.6527906656265259  0.20479866862297058  0.512955367565155  1.0000
  Se  Se1       1.0  0.9029582142829895  0.7173416018486023  0.5782975554466248  1.0000
  Zr  Zr1       1.0  0.03809036687016487  0.3582318425178528  0.7596587538719177  1.0000
