data_image0
_chemical_formula_structural       BiBrCe7I3MgZr
_chemical_formula_sum              "Bi1 Br1 Ce7 I3 Mg1 Zr1"
_cell_length_a       7.088268745385222
_cell_length_b       7.510546948687966
_cell_length_c       11.479669570922852
_cell_angle_alpha    104.75359683204816
_cell_angle_beta     87.21773052178648
_cell_angle_gamma    69.92924065154803

_space_group_name_H-M_alt    "P 1"
_space_group_IT_number       1

loop_
  _space_group_symop_operation_xyz
  'x, y, z'

loop_
  _atom_site_type_symbol
  _atom_site_label
  _atom_site_symmetry_multiplicity
  _atom_site_fract_x
  _atom_site_fract_y
  _atom_site_fract_z
  _atom_site_occupancy
  Bi  Bi1       1.0  0.39637398719787603  0.07681479305028915  0.11509734392166138  1.0000
  Br  Br1       1.0  0.4060690104961396  0.6792853474617004  0.6101430058479309  1.0000
  Ce  Ce1       1.0  0.9256840944290162  0.8056767582893372  0.8663260340690613  1.0000
  Ce  Ce2       1.0  0.9075502753257753  0.6061047315597534  0.6442110538482666  1.0000
  Ce  Ce3       1.0  0.7723218798637391  0.7497857809066772  0.13340519368648526  1.0000
  Ce  Ce4       1.0  0.1177797093987465  0.7119453549385071  0.7165173292160034  1.0000
  Ce  Ce5       1.0  0.42090615630149847  0.7974647283554077  0.9045751690864563  1.0000
  Ce  Ce6       1.0  0.2753911018371582  0.12789569795131683  0.08724415302276611  1.0000
  Ce  Ce7       1.0  0.7676423192024232  0.906407356262207  0.6938959956169128  1.0000
  I   I1        1.0  0.44080996513366705  0.9796150326728821  0.5242502093315125  1.0000
  I   I2        1.0  0.8853230476379396  0.32552632689476013  0.15921801328659058  1.0000
  I   I3        1.0  0.42413482069969183  0.7116737961769104  0.39621755480766296  1.0000
  Mg  Mg1       1.0  0.9160655140876771  0.7229853272438049  0.2203294336795807  1.0000
  Zr  Zr1       1.0  0.9242898225784303  0.44817331433296204  0.48848840594291687  1.0000
