data_image0
_chemical_formula_structural       BBrCe6Cr5S
_chemical_formula_sum              "B1 Br1 Ce6 Cr5 S1"
_cell_length_a       6.024136954164932
_cell_length_b       6.406107453823755
_cell_length_c       7.023314476013184
_cell_angle_alpha    75.75349424217511
_cell_angle_beta     68.68043351971743
_cell_angle_gamma    63.07042262338308

_space_group_name_H-M_alt    "P 1"
_space_group_IT_number       1

loop_
  _space_group_symop_operation_xyz
  'x, y, z'

loop_
  _atom_site_type_symbol
  _atom_site_label
  _atom_site_symmetry_multiplicity
  _atom_site_fract_x
  _atom_site_fract_y
  _atom_site_fract_z
  _atom_site_occupancy
  B   B1        1.0  0.7403854131698608  0.02128729596734047  0.7349070310592652  1.0000
  Br  Br1       1.0  0.21989469230175016  0.8752103447914124  0.3377116322517395  1.0000
  Ce  Ce1       1.0  0.8877283334732055  0.1439875364303589  0.05739176645874978  1.0000
  Ce  Ce2       1.0  0.6656153202056885  0.36091703176498413  0.1787516623735428  1.0000
  Ce  Ce3       1.0  0.978598117828369  0.9569862484931946  0.2384123653173447  1.0000
  Ce  Ce4       1.0  0.5069983005523682  0.20476563274860382  0.7004762887954713  1.0000
  Ce  Ce5       1.0  0.7344757914543152  0.07769596576690674  0.9801793098449708  1.0000
  Ce  Ce6       1.0  0.3834879994392395  0.58908611536026  0.5929583311080933  1.0000
  Cr  Cr1       1.0  0.20140044391155243  0.5773618817329407  0.9470337033271791  1.0000
  Cr  Cr2       1.0  0.4853100478649139  0.7064301371574402  0.9199124574661256  1.0000
  Cr  Cr3       1.0  0.9599133133888244  0.05269758030772209  0.8770076632499696  1.0000
  Cr  Cr4       1.0  0.9938783049583434  0.165737584233284  0.7209057211875917  1.0000
  Cr  Cr5       1.0  0.21652308106422422  0.14692652225494385  0.33666282892227173  1.0000
  S   S1        1.0  0.1414712369441986  0.18033196032047272  0.5544864535331726  1.0000
