data_image0
_chemical_formula_structural       BrCaCe6CoDyIMgSTb
_chemical_formula_sum              "Br1 Ca1 Ce6 Co1 Dy1 I1 Mg1 S1 Tb1"
_cell_length_a       8.074042136248675
_cell_length_b       8.125240750003005
_cell_length_c       8.620885848999023
_cell_angle_alpha    59.70928216044341
_cell_angle_beta     62.470421508113326
_cell_angle_gamma    58.275986971055474

_space_group_name_H-M_alt    "P 1"
_space_group_IT_number       1

loop_
  _space_group_symop_operation_xyz
  'x, y, z'

loop_
  _atom_site_type_symbol
  _atom_site_label
  _atom_site_symmetry_multiplicity
  _atom_site_fract_x
  _atom_site_fract_y
  _atom_site_fract_z
  _atom_site_occupancy
  Br  Br1       1.0  0.2926851511001587  0.9403389692306519  0.27567625045776367  1.0000
  Ca  Ca1       1.0  0.1477910429239273  0.32905903458595276  0.717516303062439  1.0000
  Ce  Ce1       1.0  0.04149966686964035  0.08639618754386902  0.20429551601409912  1.0000
  Ce  Ce2       1.0  0.3358875811100006  0.18476413190364838  0.7001177072525024  1.0000
  Ce  Ce3       1.0  0.8551620244979858  0.03192921727895737  0.9414077401161194  1.0000
  Ce  Ce4       1.0  0.37789690494537354  0.6139781475067139  0.4273037612438202  1.0000
  Ce  Ce5       1.0  0.8181354999542236  0.1511373370885849  0.8348187208175659  1.0000
  Ce  Ce6       1.0  0.6147217750549316  0.46080586314201355  0.6754361987113953  1.0000
  Co  Co1       1.0  0.9276030659675598  0.5689627528190613  0.6767629384994507  1.0000
  Dy  Dy1       1.0  0.007415150757878988  0.9533888101577759  0.6889160871505738  1.0000
  I   I1        1.0  0.13880030810832977  0.15087100863456726  0.7208103537559509  1.0000
  Mg  Mg1       1.0  0.9291046857833862  0.09966757893562317  0.14902175962924957  1.0000
  S   S1        1.0  0.6431751847267151  0.12047284096479416  0.6865568161010742  1.0000
  Tb  Tb1       1.0  0.48479005694389343  0.21807916462421417  0.35180383920669556  1.0000
