data_image0
_chemical_formula_structural       AlBrCe6ILiSScTbZr
_chemical_formula_sum              "Al1 Br1 Ce6 I1 Li1 S1 Sc1 Tb1 Zr1"
_cell_length_a       6.885899389424595
_cell_length_b       7.5755190426579855
_cell_length_c       8.972182273864746
_cell_angle_alpha    113.48411942831801
_cell_angle_beta     90.51071338816092
_cell_angle_gamma    100.40960547138167

_space_group_name_H-M_alt    "P 1"
_space_group_IT_number       1

loop_
  _space_group_symop_operation_xyz
  'x, y, z'

loop_
  _atom_site_type_symbol
  _atom_site_label
  _atom_site_symmetry_multiplicity
  _atom_site_fract_x
  _atom_site_fract_y
  _atom_site_fract_z
  _atom_site_occupancy
  Al  Al1       1.0  0.17277178168296814  0.6497762799263  0.7953652143478394  1.0000
  Br  Br1       1.0  0.3810167908668518  0.43896427750587463  0.36678287386894226  1.0000
  Ce  Ce1       1.0  0.6693472266197205  0.8763452172279358  0.7735496759414674  1.0000
  Ce  Ce2       1.0  0.4014124572277069  0.1726432591676712  0.09064031392335892  1.0000
  Ce  Ce3       1.0  0.15124233067035675  0.34403547644615173  0.19245010614395144  1.0000
  Ce  Ce4       1.0  0.4088399112224579  0.3374100625514984  0.6345066428184509  1.0000
  Ce  Ce5       1.0  0.1562507301568985  0.49347651004791265  0.8783959150314331  1.0000
  Ce  Ce6       1.0  0.6603087782859802  0.11450156569480896  0.7647796869277954  1.0000
  I   I1        1.0  0.1571914106607437  0.7125382423400879  0.22418920695781708  1.0000
  Li  Li1       1.0  0.6882386207580566  0.44027796387672424  0.9687257409095764  1.0000
  S   S1        1.0  0.15313541889190674  0.1718345433473587  0.7933320999145508  1.0000
  Sc  Sc1       1.0  0.6666772961616516  0.5438523292541504  0.10657081753015521  1.0000
  Tb  Tb1       1.0  0.6730656027793884  0.7365599870681763  0.05224126949906349  1.0000
  Zr  Zr1       1.0  0.642879068851471  0.2931099832057953  0.017869813367724433  1.0000
