data_image0
_chemical_formula_structural       Ce8Cr2S2Ti2
_chemical_formula_sum              "Ce8 Cr2 S2 Ti2"
_cell_length_a       5.049585665283523
_cell_length_b       7.950433674838417
_cell_length_c       7.835024356842041
_cell_angle_alpha    122.14246212046359
_cell_angle_beta     90.0204893339897
_cell_angle_gamma    87.64739126329424

_space_group_name_H-M_alt    "P 1"
_space_group_IT_number       1

loop_
  _space_group_symop_operation_xyz
  'x, y, z'

loop_
  _atom_site_type_symbol
  _atom_site_label
  _atom_site_symmetry_multiplicity
  _atom_site_fract_x
  _atom_site_fract_y
  _atom_site_fract_z
  _atom_site_occupancy
  Ce  Ce1       1.0  0.957621693611145  0.9865213036537169  0.9304269552230833  1.0000
  Ce  Ce2       1.0  0.9582117795944215  0.19567133486270902  0.5577760338783264  1.0000
  Ce  Ce3       1.0  0.45626768469810486  0.9700558781623839  0.20284751057624803  1.0000
  Ce  Ce4       1.0  0.45817747712135315  0.002369142137467861  0.69502454996109  1.0000
  Ce  Ce5       1.0  0.9564903974533081  0.24618628621101377  0.33766576647758484  1.0000
  Ce  Ce6       1.0  0.9521241188049316  0.06779609620571136  0.5946344137191772  1.0000
  Ce  Ce7       1.0  0.9587963223457336  0.15923035144805905  0.15451066195964813  1.0000
  Ce  Ce8       1.0  0.4504130184650421  0.8947307467460631  0.9839018583297727  1.0000
  Cr  Cr1       1.0  0.4559037983417511  0.7978075146675109  0.876676023006439  1.0000
  Cr  Cr2       1.0  0.4535333216190338  0.02057131193578243  0.7388634085655211  1.0000
  S   S1        1.0  0.9577916264533997  0.6323100924491881  0.9945821166038511  1.0000
  S   S2        1.0  0.46075358986854553  0.15359555184841156  0.49654313921928395  1.0000
  Ti  Ti1       1.0  0.4571894407272339  0.7825517058372496  0.11654748022556298  1.0000
  Ti  Ti2       1.0  0.4538875222206116  0.7268022894859313  0.601840078830719  1.0000
