data_image0
_chemical_formula_structural       K2NaNi4O
_chemical_formula_sum              "K2 Na1 Ni4 O1"
_cell_length_a       5.250106366153752
_cell_length_b       5.907954576401852
_cell_length_c       5.821547031402588
_cell_angle_alpha    70.8256161399195
_cell_angle_beta     64.63556474449645
_cell_angle_gamma    65.46662492651386

_space_group_name_H-M_alt    "P 1"
_space_group_IT_number       1

loop_
  _space_group_symop_operation_xyz
  'x, y, z'

loop_
  _atom_site_type_symbol
  _atom_site_label
  _atom_site_symmetry_multiplicity
  _atom_site_fract_x
  _atom_site_fract_y
  _atom_site_fract_z
  _atom_site_occupancy
  K   K1        1.0  0.22051948308944702  0.5123466849327087  0.3121187686920166  1.0000
  K   K2        1.0  0.2312086969614029  0.27018654346466064  0.8138169050216675  1.0000
  Na  Na1       1.0  0.7089922428131104  0.009720035828649998  0.7996923923492432  1.0000
  Ni  Ni1       1.0  0.25082594156265264  0.8625026941299437  0.8162552714347839  1.0000
  Ni  Ni2       1.0  0.7117742300033569  0.9893682003021239  0.813640296459198  1.0000
  Ni  Ni3       1.0  0.9674236178398132  0.268379807472229  0.3129572570323944  1.0000
  Ni  Ni4       1.0  0.7223575115203857  0.49581184983253473  0.05276569724082947  1.0000
  O   O1        1.0  0.8642980456352234  0.19942127168178556  0.42848992347717285  1.0000
