data_image0
_chemical_formula_structural       AlK2MnNaNi3
_chemical_formula_sum              "Al1 K2 Mn1 Na1 Ni3"
_cell_length_a       4.136153129506938
_cell_length_b       5.828329637605473
_cell_length_c       6.225352764129639
_cell_angle_alpha    118.38907419379319
_cell_angle_beta     91.50009994539103
_cell_angle_gamma    90.53471412661044

_space_group_name_H-M_alt    "P 1"
_space_group_IT_number       1

loop_
  _space_group_symop_operation_xyz
  'x, y, z'

loop_
  _atom_site_type_symbol
  _atom_site_label
  _atom_site_symmetry_multiplicity
  _atom_site_fract_x
  _atom_site_fract_y
  _atom_site_fract_z
  _atom_site_occupancy
  Al  Al1       1.0  0.02244824357330799  0.2807002365589142  0.764687180519104  1.0000
  K   K1        1.0  0.5363086462020874  0.9693944454193115  0.5551825761795044  1.0000
  K   K2        1.0  0.036831386387348175  0.30789676308631897  0.6754269599914551  1.0000
  Mn  Mn1       1.0  0.03295309469103813  0.9596592783927917  0.26297822594642645  1.0000
  Na  Na1       1.0  0.534869372844696  0.9649733304977417  0.0938890352845192  1.0000
  Ni  Ni1       1.0  0.533976674079895  0.29758894443511963  0.9398596286773682  1.0000
  Ni  Ni2       1.0  0.05163256451487541  0.5919703841209412  0.31386372447013855  1.0000
  Ni  Ni3       1.0  0.537710428237915  0.7378349900245667  0.4456693828105927  1.0000
