data_image0
_chemical_formula_structural       Cr4K4
_chemical_formula_sum              "Cr4 K4"
_cell_length_a       5.019263553151089
_cell_length_b       7.292622813565387
_cell_length_c       7.438103675842285
_cell_angle_alpha    120.38782770666926
_cell_angle_beta     89.58916568210944
_cell_angle_gamma    90.33887840498954

_space_group_name_H-M_alt    "P 1"
_space_group_IT_number       1

loop_
  _space_group_symop_operation_xyz
  'x, y, z'

loop_
  _atom_site_type_symbol
  _atom_site_label
  _atom_site_symmetry_multiplicity
  _atom_site_fract_x
  _atom_site_fract_y
  _atom_site_fract_z
  _atom_site_occupancy
  Cr  Cr1       1.0  0.9590404033660889  0.5805625319480896  0.622093141078949  1.0000
  Cr  Cr2       1.0  0.9606374502182007  0.29921457171440125  0.6996755599975586  1.0000
  Cr  Cr3       1.0  0.9556587934494019  0.8048949241638184  0.10954415798187256  1.0000
  Cr  Cr4       1.0  0.9570997357368469  0.29803362488746643  0.31539610028266907  1.0000
  K   K1        1.0  0.46285945177078247  0.2981821298599243  0.6487824320793152  1.0000
  K   K2        1.0  0.46298959851264954  0.29745107889175415  0.4224989116191864  1.0000
  K   K3        1.0  0.962267279624939  0.29646894335746765  0.12329532206058502  1.0000
  K   K4        1.0  0.4552142918109894  0.8014389872550964  0.20528294146060944  1.0000
