data_image0
_chemical_formula_structural       Cr4K4
_chemical_formula_sum              "Cr4 K4"
_cell_length_a       4.966900698459212
_cell_length_b       6.175079955650627
_cell_length_c       8.79784870147705
_cell_angle_alpha    105.85913155889041
_cell_angle_beta     89.66435233574086
_cell_angle_gamma    100.3108003484586

_space_group_name_H-M_alt    "P 1"
_space_group_IT_number       1

loop_
  _space_group_symop_operation_xyz
  'x, y, z'

loop_
  _atom_site_type_symbol
  _atom_site_label
  _atom_site_symmetry_multiplicity
  _atom_site_fract_x
  _atom_site_fract_y
  _atom_site_fract_z
  _atom_site_occupancy
  Cr  Cr1       1.0  0.07053815573453903  0.7522577047348022  0.5585028529167175  1.0000
  Cr  Cr2       1.0  0.5681977868080139  0.24688097834587097  0.555483341217041  1.0000
  Cr  Cr3       1.0  0.06079656258225441  0.22683531045913696  0.0826592817902565  1.0000
  Cr  Cr4       1.0  0.06272384524345398  0.24215178191661835  0.5679230690002441  1.0000
  K   K1        1.0  0.5705097913742065  0.7337635159492493  0.5672382712364197  1.0000
  K   K2        1.0  0.5717013478279114  0.9111503958702087  0.3598479628562927  1.0000
  K   K3        1.0  0.07121045887470245  0.5570034980773926  0.8673038482666016  1.0000
  K   K4        1.0  0.07006873935461044  0.48266083002090454  0.5986494421958923  1.0000
