data_image0
_chemical_formula_structural       Ce2Dy2GeMgTb3U
_chemical_formula_sum              "Ce2 Dy2 Ge1 Mg1 Tb3 U1"
_cell_length_a       5.407583762692056
_cell_length_b       7.186103077483777
_cell_length_c       7.3935441970825195
_cell_angle_alpha    123.68952448056588
_cell_angle_beta     91.38018181819672
_cell_angle_gamma    90.70213824742088

_space_group_name_H-M_alt    "P 1"
_space_group_IT_number       1

loop_
  _space_group_symop_operation_xyz
  'x, y, z'

loop_
  _atom_site_type_symbol
  _atom_site_label
  _atom_site_symmetry_multiplicity
  _atom_site_fract_x
  _atom_site_fract_y
  _atom_site_fract_z
  _atom_site_occupancy
  Ce  Ce1       1.0  0.9801769256591797  0.9166074395179749  0.8123241066932678  1.0000
  Ce  Ce2       1.0  0.9750950932502747  0.26395151019096375  0.7417198419570923  1.0000
  Dy  Dy1       1.0  0.473174512386322  0.19874508678913116  0.02193164266645907  1.0000
  Dy  Dy2       1.0  0.47353941202163696  0.3932410180568695  0.9493480920791626  1.0000
  Ge  Ge1       1.0  0.9764093160629272  0.723106324672699  0.6246016621589661  1.0000
  Mg  Mg1       1.0  0.4753018319606781  0.2534429132938385  0.10556581616401672  1.0000
  Tb  Tb1       1.0  0.974407970905304  0.7041462659835815  0.7617868781089783  1.0000
  Tb  Tb2       1.0  0.4767796993255615  0.457132488489151  0.6314957737922668  1.0000
  Tb  Tb3       1.0  0.9748071432113647  0.22951318323612213  0.647813618183136  1.0000
  U   U1        1.0  0.9742239117622375  0.427052766084671  0.3960282504558563  1.0000
