data_image0
_chemical_formula_structural       BiCeFe2IMgRu3U
_chemical_formula_sum              "Bi1 Ce1 Fe2 I1 Mg1 Ru3 U1"
_cell_length_a       4.2414384553240065
_cell_length_b       5.890731322235801
_cell_length_c       6.323374271392822
_cell_angle_alpha    132.87341730869375
_cell_angle_beta     93.91813520380326
_cell_angle_gamma    78.0965204004164

_space_group_name_H-M_alt    "P 1"
_space_group_IT_number       1

loop_
  _space_group_symop_operation_xyz
  'x, y, z'

loop_
  _atom_site_type_symbol
  _atom_site_label
  _atom_site_symmetry_multiplicity
  _atom_site_fract_x
  _atom_site_fract_y
  _atom_site_fract_z
  _atom_site_occupancy
  Bi  Bi1       1.0  0.09423725306987762  0.3688666522502899  0.15777064859867093  1.0000
  Ce  Ce1       1.0  0.20411498844623566  0.6908978819847107  0.10683776438236237  1.0000
  Fe  Fe1       1.0  0.10053782910108566  0.9532397985458374  0.19889995455741882  1.0000
  Fe  Fe2       1.0  0.165647953748703  0.357117235660553  0.3362201154232025  1.0000
  I   I1        1.0  0.6498954892158508  0.3703645169734955  0.2559928297996521  1.0000
  Mg  Mg1       1.0  0.7113922238349915  0.6686347126960754  0.6283504366874695  1.0000
  Ru  Ru1       1.0  0.3826912045478821  0.9912607669830322  0.08321969956159592  1.0000
  Ru  Ru2       1.0  0.8737459778785706  0.6694150567054749  0.43654552102088917  1.0000
  Ru  Ru3       1.0  0.8540396094322205  0.5193475484848022  0.020455515012145042  1.0000
  U   U1        1.0  0.6598621606826782  0.5183378458023071  0.1141517162322998  1.0000
