data_image0
_chemical_formula_structural       B5Fe5
_chemical_formula_sum              "B5 Fe5"
_cell_length_a       3.36806689825319
_cell_length_b       3.5404316902926722
_cell_length_c       6.6219353675842285
_cell_angle_alpha    111.95732656020473
_cell_angle_beta     97.28103806843069
_cell_angle_gamma    89.01050030968261

_space_group_name_H-M_alt    "P 1"
_space_group_IT_number       1

loop_
  _space_group_symop_operation_xyz
  'x, y, z'

loop_
  _atom_site_type_symbol
  _atom_site_label
  _atom_site_symmetry_multiplicity
  _atom_site_fract_x
  _atom_site_fract_y
  _atom_site_fract_z
  _atom_site_occupancy
  B   B1        1.0  0.7686235904693605  0.9399566054344177  0.21977026760578156  1.0000
  B   B2        1.0  0.315534770488739  0.8193267583847046  0.2517055869102478  1.0000
  B   B3        1.0  0.7748577594757081  0.40715327858924866  0.19039012491703033  1.0000
  B   B4        1.0  0.8333479166030885  0.9683165550231934  0.5361456871032715  1.0000
  B   B5        1.0  0.28099510073661804  0.19479696452617645  0.2961549162864685  1.0000
  Fe  Fe1       1.0  0.586068868637085  0.5051356554031372  0.5180202722549438  1.0000
  Fe  Fe2       1.0  0.8197211027145387  0.026500781998038292  0.6728841662406921  1.0000
  Fe  Fe3       1.0  0.3244495093822479  0.6446866393089294  0.7122130393981934  1.0000
  Fe  Fe4       1.0  0.9870110750198365  0.2959258556365967  0.6885696649551392  1.0000
  Fe  Fe5       1.0  0.2314466089010239  0.354838103055954  0.8637406826019287  1.0000
