data_image0
_chemical_formula_structural       B4CeFe5
_chemical_formula_sum              "B4 Ce1 Fe5"
_cell_length_a       3.604972576330133
_cell_length_b       4.7554913710887075
_cell_length_c       5.124881267547607
_cell_angle_alpha    101.33670710416509
_cell_angle_beta     89.44832232569497
_cell_angle_gamma    88.47902220267895

_space_group_name_H-M_alt    "P 1"
_space_group_IT_number       1

loop_
  _space_group_symop_operation_xyz
  'x, y, z'

loop_
  _atom_site_type_symbol
  _atom_site_label
  _atom_site_symmetry_multiplicity
  _atom_site_fract_x
  _atom_site_fract_y
  _atom_site_fract_z
  _atom_site_occupancy
  B   B1        1.0  0.6151243448257446  0.3884642720222473  0.03921383246779443  1.0000
  B   B2        1.0  0.6127240061759949  0.35283613204956055  0.5498440265655518  1.0000
  B   B3        1.0  0.1189042180776596  0.09922242909669876  0.6667211651802064  1.0000
  B   B4        1.0  0.6158387660980225  0.6844409108161926  0.5193057656288147  1.0000
  Ce  Ce1       1.0  0.6160138845443726  0.06889139115810394  0.1691722571849823  1.0000
  Fe  Fe1       1.0  0.6147087216377258  0.03166769817471504  0.5329968929290773  1.0000
  Fe  Fe2       1.0  0.10686420649290085  0.7755399942398071  0.24106426537036896  1.0000
  Fe  Fe3       1.0  0.11315906047821045  0.39497143030166626  0.6648199558258057  1.0000
  Fe  Fe4       1.0  0.10456237196922302  0.26949912309646606  0.4678437411785126  1.0000
  Fe  Fe5       1.0  0.10508827865123749  0.8913881182670593  0.8814495801925659  1.0000
