data_image0
_chemical_formula_structural       BFO5P2Pb3
_chemical_formula_sum              "B1 F1 O5 P2 Pb3"
_cell_length_a       5.388124208357627
_cell_length_b       6.22611313203593
_cell_length_c       6.432062149047852
_cell_angle_alpha    72.75580383786972
_cell_angle_beta     67.55214516004322
_cell_angle_gamma    61.06273614720841

_space_group_name_H-M_alt    "P 1"
_space_group_IT_number       1

loop_
  _space_group_symop_operation_xyz
  'x, y, z'

loop_
  _atom_site_type_symbol
  _atom_site_label
  _atom_site_symmetry_multiplicity
  _atom_site_fract_x
  _atom_site_fract_y
  _atom_site_fract_z
  _atom_site_occupancy
  B   B1        1.0  0.6547263860702515  0.8537572026252747  0.31636083126068115  1.0000
  F   F1        1.0  0.6132980585098267  0.17909392714500427  0.7451274991035461  1.0000
  O   O1        1.0  0.784959614276886  0.04913165420293808  0.4847206771373748  1.0000
  O   O2        1.0  0.7570703625679016  0.5537128448486328  0.9832572937011718  1.0000
  O   O3        1.0  0.2779830992221832  0.1733843982219696  0.21798209846019742  1.0000
  O   O4        1.0  0.9996259212493896  0.31428831815719604  0.7261493802070618  1.0000
  O   O5        1.0  0.7579470872879028  0.46227163076400757  0.45926606655120844  1.0000
  P   P1        1.0  0.6142377853393555  0.9974300265312195  0.7049549221992493  1.0000
  P   P2        1.0  0.8651741743087769  0.7043131589889526  0.4682535529136657  1.0000
  Pb  Pb1       1.0  0.6560249924659729  0.4310305714607239  0.2467323988676071  1.0000
  Pb  Pb2       1.0  0.35604023933410645  0.1845928132534027  0.4088254272937774  1.0000
  Pb  Pb3       1.0  0.9911431670188904  0.9195283651351929  0.9982616305351256  1.0000
