data_image0
_chemical_formula_structural       F2HO5Pb4
_chemical_formula_sum              "F2 H1 O5 Pb4"
_cell_length_a       5.821688512527291
_cell_length_b       6.229103973206434
_cell_length_c       6.411613464355469
_cell_angle_alpha    65.73715335489753
_cell_angle_beta     64.2333922414324
_cell_angle_gamma    60.12155286464988

_space_group_name_H-M_alt    "P 1"
_space_group_IT_number       1

loop_
  _space_group_symop_operation_xyz
  'x, y, z'

loop_
  _atom_site_type_symbol
  _atom_site_label
  _atom_site_symmetry_multiplicity
  _atom_site_fract_x
  _atom_site_fract_y
  _atom_site_fract_z
  _atom_site_occupancy
  F   F1        1.0  0.4809995591640472  0.5975699424743652  0.8755270838737488  1.0000
  F   F2        1.0  0.9717857837677001  0.12089413404464722  0.6968191266059875  1.0000
  H   H1        1.0  0.9870209097862243  0.11321323364973068  0.925228476524353  1.0000
  O   O1        1.0  0.15550854802131653  0.33692359924316406  0.5697926878929138  1.0000
  O   O2        1.0  0.6562853455543518  0.7875775694847107  0.22483696043491364  1.0000
  O   O3        1.0  0.21436496078968045  0.10261106491088867  0.8451346755027771  1.0000
  O   O4        1.0  0.31120529770851135  0.7577560544013977  0.3823337256908417  1.0000
  O   O5        1.0  0.43050226569175715  0.3543955385684967  0.7597424387931824  1.0000
  Pb  Pb1       1.0  0.6392394304275513  0.7833248376846313  0.2747173011302948  1.0000
  Pb  Pb2       1.0  0.526680588722229  0.348953515291214  0.5728015303611755  1.0000
  Pb  Pb3       1.0  0.2932076156139374  0.7811775803565979  0.45594868063926697  1.0000
  Pb  Pb4       1.0  0.48383176326751703  0.37234586477279663  0.11326825618743896  1.0000
