data_image0
_chemical_formula_structural       H3O2Pb7
_chemical_formula_sum              "H3 O2 Pb7"
_cell_length_a       4.393165613300264
_cell_length_b       7.114265378139005
_cell_length_c       7.492197513580322
_cell_angle_alpha    114.54640380956897
_cell_angle_beta     89.84195088734961
_cell_angle_gamma    84.20296175607616

_space_group_name_H-M_alt    "P 1"
_space_group_IT_number       1

loop_
  _space_group_symop_operation_xyz
  'x, y, z'

loop_
  _atom_site_type_symbol
  _atom_site_label
  _atom_site_symmetry_multiplicity
  _atom_site_fract_x
  _atom_site_fract_y
  _atom_site_fract_z
  _atom_site_occupancy
  H   H1        1.0  0.09468131512403488  0.06793209165334702  0.24215200543403628  1.0000
  H   H2        1.0  0.10446011275053024  0.8407937288284302  0.5772590041160585  1.0000
  H   H3        1.0  0.608189046382904  0.9738859534263611  0.0600140430033207  1.0000
  O   O1        1.0  0.5986632704734802  0.3862832486629486  0.6816468238830568  1.0000
  O   O2        1.0  0.38219237327575684  0.3865024447441101  0.272626131772995  1.0000
  Pb  Pb1       1.0  0.5920650959014893  0.45721733570098877  0.8846079111099244  1.0000
  Pb  Pb2       1.0  0.5936837792396545  0.5451341867446899  0.6792646646499635  1.0000
  Pb  Pb3       1.0  0.09795019775629044  0.6520447134971619  0.12171863764524461  1.0000
  Pb  Pb4       1.0  0.11182752251625061  0.9680050611495972  0.8789971470832826  1.0000
  Pb  Pb5       1.0  0.5991647839546204  0.11570540815591812  0.6416556239128114  1.0000
  Pb  Pb6       1.0  0.6218518018722534  0.5381264090538025  0.4264648854732514  1.0000
  Pb  Pb7       1.0  0.5928656458854675  0.013627318665385246  0.6582080125808717  1.0000
