data_image0
_chemical_formula_structural       H2O5PPb2PtTl
_chemical_formula_sum              "H2 O5 P1 Pb2 Pt1 Tl1"
_cell_length_a       6.005524584873176
_cell_length_b       5.3711862390997895
_cell_length_c       5.744194984436035
_cell_angle_alpha    52.36254222727545
_cell_angle_beta     57.88727851346451
_cell_angle_gamma    55.46544105246327

_space_group_name_H-M_alt    "P 1"
_space_group_IT_number       1

loop_
  _space_group_symop_operation_xyz
  'x, y, z'

loop_
  _atom_site_type_symbol
  _atom_site_label
  _atom_site_symmetry_multiplicity
  _atom_site_fract_x
  _atom_site_fract_y
  _atom_site_fract_z
  _atom_site_occupancy
  H   H1        1.0  0.5466548204421997  0.7086953520774841  0.5047401189804077  1.0000
  H   H2        1.0  0.048429936170578  0.09796489030122757  0.7321730852127076  1.0000
  O   O1        1.0  0.48416814208030706  0.6734620928764343  0.7846933603286744  1.0000
  O   O2        1.0  0.8320373296737671  0.20895330607891083  0.9085265398025514  1.0000
  O   O3        1.0  0.41549283266067505  0.4731060862541199  0.7184689044952393  1.0000
  O   O4        1.0  0.16119270026683807  0.6938840746879578  0.25209853053092957  1.0000
  O   O5        1.0  0.7989139556884766  0.6908549070358276  0.495139092206955  1.0000
  P   P1        1.0  0.49312892556190496  0.691925585269928  0.21691386401653293  1.0000
  Pb  Pb1       1.0  0.7832268476486206  0.8848116397857666  0.2940247654914856  1.0000
  Pb  Pb2       1.0  0.7468147873878479  0.49772682785987854  0.047785274684429176  1.0000
  Pt  Pt1       1.0  0.1427789330482483  0.5922414064407349  0.9386190772056581  1.0000
  Tl  Tl1       1.0  0.8506661057472229  0.6217005252838135  0.6868389248847961  1.0000
