data_image0
_chemical_formula_structural       H3O2Pb7
_chemical_formula_sum              "H3 O2 Pb7"
_cell_length_a       5.708257684469403
_cell_length_b       8.446459042709359
_cell_length_c       8.517022132873535
_cell_angle_alpha    118.04440758433148
_cell_angle_beta     90.33038422924852
_cell_angle_gamma    90.3112823449205

_space_group_name_H-M_alt    "P 1"
_space_group_IT_number       1

loop_
  _space_group_symop_operation_xyz
  'x, y, z'

loop_
  _atom_site_type_symbol
  _atom_site_label
  _atom_site_symmetry_multiplicity
  _atom_site_fract_x
  _atom_site_fract_y
  _atom_site_fract_z
  _atom_site_occupancy
  H   H1        1.0  0.6174273490905762  0.8617964982986449  0.7657940983772278  1.0000
  H   H2        1.0  0.6117894053459167  0.866350769996643  0.763459324836731  1.0000
  H   H3        1.0  0.10248373448848724  0.004102998413145542  0.5578805208206177  1.0000
  O   O1        1.0  0.12148776650428772  0.5654269456863403  0.794500470161438  1.0000
  O   O2        1.0  0.8435460925102234  0.5315154194831848  0.023811643943190575  1.0000
  Pb  Pb1       1.0  0.11446993052959442  0.8760859370231627  0.5162795782089233  1.0000
  Pb  Pb2       1.0  0.10773114114999771  0.34580984711647034  0.5561155676841736  1.0000
  Pb  Pb3       1.0  0.12526419758796692  0.7957132458686829  0.23794375360012054  1.0000
  Pb  Pb4       1.0  0.1265162080526352  0.5495473742485046  0.7261408567428589  1.0000
  Pb  Pb5       1.0  0.631720781326294  0.06608878821134567  0.2517559230327606  1.0000
  Pb  Pb6       1.0  0.3746524751186371  0.2935602366924286  0.79656583070755  1.0000
  Pb  Pb7       1.0  0.6230244636535645  0.25592008233070374  0.09007580578327176  1.0000
