data_image0
_chemical_formula_structural       H2O5PPb3Sb
_chemical_formula_sum              "H2 O5 P1 Pb3 Sb1"
_cell_length_a       5.553487799283731
_cell_length_b       5.970709811592378
_cell_length_c       6.168137073516846
_cell_angle_alpha    70.25771771199945
_cell_angle_beta     66.73164655778362
_cell_angle_gamma    64.01765769542058

_space_group_name_H-M_alt    "P 1"
_space_group_IT_number       1

loop_
  _space_group_symop_operation_xyz
  'x, y, z'

loop_
  _atom_site_type_symbol
  _atom_site_label
  _atom_site_symmetry_multiplicity
  _atom_site_fract_x
  _atom_site_fract_y
  _atom_site_fract_z
  _atom_site_occupancy
  H   H1        1.0  0.994096338748932  0.577687680721283  0.46496522426605225  1.0000
  H   H2        1.0  0.5530636310577393  0.5557928085327148  0.9741427898406982  1.0000
  O   O1        1.0  0.474279135465622  0.5737915635108948  0.4611698091030121  1.0000
  O   O2        1.0  0.9511235356330873  0.26995813846588135  0.004918321967124939  1.0000
  O   O3        1.0  0.7855507135391235  0.9975244998931885  0.6333953738212585  1.0000
  O   O4        1.0  0.179632306098938  0.31891191005706787  0.3576739728450775  1.0000
  O   O5        1.0  0.8738993406295777  0.01729794591665268  0.12705458700656888  1.0000
  P   P1        1.0  0.8734838962554933  0.07089601457118988  0.9626191258430481  1.0000
  Pb  Pb1       1.0  0.8024029731750488  0.5545664429664612  0.1351558268070221  1.0000
  Pb  Pb2       1.0  0.05670634657144547  0.24484826624393463  0.6272932291030884  1.0000
  Pb  Pb3       1.0  0.5277283191680908  0.8115807175636292  0.4283473491668701  1.0000
  Sb  Sb1       1.0  0.3459562659263611  0.9722111821174622  0.3929617702960968  1.0000
