data_image0
_chemical_formula_structural       Lu8S
_chemical_formula_sum              "Lu8 S1"
_cell_length_a       4.252990091862602
_cell_length_b       6.003883809523335
_cell_length_c       8.208574295043945
_cell_angle_alpha    91.18822306760133
_cell_angle_beta     91.30310153203469
_cell_angle_gamma    88.26767903024533

_space_group_name_H-M_alt    "P 1"
_space_group_IT_number       1

loop_
  _space_group_symop_operation_xyz
  'x, y, z'

loop_
  _atom_site_type_symbol
  _atom_site_label
  _atom_site_symmetry_multiplicity
  _atom_site_fract_x
  _atom_site_fract_y
  _atom_site_fract_z
  _atom_site_occupancy
  Lu  Lu1       1.0  0.23025654256343842  0.3625488579273224  0.8560600876808167  1.0000
  Lu  Lu2       1.0  0.23485995829105377  0.09498688578605652  0.3078981339931488  1.0000
  Lu  Lu3       1.0  0.7349672317504883  0.8709737658500671  0.1752902865409851  1.0000
  Lu  Lu4       1.0  0.7356693148612976  0.8646889328956604  0.38911232352256775  1.0000
  Lu  Lu5       1.0  0.2321689873933792  0.36349183320999146  0.019705859944224358  1.0000
  Lu  Lu6       1.0  0.23217909038066864  0.866950273513794  0.16043958067893982  1.0000
  Lu  Lu7       1.0  0.734239399433136  0.3824078440666199  0.8524723649024963  1.0000
  Lu  Lu8       1.0  0.734891951084137  0.6769556403160095  0.8433994054794312  1.0000
  S   S1        1.0  0.23440125584602356  0.5847343802452087  0.9401947855949402  1.0000
