data_image0
_chemical_formula_structural       Lu8S
_chemical_formula_sum              "Lu8 S1"
_cell_length_a       4.642594863762872
_cell_length_b       5.758808173659862
_cell_length_c       7.30689811706543
_cell_angle_alpha    90.00640044456998
_cell_angle_beta     90.31602819541402
_cell_angle_gamma    87.63810403912687

_space_group_name_H-M_alt    "P 1"
_space_group_IT_number       1

loop_
  _space_group_symop_operation_xyz
  'x, y, z'

loop_
  _atom_site_type_symbol
  _atom_site_label
  _atom_site_symmetry_multiplicity
  _atom_site_fract_x
  _atom_site_fract_y
  _atom_site_fract_z
  _atom_site_occupancy
  Lu  Lu1       1.0  0.8118448257446289  0.53194659948349  0.3494513928890228  1.0000
  Lu  Lu2       1.0  0.20390808582305908  0.4784792363643646  0.5028717517852783  1.0000
  Lu  Lu3       1.0  0.7515239119529724  0.9002426862716675  0.9693849086761475  1.0000
  Lu  Lu4       1.0  0.2631027102470398  0.9638739824295044  0.8218371272087097  1.0000
  Lu  Lu5       1.0  0.2688181698322296  0.2512143552303314  0.26801183819770813  1.0000
  Lu  Lu6       1.0  0.779853880405426  0.3713236451148987  0.12190096080303192  1.0000
  Lu  Lu7       1.0  0.7922768592834473  0.9980218410491943  0.7970280647277832  1.0000
  Lu  Lu8       1.0  0.22640129923820496  0.9631434679031372  0.5143094658851624  1.0000
  S   S1        1.0  0.4623028039932251  0.46616873145103455  0.7301982045173645  1.0000
