data_image0
_chemical_formula_structural       HoRhSb2Tb3TeYb
_chemical_formula_sum              "Ho1 Rh1 Sb2 Tb3 Te1 Yb1"
_cell_length_a       5.421760005185169
_cell_length_b       6.763567848317254
_cell_length_c       7.240447521209717
_cell_angle_alpha    122.27144575532249
_cell_angle_beta     95.89271669222288
_cell_angle_gamma    87.58792997915207

_space_group_name_H-M_alt    "P 1"
_space_group_IT_number       1

loop_
  _space_group_symop_operation_xyz
  'x, y, z'

loop_
  _atom_site_type_symbol
  _atom_site_label
  _atom_site_symmetry_multiplicity
  _atom_site_fract_x
  _atom_site_fract_y
  _atom_site_fract_z
  _atom_site_occupancy
  Ho  Ho1       1.0  0.23826834559440613  0.9961990714073181  0.31348723173141474  1.0000
  Rh  Rh1       1.0  0.24562960863113403  0.9285963773727417  0.23878243565559382  1.0000
  Sb  Sb1       1.0  0.20904408395290375  0.4896453022956848  0.9752422571182251  1.0000
  Sb  Sb2       1.0  0.9676597118377686  0.21339745819568634  0.4684780240058899  1.0000
  Tb  Tb1       1.0  0.2390742003917694  0.7164388298988342  0.6109504699707031  1.0000
  Tb  Tb2       1.0  0.22628968954086304  0.7122145295143127  0.9139156937599182  1.0000
  Tb  Tb3       1.0  0.22553211450576782  0.8143882155418396  0.7382684350013733  1.0000
  Te  Te1       1.0  0.6948620676994324  0.5015659928321838  0.5918039083480835  1.0000
  Yb  Yb1       1.0  0.7213057279586792  0.8589314818382263  0.10970189422369003  1.0000
