data_image0
_chemical_formula_structural       Lu7SSc
_chemical_formula_sum              "Lu7 S1 Sc1"
_cell_length_a       4.286413122512813
_cell_length_b       6.569386716923809
_cell_length_c       8.662009239196777
_cell_angle_alpha    96.61841680783024
_cell_angle_beta     91.7009281035441
_cell_angle_gamma    88.86038266754034

_space_group_name_H-M_alt    "P 1"
_space_group_IT_number       1

loop_
  _space_group_symop_operation_xyz
  'x, y, z'

loop_
  _atom_site_type_symbol
  _atom_site_label
  _atom_site_symmetry_multiplicity
  _atom_site_fract_x
  _atom_site_fract_y
  _atom_site_fract_z
  _atom_site_occupancy
  Lu  Lu1       1.0  0.960189938545227  0.10788193345069884  0.8732959628105164  1.0000
  Lu  Lu2       1.0  0.354444682598114  0.8463546037673949  0.8939803838729858  1.0000
  Lu  Lu3       1.0  0.4654354453086853  0.6171865463256836  0.9062016010284424  1.0000
  Lu  Lu4       1.0  0.8865361213684082  0.3621313273906707  0.40814170241355896  1.0000
  Lu  Lu5       1.0  0.3853052854537964  0.35338404774665827  0.5954723954200745  1.0000
  Lu  Lu6       1.0  0.38353651762008667  0.22140999138355252  0.22515085339546204  1.0000
  Lu  Lu7       1.0  0.384250670671463  0.8237264752387999  0.18486832082271576  1.0000
  S   S1        1.0  0.8682163953781128  0.3053218722343445  0.2263185679912567  1.0000
  Sc  Sc1       1.0  0.9118775725364685  0.11544552445411681  0.6742088198661804  1.0000
