data_image0
_chemical_formula_structural       Lu7SSc
_chemical_formula_sum              "Lu7 S1 Sc1"
_cell_length_a       4.001630917682519
_cell_length_b       5.57101215047403
_cell_length_c       7.211263179779053
_cell_angle_alpha    94.56413693106097
_cell_angle_beta     90.79078368421601
_cell_angle_gamma    87.52462139304025

_space_group_name_H-M_alt    "P 1"
_space_group_IT_number       1

loop_
  _space_group_symop_operation_xyz
  'x, y, z'

loop_
  _atom_site_type_symbol
  _atom_site_label
  _atom_site_symmetry_multiplicity
  _atom_site_fract_x
  _atom_site_fract_y
  _atom_site_fract_z
  _atom_site_occupancy
  Lu  Lu1       1.0  0.3507966101169586  0.2959335148334503  0.28091323375701904  1.0000
  Lu  Lu2       1.0  0.8559789061546326  0.11337919533252716  0.20717932283878326  1.0000
  Lu  Lu3       1.0  0.35471439361572266  0.5865375399589539  0.5461925268173218  1.0000
  Lu  Lu4       1.0  0.8684531450271606  0.6029203534126282  0.4958273470401764  1.0000
  Lu  Lu5       1.0  0.840366542339325  0.6348249316215515  0.0491173155605793  1.0000
  Lu  Lu6       1.0  0.8701996207237244  0.8443594574928284  0.6971398591995239  1.0000
  Lu  Lu7       1.0  0.8851259350776672  0.041315916925668716  0.6575655937194824  1.0000
  S   S1        1.0  0.3375754654407501  0.11189251393079758  0.3019281923770904  1.0000
  Sc  Sc1       1.0  0.3737033009529114  0.7179722785949707  0.21964457631111145  1.0000
