data_image0
_chemical_formula_structural       Ho3RhSb2Tb2Yb
_chemical_formula_sum              "Ho3 Rh1 Sb2 Tb2 Yb1"
_cell_length_a       4.936403284848694
_cell_length_b       7.411661129888007
_cell_length_c       7.538690090179443
_cell_angle_alpha    120.99597706489133
_cell_angle_beta     89.34618236297743
_cell_angle_gamma    89.68389889313165

_space_group_name_H-M_alt    "P 1"
_space_group_IT_number       1

loop_
  _space_group_symop_operation_xyz
  'x, y, z'

loop_
  _atom_site_type_symbol
  _atom_site_label
  _atom_site_symmetry_multiplicity
  _atom_site_fract_x
  _atom_site_fract_y
  _atom_site_fract_z
  _atom_site_occupancy
  Ho  Ho1       1.0  0.327877938747406  0.9013751745223999  0.07666102051734917  1.0000
  Ho  Ho2       1.0  0.8267263174057007  0.17219434678554535  0.04870755225419996  1.0000
  Ho  Ho3       1.0  0.8302306532859802  0.16922283172607422  0.09903620183467862  1.0000
  Rh  Rh1       1.0  0.32707369327545166  0.028830114752054214  0.5380563735961914  1.0000
  Sb  Sb1       1.0  0.8196729421615601  0.5412341356277466  0.48237389326095576  1.0000
  Sb  Sb2       1.0  0.3201594650745392  0.5424400568008423  0.6263591647148131  1.0000
  Tb  Tb1       1.0  0.3278732895851135  0.19731543958187103  0.9771428704261779  1.0000
  Tb  Tb2       1.0  0.32932335138320923  0.8027895092964172  0.7869658470153807  1.0000
  Yb  Yb1       1.0  0.3259809911251068  0.6855743527412415  0.5691822171211243  1.0000
