data_image0
_chemical_formula_structural       PPrS3U4
_chemical_formula_sum              "P1 Pr1 S3 U4"
_cell_length_a       5.625074246743811
_cell_length_b       6.345922807644479
_cell_length_c       7.233292579650879
_cell_angle_alpha    104.05645472910155
_cell_angle_beta     108.79174617464126
_cell_angle_gamma    88.62741791135586

_space_group_name_H-M_alt    "P 1"
_space_group_IT_number       1

loop_
  _space_group_symop_operation_xyz
  'x, y, z'

loop_
  _atom_site_type_symbol
  _atom_site_label
  _atom_site_symmetry_multiplicity
  _atom_site_fract_x
  _atom_site_fract_y
  _atom_site_fract_z
  _atom_site_occupancy
  P   P1        1.0  0.5950061678886414  0.7953687310218811  0.945125162601471  1.0000
  Pr  Pr1       1.0  0.3000657260417938  0.9059471487998962  0.4654823839664459  1.0000
  S   S1        1.0  0.3897803425788879  0.7797685861587524  0.9260321855545044  1.0000
  S   S2        1.0  0.17538677155971527  0.09898077696561813  0.004218028858304024  1.0000
  S   S3        1.0  0.916513442993164  0.7008911967277527  0.6983357071876526  1.0000
  U   U1        1.0  0.9507955908775328  0.1453227698802948  0.44853317737579346  1.0000
  U   U2        1.0  0.8931869864463805  0.3064813017845154  0.7975984811782837  1.0000
  U   U3        1.0  0.2424545586109161  0.4482485055923462  0.33519405126571655  1.0000
  U   U4        1.0  0.9513225555419921  0.6496975421905518  0.7903227210044861  1.0000
