data_image0
_chemical_formula_structural       RuS4U4
_chemical_formula_sum              "Ru1 S4 U4"
_cell_length_a       5.310277120049616
_cell_length_b       5.908612260486056
_cell_length_c       7.342062950134277
_cell_angle_alpha    113.04548664118853
_cell_angle_beta     111.47566537084779
_cell_angle_gamma    87.66270595229099

_space_group_name_H-M_alt    "P 1"
_space_group_IT_number       1

loop_
  _space_group_symop_operation_xyz
  'x, y, z'

loop_
  _atom_site_type_symbol
  _atom_site_label
  _atom_site_symmetry_multiplicity
  _atom_site_fract_x
  _atom_site_fract_y
  _atom_site_fract_z
  _atom_site_occupancy
  Ru  Ru1       1.0  0.9820395112037659  0.41626372933387756  0.5758877396583557  1.0000
  S   S1        1.0  0.6091373562812805  0.19976285099983215  0.07083094865083694  1.0000
  S   S2        1.0  0.05530020594596863  0.4782816767692566  0.3758939802646637  1.0000
  S   S3        1.0  0.47656795382499695  0.7803013324737549  0.5759233236312866  1.0000
  S   S4        1.0  0.9843235611915588  0.08841879665851593  0.598110020160675  1.0000
  U   U1        1.0  0.8731896877288818  0.8935604095458984  0.7626065015792847  1.0000
  U   U2        1.0  0.8675268888473511  0.1445048302412033  0.8278164267539978  1.0000
  U   U3        1.0  0.24397066235542297  0.6728836894035339  0.596522867679596  1.0000
  U   U4        1.0  0.38339507579803467  0.1444375216960907  0.8138572573661804  1.0000
