data_image0
_chemical_formula_structural       RuS4U4
_chemical_formula_sum              "Ru1 S4 U4"
_cell_length_a       5.648997596149135
_cell_length_b       4.953927886023204
_cell_length_c       6.297367095947266
_cell_angle_alpha    125.08729842938907
_cell_angle_beta     113.19532953627854
_cell_angle_gamma    90.02047653155897

_space_group_name_H-M_alt    "P 1"
_space_group_IT_number       1

loop_
  _space_group_symop_operation_xyz
  'x, y, z'

loop_
  _atom_site_type_symbol
  _atom_site_label
  _atom_site_symmetry_multiplicity
  _atom_site_fract_x
  _atom_site_fract_y
  _atom_site_fract_z
  _atom_site_occupancy
  Ru  Ru1       1.0  0.683354377746582  0.9327249526977538  0.6224109530448914  1.0000
  S   S1        1.0  0.020067019388079643  0.3563448488712311  0.9222108721733093  1.0000
  S   S2        1.0  0.5824695229530334  0.31521257758140564  0.15436449646949768  1.0000
  S   S3        1.0  0.38195836544036865  0.0587552785873413  0.08277362585067749  1.0000
  S   S4        1.0  0.6786191463470459  0.5630605220794678  0.6624731421470642  1.0000
  U   U1        1.0  0.07939156144857407  0.7008281946182251  0.9097155928611755  1.0000
  U   U2        1.0  0.640688955783844  0.31373801827430725  0.43180686235427856  1.0000
  U   U3        1.0  0.8409544825553894  0.06104977056384086  0.18504101037979126  1.0000
  U   U4        1.0  0.05657221749424934  0.3395688831806183  0.7136231660842896  1.0000
