data_image0
_chemical_formula_structural       Bi2Ge3ISb2Te
_chemical_formula_sum              "Bi2 Ge3 I1 Sb2 Te1"
_cell_length_a       6.355671966401787
_cell_length_b       6.252238276683135
_cell_length_c       8.5244722366333
_cell_angle_alpha    90.33880412176954
_cell_angle_beta     90.31868470473914
_cell_angle_gamma    106.73650849363797

_space_group_name_H-M_alt    "P 1"
_space_group_IT_number       1

loop_
  _space_group_symop_operation_xyz
  'x, y, z'

loop_
  _atom_site_type_symbol
  _atom_site_label
  _atom_site_symmetry_multiplicity
  _atom_site_fract_x
  _atom_site_fract_y
  _atom_site_fract_z
  _atom_site_occupancy
  Bi  Bi1       1.0  0.6180447340011597  0.30832207202911377  0.1914343684911728  1.0000
  Bi  Bi2       1.0  0.11719124019145966  0.38053610920906067  0.6427761912345886  1.0000
  Ge  Ge1       1.0  0.39794108271598816  0.7603406310081482  0.38986679911613464  1.0000
  Ge  Ge2       1.0  0.11657633632421494  0.28141137957572937  0.45081570744514465  1.0000
  Ge  Ge3       1.0  0.12195934355258942  0.13892820477485657  0.32134124636650085  1.0000
  I   I1        1.0  0.41203227639198303  0.18287797272205353  0.9495802521705627  1.0000
  Sb  Sb1       1.0  0.6205028891563416  0.6297134160995483  0.16486214101314545  1.0000
  Sb  Sb2       1.0  0.626974880695343  0.6046114563941956  0.850805163383484  1.0000
  Te  Te1       1.0  0.904283881187439  0.9770474433898926  0.2088785618543625  1.0000
