data_image0
_chemical_formula_structural       Bi2Cd2ISbScTbTi
_chemical_formula_sum              "Bi2 Cd2 I1 Sb1 Sc1 Tb1 Ti1"
_cell_length_a       5.539036626622006
_cell_length_b       5.419008061699019
_cell_length_c       9.274236679077148
_cell_angle_alpha    89.97345512148377
_cell_angle_beta     89.56567936512009
_cell_angle_gamma    122.10084294032609

_space_group_name_H-M_alt    "P 1"
_space_group_IT_number       1

loop_
  _space_group_symop_operation_xyz
  'x, y, z'

loop_
  _atom_site_type_symbol
  _atom_site_label
  _atom_site_symmetry_multiplicity
  _atom_site_fract_x
  _atom_site_fract_y
  _atom_site_fract_z
  _atom_site_occupancy
  Bi  Bi1       1.0  0.4440530240535736  0.47455689311027527  0.6692141890525818  1.0000
  Bi  Bi2       1.0  0.4318268895149231  0.44440826773643494  0.7028539180755615  1.0000
  Cd  Cd1       1.0  0.0984528511762619  0.13390010595321655  0.7822693586349487  1.0000
  Cd  Cd2       1.0  0.44519245624542236  0.3304283022880554  0.8134106397628784  1.0000
  I   I1        1.0  0.9033913016319275  0.19385819137096405  0.7127293944358826  1.0000
  Sb  Sb1       1.0  0.7181744575500488  0.6425488591194153  0.8682597875595093  1.0000
  Sc  Sc1       1.0  0.9417425990104675  0.3390025198459625  0.9893798828125  1.0000
  Tb  Tb1       1.0  0.9488088488578796  0.3504045009613037  0.34260451793670654  1.0000
  Ti  Ti1       1.0  0.44087207317352295  0.9017776250839233  0.4539856016635895  1.0000
