data_image0
_chemical_formula_structural       AuCdPtTe6
_chemical_formula_sum              "Au1 Cd1 Pt1 Te6"
_cell_length_a       5.856147197605592
_cell_length_b       6.2628356582745734
_cell_length_c       6.739648342132568
_cell_angle_alpha    91.03513515521499
_cell_angle_beta     91.2952067424993
_cell_angle_gamma    95.87512182315712

_space_group_name_H-M_alt    "P 1"
_space_group_IT_number       1

loop_
  _space_group_symop_operation_xyz
  'x, y, z'

loop_
  _atom_site_type_symbol
  _atom_site_label
  _atom_site_symmetry_multiplicity
  _atom_site_fract_x
  _atom_site_fract_y
  _atom_site_fract_z
  _atom_site_occupancy
  Au  Au1       1.0  0.9331521987915039  0.8509830832481384  0.17397551238536835  1.0000
  Cd  Cd1       1.0  0.4381983280181885  0.7470386028289795  0.7742578387260437  1.0000
  Pt  Pt1       1.0  0.9510917067527771  0.9544451236724854  0.703725278377533  1.0000
  Te  Te1       1.0  0.9293475151062012  0.931423544883728  0.23218142986297607  1.0000
  Te  Te2       1.0  0.9255151748657227  0.798352837562561  0.46845659613609314  1.0000
  Te  Te3       1.0  0.16569192707538605  0.6493051052093506  0.2116064429283142  1.0000
  Te  Te4       1.0  0.4520885944366455  0.05343199521303177  0.3369741141796112  1.0000
  Te  Te5       1.0  0.4560105800628662  0.8498639464378357  0.6649821400642395  1.0000
  Te  Te6       1.0  0.4238695800304413  0.5572898983955383  0.36246737837791443  1.0000
