data_image0
_chemical_formula_structural       Al5BaMg2Zn
_chemical_formula_sum              "Al5 Ba1 Mg2 Zn1"
_cell_length_a       5.4451533191019355
_cell_length_b       5.864128461906021
_cell_length_c       6.365053176879883
_cell_angle_alpha    68.72449199516332
_cell_angle_beta     64.33539689361734
_cell_angle_gamma    63.610855308901215

_space_group_name_H-M_alt    "P 1"
_space_group_IT_number       1

loop_
  _space_group_symop_operation_xyz
  'x, y, z'

loop_
  _atom_site_type_symbol
  _atom_site_label
  _atom_site_symmetry_multiplicity
  _atom_site_fract_x
  _atom_site_fract_y
  _atom_site_fract_z
  _atom_site_occupancy
  Al  Al1       1.0  0.8615939617156982  0.5791651010513306  0.09806119650602341  1.0000
  Al  Al2       1.0  0.35883280634880066  0.06472145020961761  0.08121693134307861  1.0000
  Al  Al3       1.0  0.5491097569465637  0.4717510342597961  0.8276538848876953  1.0000
  Al  Al4       1.0  0.5413202047348022  0.4902785420417785  0.3224022090435028  1.0000
  Al  Al5       1.0  0.7987220883369446  0.08290844410657883  0.8426924347877502  1.0000
  Ba  Ba1       1.0  0.3066086769104004  0.07809180021286011  0.41591677069664  1.0000
  Mg  Mg1       1.0  0.8598884344100952  0.04701843485236168  0.09535318613052368  1.0000
  Mg  Mg2       1.0  0.44343262910842896  0.6939550042152405  0.829066812992096  1.0000
  Zn  Zn1       1.0  0.865186333656311  0.5447128415107727  0.7486106157302856  1.0000
