data_image0
_chemical_formula_structural       Al5AsBaCsMg
_chemical_formula_sum              "Al5 As1 Ba1 Cs1 Mg1"
_cell_length_a       5.724747921626931
_cell_length_b       6.027051432252006
_cell_length_c       5.972232818603516
_cell_angle_alpha    61.04092089425811
_cell_angle_beta     60.987534567405504
_cell_angle_gamma    59.68017925945998

_space_group_name_H-M_alt    "P 1"
_space_group_IT_number       1

loop_
  _space_group_symop_operation_xyz
  'x, y, z'

loop_
  _atom_site_type_symbol
  _atom_site_label
  _atom_site_symmetry_multiplicity
  _atom_site_fract_x
  _atom_site_fract_y
  _atom_site_fract_z
  _atom_site_occupancy
  Al  Al1       1.0  0.37479960918426514  0.44368287920951843  0.43601134419441223  1.0000
  Al  Al2       1.0  0.04120469465851784  0.39844027161598206  0.19196739792823792  1.0000
  Al  Al3       1.0  0.7753562927246094  0.45549097657203674  0.8551316261291504  1.0000
  Al  Al4       1.0  0.5797350406646729  0.23386819660663605  0.11139672249555588  1.0000
  Al  Al5       1.0  0.18624138832092285  0.6705808043479919  0.013817423023283482  1.0000
  As  As1       1.0  0.5820171236991882  0.3871914744377136  0.6848890781402588  1.0000
  Ba  Ba1       1.0  0.15892082452774048  0.9577441215515137  0.4904879927635193  1.0000
  Cs  Cs1       1.0  0.1662634015083313  0.956598162651062  0.9503628611564636  1.0000
  Mg  Mg1       1.0  0.5838374495506287  0.8702963590621948  0.666313111782074  1.0000
