data_image0
_chemical_formula_structural       Al7FeMg
_chemical_formula_sum              "Al7 Fe1 Mg1"
_cell_length_a       5.309800124045965
_cell_length_b       5.654203776524761
_cell_length_c       5.61476469039917
_cell_angle_alpha    66.88930968201208
_cell_angle_beta     61.28234512747069
_cell_angle_gamma    60.18442656369082

_space_group_name_H-M_alt    "P 1"
_space_group_IT_number       1

loop_
  _space_group_symop_operation_xyz
  'x, y, z'

loop_
  _atom_site_type_symbol
  _atom_site_label
  _atom_site_symmetry_multiplicity
  _atom_site_fract_x
  _atom_site_fract_y
  _atom_site_fract_z
  _atom_site_occupancy
  Al  Al1       1.0  0.6194084286689758  0.13937819004058838  0.4725559651851654  1.0000
  Al  Al2       1.0  0.683480441570282  0.3364512026309967  0.43737283349037176  1.0000
  Al  Al3       1.0  0.6285639405250549  0.7459767460823059  0.15070770680904388  1.0000
  Al  Al4       1.0  0.9843999743461608  0.8166917562484741  0.9002109169960022  1.0000
  Al  Al5       1.0  0.9861453771591185  0.8496113419532776  0.33244413137435913  1.0000
  Al  Al6       1.0  0.598666787147522  0.6416995525360107  0.14640653133392334  1.0000
  Al  Al7       1.0  0.315380722284317  0.05105823278427124  0.8259560465812683  1.0000
  Fe  Fe1       1.0  0.9209551811218262  0.09251580387353897  0.9083790183067322  1.0000
  Mg  Mg1       1.0  0.33452698588371277  0.12879244983196259  0.5796329975128174  1.0000
