data_image0
_chemical_formula_structural       Al5Mg3Mn
_chemical_formula_sum              "Al5 Mg3 Mn1"
_cell_length_a       5.260349619755449
_cell_length_b       5.908864645125801
_cell_length_c       5.983358860015869
_cell_angle_alpha    113.15252647335937
_cell_angle_beta     88.52149883310246
_cell_angle_gamma    89.04041231592338

_space_group_name_H-M_alt    "P 1"
_space_group_IT_number       1

loop_
  _space_group_symop_operation_xyz
  'x, y, z'

loop_
  _atom_site_type_symbol
  _atom_site_label
  _atom_site_symmetry_multiplicity
  _atom_site_fract_x
  _atom_site_fract_y
  _atom_site_fract_z
  _atom_site_occupancy
  Al  Al1       1.0  0.23586079478263855  0.667574405670166  0.7301363945007324  1.0000
  Al  Al2       1.0  0.27048081159591675  0.4938746690750122  0.7469361424446106  1.0000
  Al  Al3       1.0  0.5104107856750488  0.6858921647071838  0.43108248710632324  1.0000
  Al  Al4       1.0  0.544165849685669  0.4916578233242035  0.15114668011665344  1.0000
  Al  Al5       1.0  0.9945102334022522  0.21323177218437195  0.4805460274219513  1.0000
  Mg  Mg1       1.0  0.03412836417555809  0.16930553317070007  0.7356176972389221  1.0000
  Mg  Mg2       1.0  0.556164026260376  0.1743534803390503  0.7153540253639221  1.0000
  Mg  Mg3       1.0  0.5371717214584351  0.1722855567932129  0.9416628479957581  1.0000
  Mn  Mn1       1.0  0.026939552277326584  0.5104113817214966  0.6849305629730225  1.0000
