data_image0
_chemical_formula_structural       BeClFGdGeLiOsPrW
_chemical_formula_sum              "Be1 Cl1 F1 Gd1 Ge1 Li1 Os1 Pr1 W1"
_cell_length_a       5.667482275939555
_cell_length_b       5.641446123934637
_cell_length_c       5.6171112060546875
_cell_angle_alpha    96.81780725531912
_cell_angle_beta     96.84358023553678
_cell_angle_gamma    96.92501439969402

_space_group_name_H-M_alt    "P 1"
_space_group_IT_number       1

loop_
  _space_group_symop_operation_xyz
  'x, y, z'

loop_
  _atom_site_type_symbol
  _atom_site_label
  _atom_site_symmetry_multiplicity
  _atom_site_fract_x
  _atom_site_fract_y
  _atom_site_fract_z
  _atom_site_occupancy
  Be  Be1       1.0  0.1888495832681656  0.6577014923095703  0.4504651427268982  1.0000
  Cl  Cl1       1.0  0.41740021109580994  0.18062490224838257  0.10546690970659256  1.0000
  F   F1        1.0  0.8952992558479309  0.14976918697357178  0.6582854390144348  1.0000
  Gd  Gd1       1.0  0.9408150911331177  0.2016497254371643  0.21934330463409424  1.0000
  Ge  Ge1       1.0  0.8648524880409241  0.6913093328475952  0.11849702149629593  1.0000
  Li  Li1       1.0  0.3986690044403076  0.6739873886108398  0.13745336234569547  1.0000
  Os  Os1       1.0  0.6087971329689026  0.8787432909011841  0.5855803489685059  1.0000
  Pr  Pr1       1.0  0.5890626907348633  0.41236692667007446  0.6645705103874207  1.0000
  W   W1        1.0  0.11901574581861496  0.8750501871109009  0.7909949421882629  1.0000
