data_image0
_chemical_formula_structural       Ge4Os5
_chemical_formula_sum              "Ge4 Os5"
_cell_length_a       3.7550744716554068
_cell_length_b       5.080711550275213
_cell_length_c       7.825342655181885
_cell_angle_alpha    91.23451955819198
_cell_angle_beta     90.12057757927758
_cell_angle_gamma    112.30936236284239

_space_group_name_H-M_alt    "P 1"
_space_group_IT_number       1

loop_
  _space_group_symop_operation_xyz
  'x, y, z'

loop_
  _atom_site_type_symbol
  _atom_site_label
  _atom_site_symmetry_multiplicity
  _atom_site_fract_x
  _atom_site_fract_y
  _atom_site_fract_z
  _atom_site_occupancy
  Ge  Ge1       1.0  0.8027324676513672  0.46189388632774353  0.6277430057525635  1.0000
  Ge  Ge2       1.0  0.5133428573608398  0.900475800037384  0.4428783357143402  1.0000
  Ge  Ge3       1.0  0.7946011424064636  0.4562331736087799  0.2248198688030243  1.0000
  Ge  Ge4       1.0  0.06850918382406235  0.9855839610099792  0.9465683698654175  1.0000
  Os  Os1       1.0  0.4378278851509094  0.744074285030365  0.13551215827465057  1.0000
  Os  Os2       1.0  0.43520426750183105  0.742773175239563  0.7603086829185486  1.0000
  Os  Os3       1.0  0.12655417621135712  0.12369140237569809  0.633690595626831  1.0000
  Os  Os4       1.0  0.12942293286323547  0.12890900671482086  0.26698526740074163  1.0000
  Os  Os5       1.0  0.7428032755851746  0.3411005437374115  0.9234643578529357  1.0000
