data_image0
_chemical_formula_structural       Ge3Os5Pa
_chemical_formula_sum              "Ge3 Os5 Pa1"
_cell_length_a       3.656495084495227
_cell_length_b       6.699844852417069
_cell_length_c       6.730776309967041
_cell_angle_alpha    119.92980918973971
_cell_angle_beta     90.07155177947381
_cell_angle_gamma    90.09123258088586

_space_group_name_H-M_alt    "P 1"
_space_group_IT_number       1

loop_
  _space_group_symop_operation_xyz
  'x, y, z'

loop_
  _atom_site_type_symbol
  _atom_site_label
  _atom_site_symmetry_multiplicity
  _atom_site_fract_x
  _atom_site_fract_y
  _atom_site_fract_z
  _atom_site_occupancy
  Ge  Ge1       1.0  0.1829749196767807  0.5489249229431152  0.12555153667926794  1.0000
  Ge  Ge2       1.0  0.1818406581878662  0.8951099514961243  0.6622900366783142  1.0000
  Ge  Ge3       1.0  0.18384091556072235  0.2835127115249634  0.3064386248588562  1.0000
  Os  Os1       1.0  0.6818838715553284  0.1993483453989029  0.9683050513267517  1.0000
  Os  Os2       1.0  0.6802799701690674  0.5808038115501404  0.4346546232700348  1.0000
  Os  Os3       1.0  0.18160685896873474  0.8957018852233887  0.007493257522583074  1.0000
  Os  Os4       1.0  0.6808211803436279  0.5876145958900452  0.89731365442276  1.0000
  Os  Os5       1.0  0.18112331628799438  0.2781905233860016  0.6908971667289734  1.0000
  Pa  Pa1       1.0  0.6839641332626343  0.9822162389755249  0.36363255977630615  1.0000
