data_image0
_chemical_formula_structural       ClFGe2HKOsUW
_chemical_formula_sum              "Cl1 F1 Ge2 H1 K1 Os1 U1 W1"
_cell_length_a       5.735298284195358
_cell_length_b       5.695469315688693
_cell_length_c       5.680375576019287
_cell_angle_alpha    99.0477565909533
_cell_angle_beta     98.70834563247386
_cell_angle_gamma    98.77930554928754

_space_group_name_H-M_alt    "P 1"
_space_group_IT_number       1

loop_
  _space_group_symop_operation_xyz
  'x, y, z'

loop_
  _atom_site_type_symbol
  _atom_site_label
  _atom_site_symmetry_multiplicity
  _atom_site_fract_x
  _atom_site_fract_y
  _atom_site_fract_z
  _atom_site_occupancy
  Cl  Cl1       1.0  0.3688836991786957  0.7728068232536316  0.798732340335846  1.0000
  F   F1        1.0  0.8098556995391846  0.7707230448722839  0.45804646611213684  1.0000
  Ge  Ge1       1.0  0.8796368837356567  0.24593782424926758  0.3082687258720398  1.0000
  Ge  Ge2       1.0  0.8872882127761841  0.2622218132019043  0.8539256453514099  1.0000
  H   H1        1.0  0.2979150712490082  0.9119646549224854  0.3034873604774475  1.0000
  K   K1        1.0  0.3934360146522522  0.4072464108467102  0.19195933640003204  1.0000
  Os  Os1       1.0  0.11230002343654633  0.04134204611182213  0.5603798627853394  1.0000
  U   U1        1.0  0.8739598989486694  0.7689477205276489  0.979689657688141  1.0000
  W   W1        1.0  0.5953510999679565  0.041633330285549164  0.5554029941558838  1.0000
