data_image0
_chemical_formula_structural       Sn3Te2Zn4
_chemical_formula_sum              "Sn3 Te2 Zn4"
_cell_length_a       4.302509142929606
_cell_length_b       4.291191348472012
_cell_length_c       14.939537048339844
_cell_angle_alpha    90.09115594597895
_cell_angle_beta     89.92537072143196
_cell_angle_gamma    120.29896160464725

_space_group_name_H-M_alt    "P 1"
_space_group_IT_number       1

loop_
  _space_group_symop_operation_xyz
  'x, y, z'

loop_
  _atom_site_type_symbol
  _atom_site_label
  _atom_site_symmetry_multiplicity
  _atom_site_fract_x
  _atom_site_fract_y
  _atom_site_fract_z
  _atom_site_occupancy
  Sn  Sn1       1.0  0.4351709187030792  0.6140714287757874  0.15663264691829681  1.0000
  Sn  Sn2       1.0  0.7688241600990295  0.2825525104999542  0.30532073974609375  1.0000
  Sn  Sn3       1.0  0.4341028332710266  0.61222904920578  0.7764499783515931  1.0000
  Te  Te1       1.0  0.10349864512681961  0.9446442127227783  0.5124627947807312  1.0000
  Te  Te2       1.0  0.1012541651725769  0.9457870125770569  0.9741143584251404  1.0000
  Zn  Zn1       1.0  0.7650666236877441  0.28054895997047424  0.886116623878479  1.0000
  Zn  Zn2       1.0  0.43472662568092346  0.614822506904602  0.4027126431465149  1.0000
  Zn  Zn3       1.0  0.10276524722576141  0.9468308091163635  0.2307392954826355  1.0000
  Zn  Zn4       1.0  0.09883473068475723  0.9480742812156677  0.7268435955047607  1.0000
