data_image0
_chemical_formula_structural       BrCoKSeSnTe3Zn
_chemical_formula_sum              "Br1 Co1 K1 Se1 Sn1 Te3 Zn1"
_cell_length_a       6.689221375030036
_cell_length_b       6.687414626661166
_cell_length_c       6.68715238571167
_cell_angle_alpha    96.90968484171975
_cell_angle_beta     96.60199179747801
_cell_angle_gamma    96.09940536624508

_space_group_name_H-M_alt    "P 1"
_space_group_IT_number       1

loop_
  _space_group_symop_operation_xyz
  'x, y, z'

loop_
  _atom_site_type_symbol
  _atom_site_label
  _atom_site_symmetry_multiplicity
  _atom_site_fract_x
  _atom_site_fract_y
  _atom_site_fract_z
  _atom_site_occupancy
  Br  Br1       1.0  0.2362910360097885  0.058038849383592606  0.7870043516159058  1.0000
  Co  Co1       1.0  0.9857513308525085  0.6013655066490173  0.11043578386306763  1.0000
  K   K1        1.0  0.5012379288673401  0.3052956461906433  0.38941630721092224  1.0000
  Se  Se1       1.0  0.3541281819343567  0.6622937917709351  0.08849751949310301  1.0000
  Sn  Sn1       1.0  0.6061762571334839  0.8588278293609619  0.8776181936264038  1.0000
  Te  Te1       1.0  0.8355837464332581  0.9211133718490601  0.28406634926795954  1.0000
  Te  Te2       1.0  0.7467933297157288  0.31228792667388916  0.886767566204071  1.0000
  Te  Te3       1.0  0.032279420644044876  0.4751683175563812  0.4630481898784637  1.0000
  Zn  Zn1       1.0  0.9932422637939453  0.20021314918994904  0.11497431993484497  1.0000
