data_image0
_chemical_formula_structural       Sn3Te3Zn3
_chemical_formula_sum              "Sn3 Te3 Zn3"
_cell_length_a       4.348129156761206
_cell_length_b       4.354595454056923
_cell_length_c       16.023740768432617
_cell_angle_alpha    89.99775098569877
_cell_angle_beta     89.91199155382395
_cell_angle_gamma    119.47654462392047

_space_group_name_H-M_alt    "P 1"
_space_group_IT_number       1

loop_
  _space_group_symop_operation_xyz
  'x, y, z'

loop_
  _atom_site_type_symbol
  _atom_site_label
  _atom_site_symmetry_multiplicity
  _atom_site_fract_x
  _atom_site_fract_y
  _atom_site_fract_z
  _atom_site_occupancy
  Sn  Sn1       1.0  0.5431222319602966  0.7792057991027832  0.7531009316444398  1.0000
  Sn  Sn2       1.0  0.5412872433662415  0.7819625735282898  0.4470877945423126  1.0000
  Sn  Sn3       1.0  0.5439453125  0.7777273058891296  0.2623747289180755  1.0000
  Te  Te1       1.0  0.8746175765991211  0.44879069924354553  0.88127601146698  1.0000
  Te  Te2       1.0  0.20989005267620087  0.11321507394313812  0.10055933147668839  1.0000
  Te  Te3       1.0  0.210702583193779  0.11018681526184082  0.5996508002281189  1.0000
  Zn  Zn1       1.0  0.8753407001495361  0.4500878155231476  0.556379497051239  1.0000
  Zn  Zn2       1.0  0.20976626873016357  0.11475449055433273  0.9377575516700746  1.0000
  Zn  Zn3       1.0  0.8734917044639587  0.44697239995002747  0.17019321024417874  1.0000
