data_image0
_chemical_formula_structural       AgLaNiP2Sb2Se3Si2Tl2
_chemical_formula_sum              "Ag1 La1 Ni1 P2 Sb2 Se3 Si2 Tl2"
_cell_length_a       5.650104322039554
_cell_length_b       7.960949023331621
_cell_length_c       9.202028274536133
_cell_angle_alpha    90.568880836405
_cell_angle_beta     91.10826300715826
_cell_angle_gamma    91.62221657835694

_space_group_name_H-M_alt    "P 1"
_space_group_IT_number       1

loop_
  _space_group_symop_operation_xyz
  'x, y, z'

loop_
  _atom_site_type_symbol
  _atom_site_label
  _atom_site_symmetry_multiplicity
  _atom_site_fract_x
  _atom_site_fract_y
  _atom_site_fract_z
  _atom_site_occupancy
  Ag  Ag1       1.0  0.3886233866214752  0.3152263462543488  0.8470245003700256  1.0000
  La  La1       1.0  0.8703934550285339  0.7081750631332399  0.33639025688171387  1.0000
  Ni  Ni1       1.0  0.9746081829071045  0.3219748735427857  0.10920985788106918  1.0000
  P   P1        1.0  0.8510975241661072  0.33898633718490606  0.5312110185623169  1.0000
  P   P2        1.0  0.4556449353694916  0.3766230940818787  0.4813942611217499  1.0000
  Sb  Sb1       1.0  0.7440343499183655  0.534313976764679  0.5359033942222595  1.0000
  Sb  Sb2       1.0  0.9598749279975891  0.5756939053535463  0.8780165314674377  1.0000
  Se  Se1       1.0  0.854324460029602  0.0677100345492363  0.8331581354141235  1.0000
  Se  Se2       1.0  0.4558945298194885  0.5937452912330629  0.3507222533226013  1.0000
  Se  Se3       1.0  0.44739553332328796  0.8957644104957582  0.47735342383384716  1.0000
  Si  Si1       1.0  0.24638709425926208  0.03221140801906586  0.8732996582984924  1.0000
  Si  Si2       1.0  0.23705706000328064  0.5003355741500854  0.5396475791931152  1.0000
  Tl  Tl1       1.0  0.39723828434944153  0.2387351989746094  0.3771476447582245  1.0000
  Tl  Tl2       1.0  0.23705022037029266  0.8116242885589601  0.8607334494590759  1.0000
