data_image0
_chemical_formula_structural       LaNiP2SSe6Si2Tl
_chemical_formula_sum              "La1 Ni1 P2 S1 Se6 Si2 Tl1"
_cell_length_a       5.418332823822304
_cell_length_b       7.334396807212365
_cell_length_c       9.011313438415527
_cell_angle_alpha    90.71024394249741
_cell_angle_beta     89.46979855488233
_cell_angle_gamma    90.21641433295999

_space_group_name_H-M_alt    "P 1"
_space_group_IT_number       1

loop_
  _space_group_symop_operation_xyz
  'x, y, z'

loop_
  _atom_site_type_symbol
  _atom_site_label
  _atom_site_symmetry_multiplicity
  _atom_site_fract_x
  _atom_site_fract_y
  _atom_site_fract_z
  _atom_site_occupancy
  La  La1       1.0  0.5339452028274536  0.3567582368850708  0.023900916799902916  1.0000
  Ni  Ni1       1.0  0.5269201397895813  0.3374596834182739  0.32023561000823975  1.0000
  P   P1        1.0  0.060515232384204865  0.018256107345223427  0.3080228865146637  1.0000
  P   P2        1.0  0.020836174488067627  0.05351635813713074  0.5077348947525024  1.0000
  S   S1        1.0  0.9222525358200073  0.038100190460681915  0.9557220935821532  1.0000
  Se  Se1       1.0  0.03218453750014305  0.5505020022392273  0.6187396049499512  1.0000
  Se  Se2       1.0  0.5156002640724182  0.05194779485464096  0.1839260309934616  1.0000
  Se  Se3       1.0  0.35228586196899414  0.07128327339887619  0.7362737655639648  1.0000
  Se  Se4       1.0  0.04893650487065315  0.47815388441085815  0.06189128383994102  1.0000
  Se  Se5       1.0  0.996358335018158  0.5815579295158386  0.5607619285583496  1.0000
  Se  Se6       1.0  0.5127373933792114  0.7543638944625854  0.4392569363117218  1.0000
  Si  Si1       1.0  0.038988105952739716  0.38593629002571106  0.5226312279701233  1.0000
  Si  Si2       1.0  0.5281491279602051  0.35104578733444214  0.9003336429595947  1.0000
  Tl  Tl1       1.0  0.5237345099449158  0.8768631815910339  0.8203628659248352  1.0000
