data_image0
_chemical_formula_structural       BrSb3Se8Tl2
_chemical_formula_sum              "Br1 Sb3 Se8 Tl2"
_cell_length_a       6.9154523430020545
_cell_length_b       6.855578582171868
_cell_length_c       9.339103698730469
_cell_angle_alpha    89.78973480312236
_cell_angle_beta     89.72037621723614
_cell_angle_gamma    94.03198888407658

_space_group_name_H-M_alt    "P 1"
_space_group_IT_number       1

loop_
  _space_group_symop_operation_xyz
  'x, y, z'

loop_
  _atom_site_type_symbol
  _atom_site_label
  _atom_site_symmetry_multiplicity
  _atom_site_fract_x
  _atom_site_fract_y
  _atom_site_fract_z
  _atom_site_occupancy
  Br  Br1       1.0  0.2475803047418594  0.9934282898902892  0.3214712142944336  1.0000
  Sb  Sb1       1.0  0.6846411824226379  0.145721897482872  0.25753292441368103  1.0000
  Sb  Sb2       1.0  0.5213379263877869  0.9187157750129699  0.6869948506355286  1.0000
  Sb  Sb3       1.0  0.20525063574314115  0.3005505502223968  0.8792442083358765  1.0000
  Se  Se1       1.0  0.8890687227249144  0.8557488918304442  0.8042833209037781  1.0000
  Se  Se2       1.0  0.6468789577484131  0.3223873078823089  0.6885644197463989  1.0000
  Se  Se3       1.0  0.24481953680515287  0.6672132611274718  0.20516982674598694  1.0000
  Se  Se4       1.0  0.5989515781402588  0.6311354637145995  0.4916360676288605  1.0000
  Se  Se5       1.0  0.9403321146965026  0.4134207367897033  0.14821445941925052  1.0000
  Se  Se6       1.0  0.028409630060195912  0.933777093887329  0.5727529525756836  1.0000
  Se  Se7       1.0  0.717715859413147  0.07461293786764144  0.18681079149246216  1.0000
  Se  Se8       1.0  0.02627505920827388  0.32874381542205805  0.5047675967216492  1.0000
  Tl  Tl1       1.0  0.7195530533790588  0.6541804075241088  0.3844766914844513  1.0000
  Tl  Tl2       1.0  0.4540739953517913  0.31410187482833857  0.31900307536125183  1.0000
