data_image0
_chemical_formula_structural       NiP4SSe5Si3
_chemical_formula_sum              "Ni1 P4 S1 Se5 Si3"
_cell_length_a       6.228676304937691
_cell_length_b       7.893714296455146
_cell_length_c       8.541263580322266
_cell_angle_alpha    111.3495209604788
_cell_angle_beta     89.13459834385174
_cell_angle_gamma    90.35530791099463

_space_group_name_H-M_alt    "P 1"
_space_group_IT_number       1

loop_
  _space_group_symop_operation_xyz
  'x, y, z'

loop_
  _atom_site_type_symbol
  _atom_site_label
  _atom_site_symmetry_multiplicity
  _atom_site_fract_x
  _atom_site_fract_y
  _atom_site_fract_z
  _atom_site_occupancy
  Ni  Ni1       1.0  0.5687997937202454  0.9935795068740844  0.48449650406837463  1.0000
  P   P1        1.0  0.8584248423576355  0.10773085057735442  0.2910071313381195  1.0000
  P   P2        1.0  0.6075093746185303  0.4777842462062835  0.5464842319488525  1.0000
  P   P3        1.0  0.8618984222412108  0.1908493489027023  0.7316134572029114  1.0000
  P   P4        1.0  0.6303696036338806  0.9837512969970702  0.9942560791969299  1.0000
  S   S1        1.0  0.16688187420368195  0.40306937694549555  0.6976327300071716  1.0000
  Se  Se1       1.0  0.5737635493278503  0.1089445799589157  0.29758119583129883  1.0000
  Se  Se2       1.0  0.06772565841674805  0.7480897307395934  0.04911074787378311  1.0000
  Se  Se3       1.0  0.15751220285892487  0.479479432106018  0.8174200057983398  1.0000
  Se  Se4       1.0  0.6020202040672302  0.5965273976325989  0.25267457962036133  1.0000
  Se  Se5       1.0  0.06869064271450043  0.6136910319328308  0.028026985004544234  1.0000
  Si  Si1       1.0  0.3642587661743164  0.8393008112907409  0.42306077480316157  1.0000
  Si  Si2       1.0  0.04822205379605293  0.6163612604141235  0.9934155941009521  1.0000
  Si  Si3       1.0  0.0503782294690609  0.9741252660751342  0.7370822429656982  1.0000
