data_image0
_chemical_formula_structural       LaP5SSbSe4SiTl
_chemical_formula_sum              "La1 P5 S1 Sb1 Se4 Si1 Tl1"
_cell_length_a       6.116394325314799
_cell_length_b       8.168896510388688
_cell_length_c       9.374136924743652
_cell_angle_alpha    93.27092893866015
_cell_angle_beta     92.29477296650484
_cell_angle_gamma    89.27923456213311

_space_group_name_H-M_alt    "P 1"
_space_group_IT_number       1

loop_
  _space_group_symop_operation_xyz
  'x, y, z'

loop_
  _atom_site_type_symbol
  _atom_site_label
  _atom_site_symmetry_multiplicity
  _atom_site_fract_x
  _atom_site_fract_y
  _atom_site_fract_z
  _atom_site_occupancy
  La  La1       1.0  0.4367596209049225  0.8748821020126343  0.701091468334198  1.0000
  P   P1        1.0  0.9175252318382263  0.8699501752853394  0.378724604845047  1.0000
  P   P2        1.0  0.9287612438201904  0.3927117586135864  0.8742320537567139  1.0000
  P   P3        1.0  0.47866466641426086  0.3750610053539276  0.063607357442379  1.0000
  P   P4        1.0  0.9385998249053955  0.5635005831718445  0.149033322930336  1.0000
  P   P5        1.0  0.12127351760864258  0.8962779641151428  0.28250929713249207  1.0000
  S   S1        1.0  0.6296277046203613  0.3337450325489044  0.009611066430807114  1.0000
  Sb  Sb1       1.0  0.7346474528312683  0.3783058226108551  0.08619944006204605  1.0000
  Se  Se1       1.0  0.6080009937286377  0.45212674140930176  0.8663398623466492  1.0000
  Se  Se2       1.0  0.12772969901561737  0.8251159191131592  0.6305369138717651  1.0000
  Se  Se3       1.0  0.1312548667192459  0.3675364851951599  0.880749523639679  1.0000
  Se  Se4       1.0  0.3420364558696747  0.8806615471839905  0.15644238889217377  1.0000
  Si  Si1       1.0  0.9420621991157532  0.34560102224349976  0.3887021839618683  1.0000
  Tl  Tl1       1.0  0.4369843900203705  0.8812301754951477  0.38352033495903015  1.0000
