data_image0
_chemical_formula_structural       Pt3Sb2Se7Tl2
_chemical_formula_sum              "Pt3 Sb2 Se7 Tl2"
_cell_length_a       6.948232889578608
_cell_length_b       6.904883046494868
_cell_length_c       7.010528564453125
_cell_angle_alpha    90.93038547229261
_cell_angle_beta     89.13137497519443
_cell_angle_gamma    91.50444728574658

_space_group_name_H-M_alt    "P 1"
_space_group_IT_number       1

loop_
  _space_group_symop_operation_xyz
  'x, y, z'

loop_
  _atom_site_type_symbol
  _atom_site_label
  _atom_site_symmetry_multiplicity
  _atom_site_fract_x
  _atom_site_fract_y
  _atom_site_fract_z
  _atom_site_occupancy
  Pt  Pt1       1.0  0.08076617866754532  0.359095960855484  0.32967475056648254  1.0000
  Pt  Pt2       1.0  0.24644732475280762  0.11975789070129396  0.5734735727310181  1.0000
  Pt  Pt3       1.0  0.3585216701030731  0.6183665990829468  0.4423857033252716  1.0000
  Sb  Sb1       1.0  0.5914813280105591  0.04251391813158989  0.03534055128693581  1.0000
  Sb  Sb2       1.0  0.7082513570785522  0.3213690519332886  0.814751386642456  1.0000
  Se  Se1       1.0  0.26609355211257935  0.4372227191925049  0.31342560052871704  1.0000
  Se  Se2       1.0  0.266272634267807  0.9315699338912965  0.7984634637832642  1.0000
  Se  Se3       1.0  0.8458383679389954  0.9143684506416322  0.5457947850227356  1.0000
  Se  Se4       1.0  0.7536000609397888  0.4214727282524109  0.05743202939629555  1.0000
  Se  Se5       1.0  0.6259633302688599  0.003493153024464846  0.1427922546863556  1.0000
  Se  Se6       1.0  0.2380368411540985  0.11592787504196168  0.2963902056217193  1.0000
  Se  Se7       1.0  0.30269670486450195  0.375703901052475  0.2517431974411011  1.0000
  Tl  Tl1       1.0  0.34518930315971375  0.6767393946647644  0.061234746128320694  1.0000
  Tl  Tl2       1.0  0.9249064326286316  0.6752203106880188  0.5761612057685852  1.0000
