data_image0
_chemical_formula_structural       CaGeHO3Pb6
_chemical_formula_sum              "Ca1 Ge1 H1 O3 Pb6"
_cell_length_a       5.033797576408223
_cell_length_b       5.67482666848741
_cell_length_c       8.455513000488281
_cell_angle_alpha    91.97148443985395
_cell_angle_beta     91.17972024921376
_cell_angle_gamma    110.75939134103794

_space_group_name_H-M_alt    "P 1"
_space_group_IT_number       1

loop_
  _space_group_symop_operation_xyz
  'x, y, z'

loop_
  _atom_site_type_symbol
  _atom_site_label
  _atom_site_symmetry_multiplicity
  _atom_site_fract_x
  _atom_site_fract_y
  _atom_site_fract_z
  _atom_site_occupancy
  Ca  Ca1       1.0  0.2678432762622833  0.8092614412307739  0.7925885915756226  1.0000
  Ge  Ge1       1.0  0.7636035680770874  0.7133917808532715  0.03720242157578468  1.0000
  H   H1        1.0  0.26751938462257385  0.31044960021972656  0.23283372819423676  1.0000
  O   O1        1.0  0.7843753099441528  0.07690494507551193  0.9799518585205078  1.0000
  O   O2        1.0  0.17233341932296753  0.19592076539993286  0.09037348628044128  1.0000
  O   O3        1.0  0.7770951390266418  0.2859269678592682  0.4587896764278412  1.0000
  Pb  Pb1       1.0  0.28546300530433655  0.08832398056983948  0.3228447139263153  1.0000
  Pb  Pb2       1.0  0.7651188373565674  0.8864972591400146  0.3166440725326538  1.0000
  Pb  Pb3       1.0  0.7716391682624817  0.31093403697013855  0.02750837802886963  1.0000
  Pb  Pb4       1.0  0.2338318973779678  0.16494475305080414  0.4857797920703888  1.0000
  Pb  Pb5       1.0  0.26784011721611023  0.2799655795097351  0.6326255798339844  1.0000
  Pb  Pb6       1.0  0.7711414098739624  0.45574790239334106  0.543039858341217  1.0000
