data_image0
_chemical_formula_structural       CaHOPPb8
_chemical_formula_sum              "Ca1 H1 O1 P1 Pb8"
_cell_length_a       7.656269193219321
_cell_length_b       7.651984171165285
_cell_length_c       8.010115623474121
_cell_angle_alpha    58.265381208316505
_cell_angle_beta     64.08151249480672
_cell_angle_gamma    61.20021616041924

_space_group_name_H-M_alt    "P 1"
_space_group_IT_number       1

loop_
  _space_group_symop_operation_xyz
  'x, y, z'

loop_
  _atom_site_type_symbol
  _atom_site_label
  _atom_site_symmetry_multiplicity
  _atom_site_fract_x
  _atom_site_fract_y
  _atom_site_fract_z
  _atom_site_occupancy
  Ca  Ca1       1.0  0.45562073588371277  0.35566771030426025  0.22280961275100708  1.0000
  H   H1        1.0  0.8486911058425903  0.6608816981315613  0.5612035393714905  1.0000
  O   O1        1.0  0.6541502475738525  0.9372013807296753  0.3760533332824707  1.0000
  P   P1        1.0  0.6306236982345581  0.606805682182312  0.4649096429347992  1.0000
  Pb  Pb1       1.0  0.417384535074234  0.05398884043097496  0.9448857307434082  1.0000
  Pb  Pb2       1.0  0.6191937327384949  0.30811816453933716  0.25752878189086914  1.0000
  Pb  Pb3       1.0  0.7549030184745789  0.034808073192834854  0.8091027736663818  1.0000
  Pb  Pb4       1.0  0.8056634068489075  0.9169367551803589  0.9718248248100281  1.0000
  Pb  Pb5       1.0  0.2759413719177246  0.8460222482681274  0.16753040254116058  1.0000
  Pb  Pb6       1.0  0.18203246593475342  0.19651448726654053  0.46723508834838867  1.0000
  Pb  Pb7       1.0  0.7611395120620728  0.5455111861228943  0.7277073264122009  1.0000
  Pb  Pb8       1.0  0.29751935601234436  0.001164805144071579  0.9156352281570435  1.0000
