data_image0
_chemical_formula_structural       H2O2PPb7
_chemical_formula_sum              "H2 O2 P1 Pb7"
_cell_length_a       5.086332925162246
_cell_length_b       5.032556267189892
_cell_length_c       10.08686637878418
_cell_angle_alpha    86.74452098457586
_cell_angle_beta     74.77562456588318
_cell_angle_gamma    59.462003826546734

_space_group_name_H-M_alt    "P 1"
_space_group_IT_number       1

loop_
  _space_group_symop_operation_xyz
  'x, y, z'

loop_
  _atom_site_type_symbol
  _atom_site_label
  _atom_site_symmetry_multiplicity
  _atom_site_fract_x
  _atom_site_fract_y
  _atom_site_fract_z
  _atom_site_occupancy
  H   H1        1.0  0.8844469785690308  0.714752197265625  0.11961590498685837  1.0000
  H   H2        1.0  0.1283355951309204  0.09390381723642349  0.04774516448378563  1.0000
  O   O1        1.0  0.6386243104934692  0.855935275554657  0.46797677874565125  1.0000
  O   O2        1.0  0.11777359992265701  0.7066142559051514  0.5234748721122742  1.0000
  P   P1        1.0  0.621502697467804  0.7364149689674377  0.8207151889801025  1.0000
  Pb  Pb1       1.0  0.12453301250934601  0.4899527430534363  0.6432820558547974  1.0000
  Pb  Pb2       1.0  0.6262332797050476  0.21280330419540405  0.9509714841842651  1.0000
  Pb  Pb3       1.0  0.11727198213338852  0.3323254883289337  0.8030279278755188  1.0000
  Pb  Pb4       1.0  0.6239068508148193  0.19636282324790955  0.24592356383800507  1.0000
  Pb  Pb5       1.0  0.6226490139961243  0.8946471810340881  0.9150015711784363  1.0000
  Pb  Pb6       1.0  0.12234421074390411  0.5933535099029541  0.80618816614151  1.0000
  Pb  Pb7       1.0  0.623746931552887  0.6839448809623718  0.7398232221603394  1.0000
