data_image0
_chemical_formula_structural       H2IO3PPb4Zr
_chemical_formula_sum              "H2 I1 O3 P1 Pb4 Zr1"
_cell_length_a       6.896853742363284
_cell_length_b       7.3766091231765465
_cell_length_c       7.414175987243652
_cell_angle_alpha    59.06469964760493
_cell_angle_beta     65.7180583241737
_cell_angle_gamma    62.70138234170546

_space_group_name_H-M_alt    "P 1"
_space_group_IT_number       1

loop_
  _space_group_symop_operation_xyz
  'x, y, z'

loop_
  _atom_site_type_symbol
  _atom_site_label
  _atom_site_symmetry_multiplicity
  _atom_site_fract_x
  _atom_site_fract_y
  _atom_site_fract_z
  _atom_site_occupancy
  H   H1        1.0  0.03825768455862999  0.18884003162384033  0.505596935749054  1.0000
  H   H2        1.0  0.6299830675125122  0.17388464510440826  0.16603806614875793  1.0000
  I   I1        1.0  0.3152506947517395  0.22968225181102753  0.14205986261367798  1.0000
  O   O1        1.0  0.6015457510948181  0.44621357321739197  0.469943255186081  1.0000
  O   O2        1.0  0.2877492904663086  0.05205380544066429  0.5118456482887268  1.0000
  O   O3        1.0  0.6518185138702393  0.17385049164295197  0.40919867157936096  1.0000
  P   P1        1.0  0.2682076692581177  0.7463532090187073  0.957417666912079  1.0000
  Pb  Pb1       1.0  0.3150055408477783  0.05998476222157478  0.9536470174789431  1.0000
  Pb  Pb2       1.0  0.8333067893981935  0.5882257223129272  0.0965842604637146  1.0000
  Pb  Pb3       1.0  0.8324602842330934  0.5366535782814026  0.24054089188575747  1.0000
  Pb  Pb4       1.0  0.2806952893733978  0.00396442087367177  0.976373076438904  1.0000
  Zr  Zr1       1.0  0.7349815368652345  0.03726712241768837  0.8954333662986756  1.0000
