data_image0
_chemical_formula_structural       H4O6Pb2
_chemical_formula_sum              "H4 O6 Pb2"
_cell_length_a       4.204466218139531
_cell_length_b       5.2832095299445
_cell_length_c       6.147080898284912
_cell_angle_alpha    90.7818883105731
_cell_angle_beta     89.27149050393001
_cell_angle_gamma    88.71011704447558

_space_group_name_H-M_alt    "P 1"
_space_group_IT_number       1

loop_
  _space_group_symop_operation_xyz
  'x, y, z'

loop_
  _atom_site_type_symbol
  _atom_site_label
  _atom_site_symmetry_multiplicity
  _atom_site_fract_x
  _atom_site_fract_y
  _atom_site_fract_z
  _atom_site_occupancy
  H   H1        1.0  0.7792276740074158  0.18040333688259125  0.19084975123405454  1.0000
  H   H2        1.0  0.2826949954032898  0.09089164435863495  0.3657120466232299  1.0000
  H   H3        1.0  0.2835504710674286  0.26486876606941223  0.8033900260925292  1.0000
  H   H4        1.0  0.27924561500549316  0.3408512771129608  0.5528954267501831  1.0000
  O   O1        1.0  0.7687646150588989  0.28945061564445496  0.6797839999198914  1.0000
  O   O2        1.0  0.776987612247467  0.22525902092456815  0.16918039321899414  1.0000
  O   O3        1.0  0.2742665112018585  0.7202659845352173  0.0011106256861239672  1.0000
  O   O4        1.0  0.7711127400398254  0.9294214248657225  0.43203011155128473  1.0000
  O   O5        1.0  0.7893316149711609  0.52774578332901  0.5140165090560913  1.0000
  O   O6        1.0  0.29318225383758545  0.47880527377128596  0.2666832208633423  1.0000
  Pb  Pb1       1.0  0.27924251556396484  0.10130934417247772  0.07054603844881058  1.0000
  Pb  Pb2       1.0  0.27918559312820435  0.7354738116264343  0.22309125959873197  1.0000
