data_image0
_chemical_formula_structural       H2InLiO3Pb5
_chemical_formula_sum              "H2 In1 Li1 O3 Pb5"
_cell_length_a       5.69598187243036
_cell_length_b       6.067641154769824
_cell_length_c       8.636242866516113
_cell_angle_alpha    89.87929357467706
_cell_angle_beta     89.75774375749313
_cell_angle_gamma    115.27990006062561

_space_group_name_H-M_alt    "P 1"
_space_group_IT_number       1

loop_
  _space_group_symop_operation_xyz
  'x, y, z'

loop_
  _atom_site_type_symbol
  _atom_site_label
  _atom_site_symmetry_multiplicity
  _atom_site_fract_x
  _atom_site_fract_y
  _atom_site_fract_z
  _atom_site_occupancy
  H   H1        1.0  0.1435636281967163  0.33754125237464905  0.16304238140583038  1.0000
  H   H2        1.0  0.02269880101084709  0.4205566346645355  0.531099259853363  1.0000
  In  In1       1.0  0.4849766492843628  0.08730410784482956  0.4609735608100891  1.0000
  Li  Li1       1.0  0.5250589847564697  0.4905358850955963  0.5371726751327515  1.0000
  O   O1        1.0  0.307253897190094  0.26166027784347534  0.8917454481124878  1.0000
  O   O2        1.0  0.05550220608711243  0.9160765409469604  0.6412338614463806  1.0000
  O   O3        1.0  0.0362001471221447  0.11414077877998352  0.7352957725524902  1.0000
  Pb  Pb1       1.0  0.4990267753601074  0.8560594916343689  0.49055057764053345  1.0000
  Pb  Pb2       1.0  0.009196404367685318  0.5205895304679871  0.5665451288223267  1.0000
  Pb  Pb3       1.0  0.5474625825881958  0.8139283657073975  0.7118228077888489  1.0000
  Pb  Pb4       1.0  0.4753226935863495  0.8822486996650696  0.7308415770530701  1.0000
  Pb  Pb5       1.0  0.8172644972801208  0.5952777862548828  0.1495632827281952  1.0000
