data_image0
_chemical_formula_structural       F2K3Ni2SiZr
_chemical_formula_sum              "F2 K3 Ni2 Si1 Zr1"
_cell_length_a       5.1263086462936425
_cell_length_b       6.566175185403365
_cell_length_c       7.227856636047363
_cell_angle_alpha    115.72137889954743
_cell_angle_beta     89.25638038907957
_cell_angle_gamma    108.06531038151681

_space_group_name_H-M_alt    "P 1"
_space_group_IT_number       1

loop_
  _space_group_symop_operation_xyz
  'x, y, z'

loop_
  _atom_site_type_symbol
  _atom_site_label
  _atom_site_symmetry_multiplicity
  _atom_site_fract_x
  _atom_site_fract_y
  _atom_site_fract_z
  _atom_site_occupancy
  F   F1        1.0  0.8069869875907898  0.1486843079328537  0.4168047606945038  1.0000
  F   F2        1.0  0.02587367407977581  0.9964020848274231  0.9036469459533691  1.0000
  K   K1        1.0  0.5449484586715698  0.9281045794487  0.648027241230011  1.0000
  K   K2        1.0  0.0413680225610733  0.6625559329986572  0.9005672931671143  1.0000
  K   K3        1.0  0.5373296141624451  0.4624141454696655  0.6588327884674072  1.0000
  Ni  Ni1       1.0  0.564411461353302  0.28288963437080383  0.15189878642559052  1.0000
  Ni  Ni2       1.0  0.05424348637461662  0.23416654765605927  0.1747065633535385  1.0000
  Si  Si1       1.0  0.30805376172065735  0.1469631791114807  0.9338279962539673  1.0000
  Zr  Zr1       1.0  0.045829519629478455  0.7230626940727234  0.6633697152137756  1.0000
