data_image0
_chemical_formula_structural       FK5NiSiV
_chemical_formula_sum              "F1 K5 Ni1 Si1 V1"
_cell_length_a       5.23193582582585
_cell_length_b       6.773485923800036
_cell_length_c       7.295697212219238
_cell_angle_alpha    115.69444454735643
_cell_angle_beta     88.42872245692166
_cell_angle_gamma    106.31236221280739

_space_group_name_H-M_alt    "P 1"
_space_group_IT_number       1

loop_
  _space_group_symop_operation_xyz
  'x, y, z'

loop_
  _atom_site_type_symbol
  _atom_site_label
  _atom_site_symmetry_multiplicity
  _atom_site_fract_x
  _atom_site_fract_y
  _atom_site_fract_z
  _atom_site_occupancy
  F   F1        1.0  0.7707324028015137  0.7813310027122498  0.39576733112335205  1.0000
  K   K1        1.0  0.4963781535625458  0.7809945940971375  0.8901416659355164  1.0000
  K   K2        1.0  0.9842910766601562  0.2839421033859253  0.7855207920074463  1.0000
  K   K3        1.0  0.011313984170556068  0.7837607860565186  0.43447408080101013  1.0000
  K   K4        1.0  0.9979154467582703  0.2822234630584717  0.8720424175262451  1.0000
  K   K5        1.0  0.49054384231567383  0.9421771764755249  0.13555607199668884  1.0000
  Ni  Ni1       1.0  0.5091508030891418  0.780461311340332  0.6159036755561829  1.0000
  Si  Si1       1.0  0.9697966575622559  0.28600698709487915  0.14478756487369537  1.0000
  V   V1        1.0  0.49966439604759216  0.27972540259361267  0.374625563621521  1.0000
