data_image0
_chemical_formula_structural       Cr6F2Te
_chemical_formula_sum              "Cr6 F2 Te1"
_cell_length_a       5.569011578346862
_cell_length_b       5.50183731079582
_cell_length_c       6.75407075881958
_cell_angle_alpha    90.69258005832191
_cell_angle_beta     89.64059793563685
_cell_angle_gamma    123.95109918201275

_space_group_name_H-M_alt    "P 1"
_space_group_IT_number       1

loop_
  _space_group_symop_operation_xyz
  'x, y, z'

loop_
  _atom_site_type_symbol
  _atom_site_label
  _atom_site_symmetry_multiplicity
  _atom_site_fract_x
  _atom_site_fract_y
  _atom_site_fract_z
  _atom_site_occupancy
  Cr  Cr1       1.0  0.3226040005683899  0.06259999424219131  0.3417171835899353  1.0000
  Cr  Cr2       1.0  0.9749814867973329  0.8649860620498657  0.9154452085494996  1.0000
  Cr  Cr3       1.0  0.9808125495910646  0.527692437171936  0.912663996219635  1.0000
  Cr  Cr4       1.0  0.7025109529495239  0.07475815713405609  0.5853563547134399  1.0000
  Cr  Cr5       1.0  0.9874974489212037  0.3704128563404083  0.2247810959815979  1.0000
  Cr  Cr6       1.0  0.6600619554519653  0.7092045545578003  0.2810285687446594  1.0000
  F   F1        1.0  0.3272242546081543  0.4164940416812897  0.951166570186615  1.0000
  F   F2        1.0  0.01038697175681591  0.856931209564209  0.08680641651153564  1.0000
  Te  Te1       1.0  0.6765427589416504  0.3266240954399109  0.16767476499080658  1.0000
