data_image0
_chemical_formula_structural       Cr5F3K
_chemical_formula_sum              "Cr5 F3 K1"
_cell_length_a       5.3358338202099995
_cell_length_b       5.75061506375711
_cell_length_c       7.719384670257568
_cell_angle_alpha    91.3372761122017
_cell_angle_beta     90.01825109916167
_cell_angle_gamma    120.75901377472262

_space_group_name_H-M_alt    "P 1"
_space_group_IT_number       1

loop_
  _space_group_symop_operation_xyz
  'x, y, z'

loop_
  _atom_site_type_symbol
  _atom_site_label
  _atom_site_symmetry_multiplicity
  _atom_site_fract_x
  _atom_site_fract_y
  _atom_site_fract_z
  _atom_site_occupancy
  Cr  Cr1       1.0  0.29068291187286377  0.40082839131355286  0.973227322101593  1.0000
  Cr  Cr2       1.0  0.8793822526931763  0.6988030672073364  0.9733009934425354  1.0000
  Cr  Cr3       1.0  0.6327264308929443  0.9995057582855225  0.6717075109481812  1.0000
  Cr  Cr4       1.0  0.6404905915260315  0.007908114232122898  0.7982158064842224  1.0000
  Cr  Cr5       1.0  0.9708934426307678  0.7889494895935059  0.4785967469215393  1.0000
  F   F1        1.0  0.6424301266670227  0.5191871523857117  0.7417973279953003  1.0000
  F   F2        1.0  0.3547418713569641  0.18501316010951996  0.4764287769794464  1.0000
  F   F3        1.0  0.07026995718479156  0.5088241696357727  0.40334251523017883  1.0000
  K   K1        1.0  0.2900829613208771  0.17588645219802856  0.865863561630249  1.0000
