data_image0
_chemical_formula_structural       F2K6Ni
_chemical_formula_sum              "F2 K6 Ni1"
_cell_length_a       5.772789758185923
_cell_length_b       6.7783971204129365
_cell_length_c       7.7000579833984375
_cell_angle_alpha    114.98687395556998
_cell_angle_beta     88.41524667665843
_cell_angle_gamma    104.6821180154186

_space_group_name_H-M_alt    "P 1"
_space_group_IT_number       1

loop_
  _space_group_symop_operation_xyz
  'x, y, z'

loop_
  _atom_site_type_symbol
  _atom_site_label
  _atom_site_symmetry_multiplicity
  _atom_site_fract_x
  _atom_site_fract_y
  _atom_site_fract_z
  _atom_site_occupancy
  F   F1        1.0  0.27701959013938904  0.4272862374782563  0.8975049853324891  1.0000
  F   F2        1.0  0.7755675315856934  0.4380123913288117  0.590675175189972  1.0000
  K   K1        1.0  0.2803972363471985  0.42740374803543096  0.41232451796531683  1.0000
  K   K2        1.0  0.7746240496635437  0.4239650666713715  0.21128958463668826  1.0000
  K   K3        1.0  0.7726680636405945  0.9150756001472474  0.3868722915649415  1.0000
  K   K4        1.0  0.27392655611038214  0.8439301848411561  0.9181913137435914  1.0000
  K   K5        1.0  0.7682422995567322  0.10130624473094942  0.8885775804519654  1.0000
  K   K6        1.0  0.27402004599571234  0.9143543839454652  0.4088121056556702  1.0000
  Ni  Ni1       1.0  0.7871072888374329  0.23026080429553988  0.6903891563415528  1.0000
