data_image0
_chemical_formula_structural       FLuPb2PrRu2Zn
_chemical_formula_sum              "F1 Lu1 Pb2 Pr1 Ru2 Zn1"
_cell_length_a       5.038374972907495
_cell_length_b       3.9082309281326633
_cell_length_c       6.077717304229736
_cell_angle_alpha    57.74788322695908
_cell_angle_beta     50.19166773922931
_cell_angle_gamma    11.092674304544934

_space_group_name_H-M_alt    "P 1"
_space_group_IT_number       1

loop_
  _space_group_symop_operation_xyz
  'x, y, z'

loop_
  _atom_site_type_symbol
  _atom_site_label
  _atom_site_symmetry_multiplicity
  _atom_site_fract_x
  _atom_site_fract_y
  _atom_site_fract_z
  _atom_site_occupancy
  F   F1        1.0  0.397018074989318  0.3579210937023173  0.8537670969963074  1.0000
  Lu  Lu1       1.0  0.1877385973930356  0.34752708673477206  0.7309027314186096  1.0000
  Pb  Pb1       1.0  0.7109424471855165  0.6715860962867736  0.09395213425159446  1.0000
  Pb  Pb2       1.0  0.7049000263214112  0.658625304698944  0.15824536979198445  1.0000
  Pr  Pr1       1.0  0.21039874851703724  0.6476064324378957  0.594214379787445  1.0000
  Ru  Ru1       1.0  0.9438259005546569  0.5616518259048463  0.7136088609695435  1.0000
  Ru  Ru2       1.0  0.6011294126510618  0.9572368860244753  0.5447911620140076  1.0000
  Zn  Zn1       1.0  0.20485770702362038  0.002537138061598221  0.4000226557254791  1.0000
