data_image0
_chemical_formula_structural       FNpP2Pb3Pt
_chemical_formula_sum              "F1 Np1 P2 Pb3 Pt1"
_cell_length_a       4.577203758247534
_cell_length_b       3.9277203886913186
_cell_length_c       5.834950923919678
_cell_angle_alpha    46.886802447592586
_cell_angle_beta     59.96641181736585
_cell_angle_gamma    47.60276361624392

_space_group_name_H-M_alt    "P 1"
_space_group_IT_number       1

loop_
  _space_group_symop_operation_xyz
  'x, y, z'

loop_
  _atom_site_type_symbol
  _atom_site_label
  _atom_site_symmetry_multiplicity
  _atom_site_fract_x
  _atom_site_fract_y
  _atom_site_fract_z
  _atom_site_occupancy
  F   F1        1.0  0.23574490845203402  0.4856603145599365  0.3714155852794647  1.0000
  Np  Np1       1.0  0.19750359654426575  0.09821269661188126  0.06965295225381851  1.0000
  P   P1        1.0  0.7056795358657837  0.08470246940851212  0.15096125006675717  1.0000
  P   P2        1.0  0.777881920337677  0.045418862253427505  0.1345335394144058  1.0000
  Pb  Pb1       1.0  0.4061677157878876  0.09261132776737213  0.07536914944648743  1.0000
  Pb  Pb2       1.0  0.706712007522583  0.8754199743270874  0.7552499175071716  1.0000
  Pb  Pb3       1.0  0.8800615668296814  0.5702895522117615  0.837438702583313  1.0000
  Pt  Pt1       1.0  0.16748088598251343  0.7521865367889404  0.3094630539417267  1.0000
