data_image0
_chemical_formula_structural       PbRu2W5
_chemical_formula_sum              "Pb1 Ru2 W5"
_cell_length_a       3.8449157613798897
_cell_length_b       4.3934679724481684
_cell_length_c       5.353736877441406
_cell_angle_alpha    89.24509853817423
_cell_angle_beta     88.143760218412
_cell_angle_gamma    86.86206784758885

_space_group_name_H-M_alt    "P 1"
_space_group_IT_number       1

loop_
  _space_group_symop_operation_xyz
  'x, y, z'

loop_
  _atom_site_type_symbol
  _atom_site_label
  _atom_site_symmetry_multiplicity
  _atom_site_fract_x
  _atom_site_fract_y
  _atom_site_fract_z
  _atom_site_occupancy
  Pb  Pb1       1.0  0.31335774064064026  0.621934711933136  0.6610373854637146  1.0000
  Ru  Ru1       1.0  0.813717246055603  0.5262672901153564  0.8769488334655762  1.0000
  Ru  Ru2       1.0  0.819865345954895  0.5032126903533936  0.03943660482764244  1.0000
  W   W1        1.0  0.5647503733634949  0.6513869762420654  0.7982605695724487  1.0000
  W   W2        1.0  0.3077821135520935  0.04422762989997864  0.3582245111465454  1.0000
  W   W3        1.0  0.31325608491897583  0.1883121132850647  0.9485018253326416  1.0000
  W   W4        1.0  0.8159026503562927  0.3048502802848816  0.6121842265129089  1.0000
  W   W5        1.0  0.8164630532264711  0.24219377338886258  0.5727291703224182  1.0000
