data_image0
_chemical_formula_structural       AsHLuPbPr2RuZn
_chemical_formula_sum              "As1 H1 Lu1 Pb1 Pr2 Ru1 Zn1"
_cell_length_a       4.6414855384434865
_cell_length_b       5.196915599849959
_cell_length_c       6.707743167877197
_cell_angle_alpha    91.45709755636643
_cell_angle_beta     89.14740441990581
_cell_angle_gamma    107.82927782307242

_space_group_name_H-M_alt    "P 1"
_space_group_IT_number       1

loop_
  _space_group_symop_operation_xyz
  'x, y, z'

loop_
  _atom_site_type_symbol
  _atom_site_label
  _atom_site_symmetry_multiplicity
  _atom_site_fract_x
  _atom_site_fract_y
  _atom_site_fract_z
  _atom_site_occupancy
  As  As1       1.0  0.8119831681251526  0.4051301181316376  0.07754503190517426  1.0000
  H   H1        1.0  0.30313166975975037  0.2332584708929062  0.8891790509223938  1.0000
  Lu  Lu1       1.0  0.3144952952861786  0.9962973594665527  0.9615259170532227  1.0000
  Pb  Pb1       1.0  0.3124403953552246  0.5466190576553345  0.9418172240257263  1.0000
  Pr  Pr1       1.0  0.8136014342308044  0.17343178391456604  0.030717475339770317  1.0000
  Pr  Pr2       1.0  0.8124378323554993  0.6029741764068604  0.9627268314361572  1.0000
  Ru  Ru1       1.0  0.8015673756599426  0.5604634881019592  0.5178495645523071  1.0000
  Zn  Zn1       1.0  0.31150275468826294  0.21885798871517181  0.2163253128528595  1.0000
