data_image0
_chemical_formula_structural       FLiO5PbSiSr3V
_chemical_formula_sum              "F1 Li1 O5 Pb1 Si1 Sr3 V1"
_cell_length_a       6.2888324834795375
_cell_length_b       6.625115344140083
_cell_length_c       6.932385444641113
_cell_angle_alpha    57.54047404549969
_cell_angle_beta     61.17039742288302
_cell_angle_gamma    59.52507935469707

_space_group_name_H-M_alt    "P 1"
_space_group_IT_number       1

loop_
  _space_group_symop_operation_xyz
  'x, y, z'

loop_
  _atom_site_type_symbol
  _atom_site_label
  _atom_site_symmetry_multiplicity
  _atom_site_fract_x
  _atom_site_fract_y
  _atom_site_fract_z
  _atom_site_occupancy
  F   F1        1.0  0.33833372592926025  0.6595990657806396  0.8592105507850647  1.0000
  Li  Li1       1.0  0.8150138258934021  0.4823372364044189  0.7988281846046448  1.0000
  O   O1        1.0  0.9596757292747498  0.5508614182472229  0.7994710803031921  1.0000
  O   O2        1.0  0.4953446090221405  0.8803223371505736  0.16749843955039978  1.0000
  O   O3        1.0  0.5050514936447144  0.09245014935731888  0.12274011969566345  1.0000
  O   O4        1.0  0.9546730518341064  0.14878830313682556  0.7480684518814087  1.0000
  O   O5        1.0  0.24784518778324133  0.9736656546592711  0.07149215787649155  1.0000
  Pb  Pb1       1.0  0.9869147539138794  0.6260181665420532  0.4203031063079834  1.0000
  Si  Si1       1.0  0.3178516626358032  0.20415082573890683  0.7027515769004822  1.0000
  Sr  Sr1       1.0  0.9575269222259521  0.17716056108474731  0.48233211040496826  1.0000
  Sr  Sr2       1.0  0.48456162214279175  0.185736745595932  0.24044424295425415  1.0000
  Sr  Sr3       1.0  0.4657634496688843  0.8005842566490172  0.5263308882713318  1.0000
  V   V1        1.0  0.502059817314148  0.7693685293197632  0.1861356943845749  1.0000
