data_image0
_chemical_formula_structural       GeO5Si2Sr3V2
_chemical_formula_sum              "Ge1 O5 Si2 Sr3 V2"
_cell_length_a       5.062564702696803
_cell_length_b       4.385860180664377
_cell_length_c       5.579186916351318
_cell_angle_alpha    114.95681588637378
_cell_angle_beta     113.67349845961738
_cell_angle_gamma    119.2241789581671

_space_group_name_H-M_alt    "P 1"
_space_group_IT_number       1

loop_
  _space_group_symop_operation_xyz
  'x, y, z'

loop_
  _atom_site_type_symbol
  _atom_site_label
  _atom_site_symmetry_multiplicity
  _atom_site_fract_x
  _atom_site_fract_y
  _atom_site_fract_z
  _atom_site_occupancy
  Ge  Ge1       1.0  0.26933613419532776  0.505673885345459  0.45257747173309326  1.0000
  O   O1        1.0  0.895000159740448  0.026514973491430328  0.6473771929740906  1.0000
  O   O2        1.0  0.37457388639450084  0.799916446208954  0.36912727355957037  1.0000
  O   O3        1.0  0.6391378045082093  0.9098107218742372  0.6816766262054443  1.0000
  O   O4        1.0  0.03978582471609134  0.8328140377998354  0.5377607941627504  1.0000
  O   O5        1.0  0.23983895778656006  0.3385481536388397  0.054569952189922326  1.0000
  Si  Si1       1.0  0.4251895546913147  0.044564250856637955  0.2655625641345978  1.0000
  Si  Si2       1.0  0.6150296926498415  0.9152572154998783  0.7712684273719789  1.0000
  Sr  Sr1       1.0  0.16364645957946777  0.4110759496688843  0.6693865656852722  1.0000
  Sr  Sr2       1.0  0.5229235291481019  0.02514008991420277  0.4747051298618317  1.0000
  Sr  Sr3       1.0  0.10828370600938797  0.5389528870582581  0.13989710807800293  1.0000
  V   V1        1.0  0.13872508704662323  0.3551124632358551  0.0606120862066746  1.0000
  V   V2        1.0  0.11825196444988251  0.6187018156051636  0.18357411026954654  1.0000
