data_image0
_chemical_formula_structural       O5P3PbSi2SrV
_chemical_formula_sum              "O5 P3 Pb1 Si2 Sr1 V1"
_cell_length_a       6.182929029238613
_cell_length_b       6.093931743522392
_cell_length_c       6.3842291831970215
_cell_angle_alpha    57.471874551279974
_cell_angle_beta     65.13237253504478
_cell_angle_gamma    63.762852172199224

_space_group_name_H-M_alt    "P 1"
_space_group_IT_number       1

loop_
  _space_group_symop_operation_xyz
  'x, y, z'

loop_
  _atom_site_type_symbol
  _atom_site_label
  _atom_site_symmetry_multiplicity
  _atom_site_fract_x
  _atom_site_fract_y
  _atom_site_fract_z
  _atom_site_occupancy
  O   O1        1.0  0.34525856375694275  0.5080762505531311  0.39684614539146423  1.0000
  O   O2        1.0  0.6514551639556885  0.36472558975219727  0.06432115286588669  1.0000
  O   O3        1.0  0.31594613194465637  0.36721789836883545  0.5056073665618896  1.0000
  O   O4        1.0  0.4331724941730499  0.04723956808447838  0.10421343892812729  1.0000
  O   O5        1.0  0.8559362292289734  0.6567705273628235  0.25612673163414  1.0000
  P   P1        1.0  0.539955198764801  0.29664045572280884  0.34389474987983704  1.0000
  P   P2        1.0  0.46176740527153015  0.12257956713438034  0.25973784923553467  1.0000
  P   P3        1.0  0.15877600014209747  0.9564076066017151  0.7520638108253479  1.0000
  Pb  Pb1       1.0  0.5457808971405029  0.795534074306488  0.0780549943447113  1.0000
  Si  Si1       1.0  0.7207702994346619  0.6144430637359619  0.2608012855052948  1.0000
  Si  Si2       1.0  0.11326833814382553  0.35887107253074646  0.24149711430072784  1.0000
  Sr  Sr1       1.0  0.909966766834259  0.9341686367988586  0.02179408073425293  1.0000
  V   V1        1.0  0.33010509610176086  0.019756775349378586  0.19487066566944122  1.0000
