data_image0
_chemical_formula_structural       O3Si2Sr2V6
_chemical_formula_sum              "O3 Si2 Sr2 V6"
_cell_length_a       5.396304557870386
_cell_length_b       5.742742369340368
_cell_length_c       5.991041660308838
_cell_angle_alpha    92.92533988737551
_cell_angle_beta     95.55044084247108
_cell_angle_gamma    90.8696608578125

_space_group_name_H-M_alt    "P 1"
_space_group_IT_number       1

loop_
  _space_group_symop_operation_xyz
  'x, y, z'

loop_
  _atom_site_type_symbol
  _atom_site_label
  _atom_site_symmetry_multiplicity
  _atom_site_fract_x
  _atom_site_fract_y
  _atom_site_fract_z
  _atom_site_occupancy
  O   O1        1.0  0.7798134684562683  0.3692187964916229  0.16963402926921844  1.0000
  O   O2        1.0  0.27393031120300293  0.3890130817890167  0.031676631420850754  1.0000
  O   O3        1.0  0.34651270508766174  0.8364861011505127  0.10280729830265045  1.0000
  Si  Si1       1.0  0.2900395393371582  0.3428543210029602  0.9544660449028015  1.0000
  Si  Si2       1.0  0.5032050609588623  0.2718006372451782  0.8782341480255127  1.0000
  Sr  Sr1       1.0  0.559878945350647  0.3485977053642273  0.9979469180107117  1.0000
  Sr  Sr2       1.0  0.007563282735645771  0.3531608283519745  0.850568413734436  1.0000
  V   V1        1.0  0.24739134311676025  0.20643620193004608  0.286533921957016  1.0000
  V   V2        1.0  0.2441038191318512  0.7992070317268372  0.22346371412277222  1.0000
  V   V3        1.0  0.7518208622932434  0.4472018778324127  0.8363527655601501  1.0000
  V   V4        1.0  0.7531200051307678  0.5351219177246094  0.3132108449935913  1.0000
  V   V5        1.0  0.7659193277359009  0.5309166312217712  0.08524584025144577  1.0000
  V   V6        1.0  0.7441391944885254  0.7758192420005798  0.24139972031116486  1.0000
