data_image0
_chemical_formula_structural       NaOSi3Sr5V3
_chemical_formula_sum              "Na1 O1 Si3 Sr5 V3"
_cell_length_a       5.448728512930184
_cell_length_b       5.702450122445496
_cell_length_c       6.0111565589904785
_cell_angle_alpha    91.79005715975768
_cell_angle_beta     96.17460166700347
_cell_angle_gamma    91.81723073295677

_space_group_name_H-M_alt    "P 1"
_space_group_IT_number       1

loop_
  _space_group_symop_operation_xyz
  'x, y, z'

loop_
  _atom_site_type_symbol
  _atom_site_label
  _atom_site_symmetry_multiplicity
  _atom_site_fract_x
  _atom_site_fract_y
  _atom_site_fract_z
  _atom_site_occupancy
  Na  Na1       1.0  0.9145587682723999  0.7002725005149841  0.9339057803153993  1.0000
  O   O1        1.0  0.39575129747390747  0.1790320724248886  0.7231315970420837  1.0000
  Si  Si1       1.0  0.6639795303344727  0.8392707705497741  0.5205197930335999  1.0000
  Si  Si2       1.0  0.11938615143299103  0.6066603660583496  0.09070973098278046  1.0000
  Si  Si3       1.0  0.40502676367759705  0.07437406480312347  0.5591984987258911  1.0000
  Sr  Sr1       1.0  0.406827449798584  0.1152651011943817  0.3830653429031372  1.0000
  Sr  Sr2       1.0  0.40745458006858826  0.11485579609870909  0.4230307340621949  1.0000
  Sr  Sr3       1.0  0.9092649221420288  0.5802685022354126  0.9787698984146119  1.0000
  Sr  Sr4       1.0  0.9117048382759094  0.1870049089193344  0.8868955373764039  1.0000
  Sr  Sr5       1.0  0.39617642760276794  0.8291684985160827  0.7882542610168457  1.0000
  V   V1        1.0  0.65143221616745  0.1744871586561203  0.1707887500524521  1.0000
  V   V2        1.0  0.41073453426361084  0.7176130414009094  0.6944385170936584  1.0000
  V   V3        1.0  0.4104423522949219  0.7781988382339478  0.11635173857212068  1.0000
