data_image0
_chemical_formula_structural       O7Si2Sr2TiV
_chemical_formula_sum              "O7 Si2 Sr2 Ti1 V1"
_cell_length_a       4.773697740604332
_cell_length_b       5.84814151663593
_cell_length_c       7.454898834228516
_cell_angle_alpha    71.45815583382917
_cell_angle_beta     74.5930239514938
_cell_angle_gamma    72.41620798463951

_space_group_name_H-M_alt    "P 1"
_space_group_IT_number       1

loop_
  _space_group_symop_operation_xyz
  'x, y, z'

loop_
  _atom_site_type_symbol
  _atom_site_label
  _atom_site_symmetry_multiplicity
  _atom_site_fract_x
  _atom_site_fract_y
  _atom_site_fract_z
  _atom_site_occupancy
  O   O1        1.0  0.020362479612231255  0.9118654131889343  0.8603125214576722  1.0000
  O   O2        1.0  0.49334558844566345  0.9031428098678589  0.5698633193969727  1.0000
  O   O3        1.0  0.0735393762588501  0.15936177968978882  0.45362535119056707  1.0000
  O   O4        1.0  0.010903877206146717  0.6346479058265686  0.7888383865356446  1.0000
  O   O5        1.0  0.731311559677124  0.2525075674057007  0.976887881755829  1.0000
  O   O6        1.0  0.047569505870342255  0.17353752255439758  0.5563440918922424  1.0000
  O   O7        1.0  0.48535028100013733  0.25963664054870605  0.08758560568094254  1.0000
  Si  Si1       1.0  0.9788885712623596  0.6050439476966858  0.6393529176712036  1.0000
  Si  Si2       1.0  0.6023290753364563  0.19539839029312134  0.5721356868743896  1.0000
  Sr  Sr1       1.0  0.5896236300468445  0.6943831443786621  0.3531363606452942  1.0000
  Sr  Sr2       1.0  0.22719044983386993  0.83515864610672  0.5817239284515381  1.0000
  Ti  Ti1       1.0  0.4955098032951355  0.6324520111083984  0.5614668726921082  1.0000
  V   V1        1.0  0.10876905173063278  0.0004959577927365899  0.923474669456482  1.0000
