data_image0
_chemical_formula_structural       B3BrErGe2Te
_chemical_formula_sum              "B3 Br1 Er1 Ge2 Te1"
_cell_length_a       5.641052956089894
_cell_length_b       5.624486281206859
_cell_length_c       5.595958232879639
_cell_angle_alpha    95.37361209951113
_cell_angle_beta     95.57562444588588
_cell_angle_gamma    94.5038684946489

_space_group_name_H-M_alt    "P 1"
_space_group_IT_number       1

loop_
  _space_group_symop_operation_xyz
  'x, y, z'

loop_
  _atom_site_type_symbol
  _atom_site_label
  _atom_site_symmetry_multiplicity
  _atom_site_fract_x
  _atom_site_fract_y
  _atom_site_fract_z
  _atom_site_occupancy
  B   B1        1.0  0.5725353360176086  0.12225363403558731  0.857729971408844  1.0000
  B   B2        1.0  0.798469603061676  0.34219685196876526  0.9038858413696289  1.0000
  B   B3        1.0  0.08307865262031555  0.48349878191947937  0.9513764977455139  1.0000
  Br  Br1       1.0  0.9476943016052246  0.8331452012062073  0.6503904461860657  1.0000
  Er  Er1       1.0  0.5201756358146667  0.34604528546333313  0.2830897271633148  1.0000
  Ge  Ge1       1.0  0.014489890076220036  0.3162159025669098  0.23797917366027832  1.0000
  Ge  Ge2       1.0  0.41160717606544495  0.3966694474220276  0.7743985056877136  1.0000
  Te  Te1       1.0  0.44347891211509705  0.8277897834777832  0.15696977078914642  1.0000
