data_image0
_chemical_formula_structural       BBiGeLaNRhSb2
_chemical_formula_sum              "B1 Bi1 Ge1 La1 N1 Rh1 Sb2"
_cell_length_a       5.651497361739644
_cell_length_b       5.618614942209851
_cell_length_c       5.583259582519531
_cell_angle_alpha    95.75765743973257
_cell_angle_beta     95.24491460350323
_cell_angle_gamma    95.26557176862089

_space_group_name_H-M_alt    "P 1"
_space_group_IT_number       1

loop_
  _space_group_symop_operation_xyz
  'x, y, z'

loop_
  _atom_site_type_symbol
  _atom_site_label
  _atom_site_symmetry_multiplicity
  _atom_site_fract_x
  _atom_site_fract_y
  _atom_site_fract_z
  _atom_site_occupancy
  B   B1        1.0  0.3456512689590454  0.5380323529243469  0.7685053944587708  1.0000
  Bi  Bi1       1.0  0.11452753096818924  0.1703690141439438  0.5979136228561401  1.0000
  Ge  Ge1       1.0  0.3849470615386963  0.5803475975990295  0.4169411063194275  1.0000
  La  La1       1.0  0.8857129216194153  0.4014464318752289  0.13296619057655337  1.0000
  N   N1        1.0  0.5705816745758057  0.5258879661560059  0.8888149261474609  1.0000
  Rh  Rh1       1.0  0.6478137969970703  0.8397465944290161  0.7703476548194885  1.0000
  Sb  Sb1       1.0  0.6088224053382874  0.9798991084098816  0.3041998744010926  1.0000
  Sb  Sb2       1.0  0.11029549688100815  0.8383492231369019  0.9327605366706847  1.0000
