data_image0
_chemical_formula_structural       B2Ge2Te4
_chemical_formula_sum              "B2 Ge2 Te4"
_cell_length_a       3.685348278583587
_cell_length_b       7.319236947700823
_cell_length_c       8.096759796142578
_cell_angle_alpha    84.87024142804628
_cell_angle_beta     77.23037010972592
_cell_angle_gamma    75.78498533535976

_space_group_name_H-M_alt    "P 1"
_space_group_IT_number       1

loop_
  _space_group_symop_operation_xyz
  'x, y, z'

loop_
  _atom_site_type_symbol
  _atom_site_label
  _atom_site_symmetry_multiplicity
  _atom_site_fract_x
  _atom_site_fract_y
  _atom_site_fract_z
  _atom_site_occupancy
  B   B1        1.0  0.7270945310592651  0.5314525365829468  0.3215537667274475  1.0000
  B   B2        1.0  0.8620768785476685  0.24762092530727386  0.3592090904712677  1.0000
  Ge  Ge1       1.0  0.6359546780586243  0.8966574668884277  0.006408351473510255  1.0000
  Ge  Ge2       1.0  0.9023563265800476  0.9586230516433716  0.47476151585578913  1.0000
  Te  Te1       1.0  0.5385676026344299  0.6727940440177917  0.5570574998855591  1.0000
  Te  Te2       1.0  0.9984639286994934  0.1799439936876297  0.04863594472408293  1.0000
  Te  Te3       1.0  0.27320364117622375  0.2192639261484146  0.5183437466621399  1.0000
  Te  Te4       1.0  0.22555913031101227  0.6261733770370483  0.13029959797859192  1.0000
