data_image0
_chemical_formula_structural       H4ILiP2PtThZn
_chemical_formula_sum              "H4 I1 Li1 P2 Pt1 Th1 Zn1"
_cell_length_a       5.060719726927895
_cell_length_b       5.678434738684143
_cell_length_c       7.11822509765625
_cell_angle_alpha    90.7954835835409
_cell_angle_beta     89.1715175048059
_cell_angle_gamma    90.60079167342317

_space_group_name_H-M_alt    "P 1"
_space_group_IT_number       1

loop_
  _space_group_symop_operation_xyz
  'x, y, z'

loop_
  _atom_site_type_symbol
  _atom_site_label
  _atom_site_symmetry_multiplicity
  _atom_site_fract_x
  _atom_site_fract_y
  _atom_site_fract_z
  _atom_site_occupancy
  H   H1        1.0  0.1266082525253296  0.28165748715400696  0.29975309967994695  1.0000
  H   H2        1.0  0.5772676467895508  0.20641009509563443  0.7714731693267823  1.0000
  H   H3        1.0  0.616172194480896  0.8710502386093139  0.4908761382102967  1.0000
  H   H4        1.0  0.8309570550918579  0.2465451657772064  0.7581639289855958  1.0000
  I   I1        1.0  0.8942466378211973  0.9824921488761901  0.8354158997535707  1.0000
  Li  Li1       1.0  0.5864589214324951  0.6274009346961975  0.8598218560218812  1.0000
  P   P1        1.0  0.44426819682121277  0.5294910669326782  0.6195264458656312  1.0000
  P   P2        1.0  0.8774383068084717  0.01561977807432413  0.3297541737556458  1.0000
  Pt  Pt1       1.0  0.45222821831703186  0.8496412634849547  0.9027448892593384  1.0000
  Th  Th1       1.0  0.09714213758707047  0.07569780200719833  0.7420237660408021  1.0000
  Zn  Zn1       1.0  0.09067145735025406  0.181199848651886  0.07054387032985687  1.0000
