data_image0
_chemical_formula_structural       Co2GeH4PPtSZn
_chemical_formula_sum              "Co2 Ge1 H4 P1 Pt1 S1 Zn1"
_cell_length_a       5.29624087552972
_cell_length_b       5.2884121708965255
_cell_length_c       7.63919734954834
_cell_angle_alpha    90.54614135768624
_cell_angle_beta     89.67915565914537
_cell_angle_gamma    90.75349083865613

_space_group_name_H-M_alt    "P 1"
_space_group_IT_number       1

loop_
  _space_group_symop_operation_xyz
  'x, y, z'

loop_
  _atom_site_type_symbol
  _atom_site_label
  _atom_site_symmetry_multiplicity
  _atom_site_fract_x
  _atom_site_fract_y
  _atom_site_fract_z
  _atom_site_occupancy
  Co  Co1       1.0  0.16074880957603455  0.1870843768119812  0.2379349023103714  1.0000
  Co  Co2       1.0  0.6553483009338379  0.12142934650182723  0.9156384468078613  1.0000
  Ge  Ge1       1.0  0.15785539150238037  0.059780295938253396  0.8629299998283386  1.0000
  H   H1        1.0  0.6544889211654663  0.6517155766487122  0.8157150745391845  1.0000
  H   H2        1.0  0.1584576517343521  0.8155112862586975  0.8964114785194397  1.0000
  H   H3        1.0  0.6578831076622009  0.08624623715877533  0.9865674376487732  1.0000
  H   H4        1.0  0.17029529809951782  0.2981111407279968  0.6941425204277039  1.0000
  P   P1        1.0  0.6515378952026367  0.882569134235382  0.7653511762619019  1.0000
  Pt  Pt1       1.0  0.6615621447563171  0.15521195530891418  0.007745582610368729  1.0000
  S   S1        1.0  0.15644539892673492  0.7737867832183838  0.9168148636817932  1.0000
  Zn  Zn1       1.0  0.6640979647636414  0.36785197257995605  0.65640789270401  1.0000
