data_image0
_chemical_formula_structural       H3N2S6
_chemical_formula_sum              "H3 N2 S6"
_cell_length_a       5.644912652528005
_cell_length_b       5.650665326033134
_cell_length_c       6.615490913391113
_cell_angle_alpha    90.16521445870755
_cell_angle_beta     89.50217039513366
_cell_angle_gamma    90.96613628032337

_space_group_name_H-M_alt    "P 1"
_space_group_IT_number       1

loop_
  _space_group_symop_operation_xyz
  'x, y, z'

loop_
  _atom_site_type_symbol
  _atom_site_label
  _atom_site_symmetry_multiplicity
  _atom_site_fract_x
  _atom_site_fract_y
  _atom_site_fract_z
  _atom_site_occupancy
  H   H1        1.0  0.3512161076068878  0.37906545400619507  0.9141365885734557  1.0000
  H   H2        1.0  0.3450751006603241  0.5771978497505188  0.5083009600639343  1.0000
  H   H3        1.0  0.31286266446113586  0.546425461769104  0.35491254925727844  1.0000
  N   N1        1.0  0.39257586002349854  0.28160494565963745  0.17179881036281586  1.0000
  N   N2        1.0  0.3936154246330261  0.2394161969423294  0.737270176410675  1.0000
  S   S1        1.0  0.8496014475822449  0.7462791204452515  0.4538360536098479  1.0000
  S   S2        1.0  0.8495147824287415  0.2870723009109497  0.6015170216560364  1.0000
  S   S3        1.0  0.15691539645195007  0.7032781839370728  0.4396905601024627  1.0000
  S   S4        1.0  0.8879770040512085  0.8434078693389893  0.3872037231922149  1.0000
  S   S5        1.0  0.17298288643360138  0.13623805344104767  0.7415835857391357  1.0000
  S   S6        1.0  0.8678299784660339  0.8051247000694275  0.563186526298523  1.0000
