data_image0
_chemical_formula_structural       H4N2S5
_chemical_formula_sum              "H4 N2 S5"
_cell_length_a       5.298206724450387
_cell_length_b       5.55157239482389
_cell_length_c       6.62270975112915
_cell_angle_alpha    85.18380828925208
_cell_angle_beta     81.94627152863963
_cell_angle_gamma    72.24202008346528

_space_group_name_H-M_alt    "P 1"
_space_group_IT_number       1

loop_
  _space_group_symop_operation_xyz
  'x, y, z'

loop_
  _atom_site_type_symbol
  _atom_site_label
  _atom_site_symmetry_multiplicity
  _atom_site_fract_x
  _atom_site_fract_y
  _atom_site_fract_z
  _atom_site_occupancy
  H   H1        1.0  0.3923885226249695  0.5750090479850769  0.8139529228210448  1.0000
  H   H2        1.0  0.6672830581665039  0.08237849920988083  0.3653527498245239  1.0000
  H   H3        1.0  0.36326712369918823  0.807084858417511  0.959009826183319  1.0000
  H   H4        1.0  0.044469624757766724  0.6390166878700256  0.9278435707092284  1.0000
  N   N1        1.0  0.3032766580581665  0.47496622800827026  0.11685330420732497  1.0000
  N   N2        1.0  0.81553053855896  0.2973494529724121  0.716625452041626  1.0000
  S   S1        1.0  0.01085078064352274  0.7332600951194763  0.5741774439811707  1.0000
  S   S2        1.0  0.755876898765564  0.2670556902885437  0.1019817218184471  1.0000
  S   S3        1.0  0.8152164220809937  0.4064475893974304  0.11740650981664659  1.0000
  S   S4        1.0  0.5290625095367432  0.1348143368959427  0.7692614197731017  1.0000
  S   S5        1.0  0.36556005477905273  0.051731206476688385  0.45890641212463373  1.0000
