data_image0
_chemical_formula_structural       CoFH2La2N3S2
_chemical_formula_sum              "Co1 F1 H2 La2 N3 S2"
_cell_length_a       5.181956513514807
_cell_length_b       5.65877308987426
_cell_length_c       8.515198707580566
_cell_angle_alpha    97.07007323657324
_cell_angle_beta     91.1722577569084
_cell_angle_gamma    99.86069344533622

_space_group_name_H-M_alt    "P 1"
_space_group_IT_number       1

loop_
  _space_group_symop_operation_xyz
  'x, y, z'

loop_
  _atom_site_type_symbol
  _atom_site_label
  _atom_site_symmetry_multiplicity
  _atom_site_fract_x
  _atom_site_fract_y
  _atom_site_fract_z
  _atom_site_occupancy
  Co  Co1       1.0  0.04467765986919403  0.5481690764427185  0.2277001142501831  1.0000
  F   F1        1.0  0.05193355306982994  0.24079746007919312  0.9099109172821045  1.0000
  H   H1        1.0  0.5584933757781982  0.9246426820755005  0.5840736627578735  1.0000
  H   H2        1.0  0.5411015152931213  0.8751741051673889  0.9063986539840698  1.0000
  La  La1       1.0  0.05354762449860573  0.3716434836387634  0.6669577956199646  1.0000
  La  La2       1.0  0.04472246766090393  0.5363227128982544  0.09161501377820969  1.0000
  N   N1        1.0  0.5519429445266724  0.1872124820947647  0.566085934638977  1.0000
  N   N2        1.0  0.06278721988201141  0.5236238241195679  0.027279051020741463  1.0000
  N   N3        1.0  0.03396311029791832  0.9234151840209961  0.8602744936943054  1.0000
  S   S1        1.0  0.04719601944088936  0.595660924911499  0.34156087040901184  1.0000
  S   S2        1.0  0.5547234416007996  0.26940393447875977  0.628346860408783  1.0000
