data_image0
_chemical_formula_structural       CGaGeH4NPRbS
_chemical_formula_sum              "C1 Ga1 Ge1 H4 N1 P1 Rb1 S1"
_cell_length_a       5.186330704160672
_cell_length_b       5.900351129791694
_cell_length_c       7.274255275726318
_cell_angle_alpha    90.3392379040114
_cell_angle_beta     91.06157019140886
_cell_angle_gamma    94.40689275716308

_space_group_name_H-M_alt    "P 1"
_space_group_IT_number       1

loop_
  _space_group_symop_operation_xyz
  'x, y, z'

loop_
  _atom_site_type_symbol
  _atom_site_label
  _atom_site_symmetry_multiplicity
  _atom_site_fract_x
  _atom_site_fract_y
  _atom_site_fract_z
  _atom_site_occupancy
  C   C1        1.0  0.2784026563167572  0.4921387732028961  0.3267326056957245  1.0000
  Ga  Ga1       1.0  0.7729713916778564  0.4615231454372406  0.09729550033807755  1.0000
  Ge  Ge1       1.0  0.2760773003101349  0.7264578342437744  0.2892650365829468  1.0000
  H   H1        1.0  0.2512017786502838  0.007906857877969742  0.13399048149585724  1.0000
  H   H2        1.0  0.7642260789871216  0.37797218561172485  0.5380510687828064  1.0000
  H   H3        1.0  0.276559054851532  0.5853992700576782  0.9083588719367981  1.0000
  H   H4        1.0  0.26711124181747437  0.207349494099617  0.19021986424922943  1.0000
  N   N1        1.0  0.7677628397941589  0.09420628100633621  0.5284609794616699  1.0000
  P   P1        1.0  0.7765352725982666  0.7928809523582458  0.3008730113506317  1.0000
  Rb  Rb1       1.0  0.768633246421814  0.3131072223186493  0.0522434264421463  1.0000
  S   S1        1.0  0.7723019123077393  0.7740213871002197  0.11876428127288818  1.0000
