data_image0
_chemical_formula_structural       Co2HoP3PrScTb2
_chemical_formula_sum              "Co2 Ho1 P3 Pr1 Sc1 Tb2"
_cell_length_a       6.439600072619285
_cell_length_b       6.854382716241415
_cell_length_c       7.596260070800781
_cell_angle_alpha    107.52597264821694
_cell_angle_beta     103.86705120887218
_cell_angle_gamma    105.54830710474258

_space_group_name_H-M_alt    "P 1"
_space_group_IT_number       1

loop_
  _space_group_symop_operation_xyz
  'x, y, z'

loop_
  _atom_site_type_symbol
  _atom_site_label
  _atom_site_symmetry_multiplicity
  _atom_site_fract_x
  _atom_site_fract_y
  _atom_site_fract_z
  _atom_site_occupancy
  Co  Co1       1.0  0.5193162560462952  0.7131800055503845  0.4304962456226349  1.0000
  Co  Co2       1.0  0.8387075066566467  0.7073103189468384  0.11375281214714052  1.0000
  Ho  Ho1       1.0  0.5777421593666077  0.8876484036445617  0.6028767824172974  1.0000
  P   P1        1.0  0.6065616607666016  0.48370379209518427  0.6119391322135925  1.0000
  P   P2        1.0  0.07897460460662842  0.719038724899292  0.26056143641471863  1.0000
  P   P3        1.0  0.6000034213066101  0.04791463539004325  0.41232073307037354  1.0000
  Pr  Pr1       1.0  0.28438085317611694  0.028874108567833897  0.6158116459846497  1.0000
  Sc  Sc1       1.0  0.9977294206619263  0.21348166465759275  0.4196816086769104  1.0000
  Tb  Tb1       1.0  0.4905501902103424  0.20581378042697904  0.102028489112854  1.0000
  Tb  Tb2       1.0  0.8350743651390076  0.037543389946222305  0.773932695388794  1.0000
