data_image0
_chemical_formula_structural       Co2P2PrSbSi2Tb2
_chemical_formula_sum              "Co2 P2 Pr1 Sb1 Si2 Tb2"
_cell_length_a       5.441111048208155
_cell_length_b       7.030291658475329
_cell_length_c       8.258138656616211
_cell_angle_alpha    119.4283097623747
_cell_angle_beta     84.95741943725882
_cell_angle_gamma    94.6428784720968

_space_group_name_H-M_alt    "P 1"
_space_group_IT_number       1

loop_
  _space_group_symop_operation_xyz
  'x, y, z'

loop_
  _atom_site_type_symbol
  _atom_site_label
  _atom_site_symmetry_multiplicity
  _atom_site_fract_x
  _atom_site_fract_y
  _atom_site_fract_z
  _atom_site_occupancy
  Co  Co1       1.0  0.45630016922950745  0.2319408357143402  0.1400366872549057  1.0000
  Co  Co2       1.0  0.45153936743736267  0.9835690259933472  0.4909020662307739  1.0000
  P   P1        1.0  0.9457240104675293  0.16533587872982025  0.8281962871551514  1.0000
  P   P2        1.0  0.44932642579078674  0.7672595977783203  0.3457473516464233  1.0000
  Pr  Pr1       1.0  0.9405953884124756  0.4879126250743866  0.1368564963340759  1.0000
  Sb  Sb1       1.0  0.7109262943267822  0.9661821126937866  0.1991575807332992  1.0000
  Si  Si1       1.0  0.9466468095779419  0.19481419026851654  0.5058666467666626  1.0000
  Si  Si2       1.0  0.45066118240356445  0.2088499367237091  0.809226930141449  1.0000
  Tb  Tb1       1.0  0.6782007813453674  0.9739583730697632  0.9400006532669067  1.0000
  Tb  Tb2       1.0  0.9511936902999878  0.9893166422843933  0.5941842198371887  1.0000
