data_image0
_chemical_formula_structural       Fe2P3PbTb4
_chemical_formula_sum              "Fe2 P3 Pb1 Tb4"
_cell_length_a       6.120895883772998
_cell_length_b       6.419430224887861
_cell_length_c       6.410264015197754
_cell_angle_alpha    108.12860944938974
_cell_angle_beta     105.35978605990114
_cell_angle_gamma    114.39800506703648

_space_group_name_H-M_alt    "P 1"
_space_group_IT_number       1

loop_
  _space_group_symop_operation_xyz
  'x, y, z'

loop_
  _atom_site_type_symbol
  _atom_site_label
  _atom_site_symmetry_multiplicity
  _atom_site_fract_x
  _atom_site_fract_y
  _atom_site_fract_z
  _atom_site_occupancy
  Fe  Fe1       1.0  0.6117954850196838  0.21809905767440796  0.9686590433120728  1.0000
  Fe  Fe2       1.0  0.08728858828544617  0.5317855477333069  0.9762371778488159  1.0000
  P   P1        1.0  0.7554880976676941  0.4209482669830322  0.18940523266792297  1.0000
  P   P2        1.0  0.6031965017318726  0.943679690361023  0.9619895815849304  1.0000
  P   P3        1.0  0.9701151847839355  0.6923908591270447  0.9631443023681641  1.0000
  Pb  Pb1       1.0  0.09296289086341858  0.19157569110393524  0.6342131495475769  1.0000
  Tb  Tb1       1.0  0.29580551385879517  0.9432684779167175  0.7895830273628235  1.0000
  Tb  Tb2       1.0  0.7610217332839966  0.6819931864738464  0.5298928618431091  1.0000
  Tb  Tb3       1.0  0.7641821503639221  0.9210790991783142  0.6461876630783081  1.0000
  Tb  Tb4       1.0  0.36328497529029846  0.17911851406097412  0.16388463973999023  1.0000
