data_image0
_chemical_formula_structural       Fe2IP2SmTb4
_chemical_formula_sum              "Fe2 I1 P2 Sm1 Tb4"
_cell_length_a       5.875309421926191
_cell_length_b       6.119259713526092
_cell_length_c       6.5346245765686035
_cell_angle_alpha    102.63090487188765
_cell_angle_beta     102.66036074230809
_cell_angle_gamma    116.17119777251371

_space_group_name_H-M_alt    "P 1"
_space_group_IT_number       1

loop_
  _space_group_symop_operation_xyz
  'x, y, z'

loop_
  _atom_site_type_symbol
  _atom_site_label
  _atom_site_symmetry_multiplicity
  _atom_site_fract_x
  _atom_site_fract_y
  _atom_site_fract_z
  _atom_site_occupancy
  Fe  Fe1       1.0  0.9285596013069152  0.7238706350326538  0.8387736678123473  1.0000
  Fe  Fe2       1.0  0.5100187063217162  0.97372168302536  0.3046266734600067  1.0000
  I   I1        1.0  0.01016039215028286  0.5363480448722839  0.4658180773258208  1.0000
  P   P1        1.0  0.5034887194633484  0.4850433468818664  0.34275802969932556  1.0000
  P   P2        1.0  0.9829876422882079  0.5707423090934753  0.8324488401412963  1.0000
  Sm  Sm1       1.0  0.007335914764553308  0.5190320014953613  0.32391828298568726  1.0000
  Tb  Tb1       1.0  0.4857649207115173  0.26551398634910583  0.5740085244178772  1.0000
  Tb  Tb2       1.0  0.4915142357349395  0.023655420169234276  0.07603812962770459  1.0000
  Tb  Tb3       1.0  0.6593466401100159  0.2501334547996521  0.02002783492207527  1.0000
  Tb  Tb4       1.0  0.2288316339254379  0.05637599900364876  0.5320480465888977  1.0000
