data_image0
_chemical_formula_structural       Co2MnP3SmTb3
_chemical_formula_sum              "Co2 Mn1 P3 Sm1 Tb3"
_cell_length_a       5.39409352576745
_cell_length_b       5.735380019152815
_cell_length_c       8.533601760864258
_cell_angle_alpha    98.25407009963783
_cell_angle_beta     99.47014161233858
_cell_angle_gamma    119.34114699293494

_space_group_name_H-M_alt    "P 1"
_space_group_IT_number       1

loop_
  _space_group_symop_operation_xyz
  'x, y, z'

loop_
  _atom_site_type_symbol
  _atom_site_label
  _atom_site_symmetry_multiplicity
  _atom_site_fract_x
  _atom_site_fract_y
  _atom_site_fract_z
  _atom_site_occupancy
  Co  Co1       1.0  0.14344701170921326  0.5218091607093811  0.43002060055732727  1.0000
  Co  Co2       1.0  0.13602495193481445  0.7318891286849976  0.4672960638999939  1.0000
  Mn  Mn1       1.0  0.8463324904441832  0.9596303105354309  0.3627122938632965  1.0000
  P   P1        1.0  0.33217597007751465  0.4807078242301941  0.0955451875925064  1.0000
  P   P2        1.0  0.001808643341064453  0.3968885540962219  0.5274750590324402  1.0000
  P   P3        1.0  0.6276145577430725  0.5189592242240906  0.569051206111908  1.0000
  Sm  Sm1       1.0  0.37833139300346375  0.006186244077980518  0.3110702335834503  1.0000
  Tb  Tb1       1.0  0.02690612897276878  0.9620154500007629  0.8600956797599792  1.0000
  Tb  Tb2       1.0  0.6328698396682739  0.5009768009185791  0.2323974072933197  1.0000
  Tb  Tb3       1.0  0.6276931762695312  0.47229400277137756  0.7657039165496826  1.0000
