data_image0
_chemical_formula_structural       Fe2ILaMnP3Tb2
_chemical_formula_sum              "Fe2 I1 La1 Mn1 P3 Tb2"
_cell_length_a       5.31517771030773
_cell_length_b       7.4229527503907615
_cell_length_c       7.459650993347168
_cell_angle_alpha    120.08076054251134
_cell_angle_beta     90.21511963427054
_cell_angle_gamma    89.95845342946023

_space_group_name_H-M_alt    "P 1"
_space_group_IT_number       1

loop_
  _space_group_symop_operation_xyz
  'x, y, z'

loop_
  _atom_site_type_symbol
  _atom_site_label
  _atom_site_symmetry_multiplicity
  _atom_site_fract_x
  _atom_site_fract_y
  _atom_site_fract_z
  _atom_site_occupancy
  Fe  Fe1       1.0  0.4866655766963959  0.4186287820339203  0.15469060838222504  1.0000
  Fe  Fe2       1.0  0.7767605781555176  0.007846217602491379  0.252886563539505  1.0000
  I   I1        1.0  0.4491831958293915  0.41934412717819214  0.3911823630332947  1.0000
  La  La1       1.0  0.7771331667900085  0.6434828639030457  0.39770904183387756  1.0000
  Mn  Mn1       1.0  0.24978753924369812  0.7159196734428406  0.199810802936554  1.0000
  P   P1        1.0  0.7342370748519897  0.9241359829902649  0.04957814887166017  1.0000
  P   P2        1.0  0.22882294654846191  0.116322822868824  0.5073527097702026  1.0000
  P   P3        1.0  0.23340477049350739  0.32720309495925903  0.4717646539211273  1.0000
  Tb  Tb1       1.0  0.2387894243001938  0.13996148109436035  0.5480153560638428  1.0000
  Tb  Tb2       1.0  0.730918288230896  0.167040154337883  0.5279470086097716  1.0000
