data_image0
_chemical_formula_structural       CdH3Mn4Sc
_chemical_formula_sum              "Cd1 H3 Mn4 Sc1"
_cell_length_a       5.1279971087147045
_cell_length_b       5.1067379108832975
_cell_length_c       6.036406517028809
_cell_angle_alpha    87.68225897431105
_cell_angle_beta     91.52846827216646
_cell_angle_gamma    89.40566888765765

_space_group_name_H-M_alt    "P 1"
_space_group_IT_number       1

loop_
  _space_group_symop_operation_xyz
  'x, y, z'

loop_
  _atom_site_type_symbol
  _atom_site_label
  _atom_site_symmetry_multiplicity
  _atom_site_fract_x
  _atom_site_fract_y
  _atom_site_fract_z
  _atom_site_occupancy
  Cd  Cd1       1.0  0.7560462355613708  0.5253203511238098  0.7065197229385376  1.0000
  H   H1        1.0  0.8001961708068848  0.942591369152069  0.4081434309482574  1.0000
  H   H2        1.0  0.510298490524292  0.8069930076599121  0.372784286737442  1.0000
  H   H3        1.0  0.09684692323207855  0.03014072589576244  0.18733781576156616  1.0000
  Mn  Mn1       1.0  0.036755915731191635  0.3002501130104065  0.29212939739227295  1.0000
  Mn  Mn2       1.0  0.4462432265281677  0.21686135232448578  0.01946132443845272  1.0000
  Mn  Mn3       1.0  0.45847874879837036  0.8602041602134705  0.9651535153388976  1.0000
  Mn  Mn4       1.0  0.45976269245147705  0.840384304523468  0.073924221098423  1.0000
  Sc  Sc1       1.0  0.7231220602989197  0.547033965587616  0.4786796867847442  1.0000
