data_image0
_chemical_formula_structural       CdH2Mn2Sc2VW
_chemical_formula_sum              "Cd1 H2 Mn2 Sc2 V1 W1"
_cell_length_a       4.33758749744328
_cell_length_b       5.338056145550151
_cell_length_c       7.69985818862915
_cell_angle_alpha    97.74042625259669
_cell_angle_beta     91.71048318454136
_cell_angle_gamma    105.72450167607349

_space_group_name_H-M_alt    "P 1"
_space_group_IT_number       1

loop_
  _space_group_symop_operation_xyz
  'x, y, z'

loop_
  _atom_site_type_symbol
  _atom_site_label
  _atom_site_symmetry_multiplicity
  _atom_site_fract_x
  _atom_site_fract_y
  _atom_site_fract_z
  _atom_site_occupancy
  Cd  Cd1       1.0  0.4708348512649536  0.396305114030838  0.46278360486030573  1.0000
  H   H1        1.0  0.9308232069015503  0.30591389536857605  0.08860306441783904  1.0000
  H   H2        1.0  0.7231020331382751  0.8952661156654358  0.5881893634796143  1.0000
  Mn  Mn1       1.0  0.16682249307632446  0.34775447845458984  0.6691548824310302  1.0000
  Mn  Mn2       1.0  0.44813433289527893  0.6193804144859314  0.07509290426969528  1.0000
  Sc  Sc1       1.0  0.13581536710262299  0.1069931834936142  0.7191561460494994  1.0000
  Sc  Sc2       1.0  0.48264801502227783  0.29002484679222107  0.16653035581111905  1.0000
  V   V1        1.0  0.0545990951359272  0.6042300462722778  0.23017306625843045  1.0000
  W   W1        1.0  0.07796955853700638  0.9458258152008057  0.9071229696273803  1.0000
