data_image0
_chemical_formula_structural       Cd3Ge2MnSeVW
_chemical_formula_sum              "Cd3 Ge2 Mn1 Se1 V1 W1"
_cell_length_a       5.060022177242311
_cell_length_b       5.396303555047035
_cell_length_c       9.204900741577148
_cell_angle_alpha    94.14884228332522
_cell_angle_beta     89.40737399119627
_cell_angle_gamma    109.91355007790877

_space_group_name_H-M_alt    "P 1"
_space_group_IT_number       1

loop_
  _space_group_symop_operation_xyz
  'x, y, z'

loop_
  _atom_site_type_symbol
  _atom_site_label
  _atom_site_symmetry_multiplicity
  _atom_site_fract_x
  _atom_site_fract_y
  _atom_site_fract_z
  _atom_site_occupancy
  Cd  Cd1       1.0  0.3256998658180237  0.8515110015869141  0.27145975828170776  1.0000
  Cd  Cd2       1.0  0.31465694308280945  0.8346928358078003  0.7641937732696533  1.0000
  Cd  Cd3       1.0  0.8119608163833618  0.824150800704956  0.8348280191421509  1.0000
  Ge  Ge1       1.0  0.5460619926452637  0.3688001334667206  0.1370656043291092  1.0000
  Ge  Ge2       1.0  0.8158283233642578  0.3652530014514923  0.6491699814796448  1.0000
  Mn  Mn1       1.0  0.638630211353302  0.15255676209926605  0.2634231150150299  1.0000
  Se  Se1       1.0  0.2415621429681778  0.1271032840013504  0.6486280560493469  1.0000
  V   V1        1.0  0.6499859690666199  0.15034137666225433  0.34182208776474  1.0000
  W   W1        1.0  0.9160024523735046  0.6398345232009888  0.6604670286178589  1.0000
