data_image0
_chemical_formula_structural       Cd3LiMnRhScV2
_chemical_formula_sum              "Cd3 Li1 Mn1 Rh1 Sc1 V2"
_cell_length_a       4.961243135931152
_cell_length_b       5.2613801909315265
_cell_length_c       8.565649032592773
_cell_angle_alpha    89.77256382876728
_cell_angle_beta     87.53865201041557
_cell_angle_gamma    93.59530352554405

_space_group_name_H-M_alt    "P 1"
_space_group_IT_number       1

loop_
  _space_group_symop_operation_xyz
  'x, y, z'

loop_
  _atom_site_type_symbol
  _atom_site_label
  _atom_site_symmetry_multiplicity
  _atom_site_fract_x
  _atom_site_fract_y
  _atom_site_fract_z
  _atom_site_occupancy
  Cd  Cd1       1.0  0.8685598969459534  0.45657435059547424  0.12633979320526123  1.0000
  Cd  Cd2       1.0  0.36463338136672974  0.4828905165195465  0.32280945777893066  1.0000
  Cd  Cd3       1.0  0.3564746379852295  0.9091402292251587  0.30448979139328003  1.0000
  Li  Li1       1.0  0.8571115732192993  0.9121750593185425  0.306675523519516  1.0000
  Mn  Mn1       1.0  0.8562681078910828  0.8968612551689148  0.6190474629402161  1.0000
  Rh  Rh1       1.0  0.7192234992980957  0.9410859942436218  0.8136006593704224  1.0000
  Sc  Sc1       1.0  0.5571483969688416  0.20717886090278625  0.8303338885307312  1.0000
  V   V1        1.0  0.23017026484012604  0.9028336405754089  0.5346472859382629  1.0000
  V   V2        1.0  0.8586666584014893  0.49310243129730225  0.8716860413551331  1.0000
