data_image0
_chemical_formula_structural       CaCdCrFeHf2Mn2U
_chemical_formula_sum              "Ca1 Cd1 Cr1 Fe1 Hf2 Mn2 U1"
_cell_length_a       5.431288877699853
_cell_length_b       5.549284377366667
_cell_length_c       5.789862632751465
_cell_angle_alpha    64.22611056997361
_cell_angle_beta     62.881388505506486
_cell_angle_gamma    62.24269736581407

_space_group_name_H-M_alt    "P 1"
_space_group_IT_number       1

loop_
  _space_group_symop_operation_xyz
  'x, y, z'

loop_
  _atom_site_type_symbol
  _atom_site_label
  _atom_site_symmetry_multiplicity
  _atom_site_fract_x
  _atom_site_fract_y
  _atom_site_fract_z
  _atom_site_occupancy
  Ca  Ca1       1.0  0.6581498384475708  0.24857419729232788  0.369239866733551  1.0000
  Cd  Cd1       1.0  0.10975253582000732  0.2764255106449127  0.3574433922767639  1.0000
  Cr  Cr1       1.0  0.3857289254665375  0.10879332572221756  0.1221604198217392  1.0000
  Fe  Fe1       1.0  0.7520749568939209  0.002113819122314453  0.43272092938423157  1.0000
  Hf  Hf1       1.0  0.3857266306877136  0.807303249835968  0.6123425364494324  1.0000
  Hf  Hf2       1.0  0.09956751763820648  0.7514481544494629  0.8319456577301025  1.0000
  Mn  Mn1       1.0  0.15104345977306366  0.28601139783859253  0.8938484191894531  1.0000
  Mn  Mn2       1.0  0.3507213890552521  0.4407745599746704  0.073583222925663  1.0000
  U   U1        1.0  0.7314673662185669  0.512581467628479  0.8751093745231628  1.0000
