data_image0
_chemical_formula_structural       Lu2MgP2Pt2RuScSiZn
_chemical_formula_sum              "Lu2 Mg1 P2 Pt2 Ru1 Sc1 Si1 Zn1"
_cell_length_a       4.756504055106087
_cell_length_b       3.9393622518702127
_cell_length_c       6.840569972991943
_cell_angle_alpha    91.88790792876574
_cell_angle_beta     88.03295375431647
_cell_angle_gamma    116.10743800311812

_space_group_name_H-M_alt    "P 1"
_space_group_IT_number       1

loop_
  _space_group_symop_operation_xyz
  'x, y, z'

loop_
  _atom_site_type_symbol
  _atom_site_label
  _atom_site_symmetry_multiplicity
  _atom_site_fract_x
  _atom_site_fract_y
  _atom_site_fract_z
  _atom_site_occupancy
  Lu  Lu1       1.0  0.44068849086761475  0.8753171563148499  0.8475334048271179  1.0000
  Lu  Lu2       1.0  0.8839552402496338  0.33108004927635193  0.8660200834274292  1.0000
  Mg  Mg1       1.0  0.8715737462043762  0.10774200409650803  0.006126450840383768  1.0000
  P   P1        1.0  0.3846667408943176  0.46868768334388733  0.6637670397758484  1.0000
  P   P2        1.0  0.19970695674419403  0.05270812287926674  0.00197001569904387  1.0000
  Pt  Pt1       1.0  0.38195282220840454  0.9963178634643555  0.0858437791466713  1.0000
  Pt  Pt2       1.0  0.42081183195114136  0.5873116254806519  0.52213054895401  1.0000
  Ru  Ru1       1.0  0.8864851593971252  0.9128268957138062  0.13281261920928955  1.0000
  Sc  Sc1       1.0  0.8349420428276062  0.3066936731338501  0.41083839535713196  1.0000
  Si  Si1       1.0  0.41268977522850037  0.7068439722061157  0.07188767939805984  1.0000
  Zn  Zn1       1.0  0.87474125623703  0.5315948724746704  0.7217153310775757  1.0000
