data_image0
_chemical_formula_structural       FPPr3Pt3Ru2Yb
_chemical_formula_sum              "F1 P1 Pr3 Pt3 Ru2 Yb1"
_cell_length_a       5.204101878445531
_cell_length_b       5.524533925171646
_cell_length_c       6.668189525604248
_cell_angle_alpha    90.3229943752266
_cell_angle_beta     89.46058548157727
_cell_angle_gamma    90.65853437996785

_space_group_name_H-M_alt    "P 1"
_space_group_IT_number       1

loop_
  _space_group_symop_operation_xyz
  'x, y, z'

loop_
  _atom_site_type_symbol
  _atom_site_label
  _atom_site_symmetry_multiplicity
  _atom_site_fract_x
  _atom_site_fract_y
  _atom_site_fract_z
  _atom_site_occupancy
  F   F1        1.0  0.04511651769280434  0.23714092373847961  0.9198175072669983  1.0000
  P   P1        1.0  0.49230265617370605  0.647699773311615  0.12338125705718994  1.0000
  Pr  Pr1       1.0  0.30853432416915894  0.3557355999946594  0.826759934425354  1.0000
  Pr  Pr2       1.0  0.823919415473938  0.777722954750061  0.6971136927604675  1.0000
  Pr  Pr3       1.0  0.5717048645019531  0.10532759875059128  0.7373166084289551  1.0000
  Pt  Pt1       1.0  0.31621837615966797  0.17251093685626984  0.8288162350654602  1.0000
  Pt  Pt2       1.0  0.3470489978790283  0.9090428352355957  0.22193525731563568  1.0000
  Pt  Pt3       1.0  0.07191912084817886  0.8259621858596802  0.559151291847229  1.0000
  Ru  Ru1       1.0  0.06557106226682663  0.6571179628372192  0.9896070957183838  1.0000
  Ru  Ru2       1.0  0.8349782824516296  0.21334271132946014  0.15803317725658417  1.0000
  Yb  Yb1       1.0  0.8216639161109924  0.11916331201791763  0.3496341407299042  1.0000
