data_image0
_chemical_formula_structural       GaLuRuSi4Y4
_chemical_formula_sum              "Ga1 Lu1 Ru1 Si4 Y4"
_cell_length_a       5.580633193520866
_cell_length_b       5.928561537724367
_cell_length_c       5.640807151794434
_cell_angle_alpha    61.63729560842497
_cell_angle_beta     63.36943552374546
_cell_angle_gamma    67.78236357970485

_space_group_name_H-M_alt    "P 1"
_space_group_IT_number       1

loop_
  _space_group_symop_operation_xyz
  'x, y, z'

loop_
  _atom_site_type_symbol
  _atom_site_label
  _atom_site_symmetry_multiplicity
  _atom_site_fract_x
  _atom_site_fract_y
  _atom_site_fract_z
  _atom_site_occupancy
  Ga  Ga1       1.0  0.41906076669692993  0.8629875779151917  0.9239014983177185  1.0000
  Lu  Lu1       1.0  0.4808429777622223  0.9234577417373657  0.01470118947327137  1.0000
  Ru  Ru1       1.0  0.9421241283416748  0.12496474385261536  0.31185412406921387  1.0000
  Si  Si1       1.0  0.9340564608573914  0.3683147430419922  0.7762249112129211  1.0000
  Si  Si2       1.0  0.6742457747459412  0.2117273062467575  0.917946994304657  1.0000
  Si  Si3       1.0  0.2024177610874176  0.1647803783416748  0.09474245458841324  1.0000
  Si  Si4       1.0  0.7168576717376709  0.6780569553375244  0.6798973679542542  1.0000
  Y   Y1        1.0  0.9529939889907837  0.2629457414150238  0.8332205414772034  1.0000
  Y   Y2        1.0  0.6942378878593445  0.7204845547676086  0.4248085021972656  1.0000
  Y   Y3        1.0  0.42913123965263367  0.8597866892814636  0.5624362230300903  1.0000
  Y   Y4        1.0  0.7047504186630249  0.5914727449417114  0.5396504998207092  1.0000
