data_image0
_chemical_formula_structural       GaNNiPrSi5Y2
_chemical_formula_sum              "Ga1 N1 Ni1 Pr1 Si5 Y2"
_cell_length_a       5.5962059990999
_cell_length_b       5.6277280613993454
_cell_length_c       5.642761707305908
_cell_angle_alpha    69.74561911701097
_cell_angle_beta     74.36519996777592
_cell_angle_gamma    74.38521721282049

_space_group_name_H-M_alt    "P 1"
_space_group_IT_number       1

loop_
  _space_group_symop_operation_xyz
  'x, y, z'

loop_
  _atom_site_type_symbol
  _atom_site_label
  _atom_site_symmetry_multiplicity
  _atom_site_fract_x
  _atom_site_fract_y
  _atom_site_fract_z
  _atom_site_occupancy
  Ga  Ga1       1.0  0.3455730974674225  0.25152823328971863  0.08951806277036667  1.0000
  N   N1        1.0  0.8256874680519104  0.3331506550312042  0.7018139362335205  1.0000
  Ni  Ni1       1.0  0.5468026399612427  0.9632409214973449  0.4222215712070465  1.0000
  Pr  Pr1       1.0  0.775571346282959  0.20428045094013214  0.4911488890647888  1.0000
  Si  Si1       1.0  0.10169769823551178  0.5738087296485901  0.12884749472141266  1.0000
  Si  Si2       1.0  0.3450128138065338  0.9529255628585814  0.061419662088155746  1.0000
  Si  Si3       1.0  0.063959538936615  0.47601845860481257  0.4268167018890381  1.0000
  Si  Si4       1.0  0.8999646902084351  0.5215190052986145  0.8207888603210449  1.0000
  Si  Si5       1.0  0.5856128931045532  0.5680416822433472  0.5234751105308533  1.0000
  Y   Y1        1.0  0.08552916347980499  0.9170458912849426  0.4857981204986572  1.0000
  Y   Y2        1.0  0.08644955605268478  0.2260368913412094  0.4961272180080414  1.0000
