data_image0
_chemical_formula_structural       ErGeLu2P2Pt2Ru2Si
_chemical_formula_sum              "Er1 Ge1 Lu2 P2 Pt2 Ru2 Si1"
_cell_length_a       5.410328987550883
_cell_length_b       5.484176837919318
_cell_length_c       6.313351631164551
_cell_angle_alpha    95.79859729880256
_cell_angle_beta     97.53929087113585
_cell_angle_gamma    106.56748535900014

_space_group_name_H-M_alt    "P 1"
_space_group_IT_number       1

loop_
  _space_group_symop_operation_xyz
  'x, y, z'

loop_
  _atom_site_type_symbol
  _atom_site_label
  _atom_site_symmetry_multiplicity
  _atom_site_fract_x
  _atom_site_fract_y
  _atom_site_fract_z
  _atom_site_occupancy
  Er  Er1       1.0  0.2777089476585388  0.5074878931045532  0.693981945514679  1.0000
  Ge  Ge1       1.0  0.8585953116416931  0.15333271026611328  0.19748769700527194  1.0000
  Lu  Lu1       1.0  0.3634251356124878  0.36340755224227905  0.8342004418373109  1.0000
  Lu  Lu2       1.0  0.857190728187561  0.5280420184135437  0.575837254524231  1.0000
  P   P1        1.0  0.36461329460144043  0.24340346455574038  0.43564590811729437  1.0000
  P   P2        1.0  0.8734559416770935  0.932283103466034  0.7144269347190857  1.0000
  Pt  Pt1       1.0  0.8763142228126526  0.6064629554748535  0.752629578113556  1.0000
  Pt  Pt2       1.0  0.3260074555873871  0.5646141767501831  0.28919124603271484  1.0000
  Ru  Ru1       1.0  0.9819990396499635  0.9608969092369081  0.29614442586898804  1.0000
  Ru  Ru2       1.0  0.2662104070186615  0.5466094613075256  0.931663751602173  1.0000
  Si  Si1       1.0  0.4955855011940003  0.5696176290512085  0.7486972808837892  1.0000
