data_image0
_chemical_formula_structural       CP3Ru4SiSrY
_chemical_formula_sum              "C1 P3 Ru4 Si1 Sr1 Y1"
_cell_length_a       5.0700553204825445
_cell_length_b       5.914555951526383
_cell_length_c       5.772007942199707
_cell_angle_alpha    89.89213228806734
_cell_angle_beta     94.90588695441366
_cell_angle_gamma    114.21552632120616

_space_group_name_H-M_alt    "P 1"
_space_group_IT_number       1

loop_
  _space_group_symop_operation_xyz
  'x, y, z'

loop_
  _atom_site_type_symbol
  _atom_site_label
  _atom_site_symmetry_multiplicity
  _atom_site_fract_x
  _atom_site_fract_y
  _atom_site_fract_z
  _atom_site_occupancy
  C   C1        1.0  0.4477286636829376  0.10083143413066864  0.16792307794094086  1.0000
  P   P1        1.0  0.9673412442207336  0.497077614068985  0.14217586815357208  1.0000
  P   P2        1.0  0.8253509998321533  0.8649677038192749  0.9081194400787354  1.0000
  P   P3        1.0  0.18835711479187012  0.2508309781551361  0.5034685134887695  1.0000
  Ru  Ru1       1.0  0.9895614981651306  0.8061451315879822  0.2694126069545746  1.0000
  Ru  Ru2       1.0  0.4527547061443329  0.07019703090190887  0.1622745543718338  1.0000
  Ru  Ru3       1.0  0.4051884114742279  0.46947622299194336  0.523436427116394  1.0000
  Ru  Ru4       1.0  0.958382248878479  0.2563650906085968  0.11712644249200821  1.0000
  Si  Si1       1.0  0.4526141881942749  0.23048856854438782  0.05945480242371559  1.0000
  Sr  Sr1       1.0  0.44159242510795593  0.622153639793396  0.21275947988033295  1.0000
  Y   Y1        1.0  0.9630910158157349  0.5133580565452576  0.5298650860786438  1.0000
