data_image0
_chemical_formula_structural       Ca4Cd2CeHPt2Sb
_chemical_formula_sum              "Ca4 Cd2 Ce1 H1 Pt2 Sb1"
_cell_length_a       4.8708866260772705
_cell_length_b       6.79608521269188
_cell_length_c       12.614413261413574
_cell_angle_alpha    96.73814756241023
_cell_angle_beta     87.6643037542235
_cell_angle_gamma    89.49090566198565

_space_group_name_H-M_alt    "P 1"
_space_group_IT_number       1

loop_
  _space_group_symop_operation_xyz
  'x, y, z'

loop_
  _atom_site_type_symbol
  _atom_site_label
  _atom_site_symmetry_multiplicity
  _atom_site_fract_x
  _atom_site_fract_y
  _atom_site_fract_z
  _atom_site_occupancy
  Ca  Ca1       1.0  0.8535740971565247  0.8668665289878845  0.1071188747882843  1.0000
  Ca  Ca2       1.0  0.7958961129188538  0.3752501308917999  0.43864741921424866  1.0000
  Ca  Ca3       1.0  0.3017490804195404  0.3249492049217224  0.08338680863380432  1.0000
  Ca  Ca4       1.0  0.2837991714477539  0.08669011294841766  0.8921974301338196  1.0000
  Cd  Cd1       1.0  0.2913243770599365  0.10361497104167938  0.6952216625213623  1.0000
  Cd  Cd2       1.0  0.29390987753868103  0.6115996241569519  0.11705149710178375  1.0000
  Ce  Ce1       1.0  0.9846918582916261  0.8303514719009399  0.5741647481918335  1.0000
  H   H1        1.0  0.8266893625259399  0.03369050845503807  0.1457606554031372  1.0000
  Pt  Pt1       1.0  0.7863982915878296  0.5956556797027588  0.5869190096855164  1.0000
  Pt  Pt2       1.0  0.5269100666046143  0.5731732845306396  0.596859335899353  1.0000
  Sb  Sb1       1.0  0.787214457988739  0.08461149781942368  0.9219228029251099  1.0000
