data_image0
_chemical_formula_structural       BaCa5Cd3CePt
_chemical_formula_sum              "Ba1 Ca5 Cd3 Ce1 Pt1"
_cell_length_a       4.926407834999089
_cell_length_b       6.354778351661407
_cell_length_c       11.315571784973145
_cell_angle_alpha    90.06034711937652
_cell_angle_beta     87.01474587286387
_cell_angle_gamma    89.4197397117211

_space_group_name_H-M_alt    "P 1"
_space_group_IT_number       1

loop_
  _space_group_symop_operation_xyz
  'x, y, z'

loop_
  _atom_site_type_symbol
  _atom_site_label
  _atom_site_symmetry_multiplicity
  _atom_site_fract_x
  _atom_site_fract_y
  _atom_site_fract_z
  _atom_site_occupancy
  Ba  Ba1       1.0  0.7201559543609619  0.2705755829811096  0.8755347728729248  1.0000
  Ca  Ca1       1.0  0.7029219269752502  0.312423974275589  0.41190046072006226  1.0000
  Ca  Ca2       1.0  0.7136361598968506  0.5757647156715393  0.16346322000026703  1.0000
  Ca  Ca3       1.0  0.21494121849536896  0.8091179132461548  0.27759119868278503  1.0000
  Ca  Ca4       1.0  0.7134220004081726  0.5858139395713806  0.8026120066642761  1.0000
  Ca  Ca5       1.0  0.2111353874206543  0.8051533102989197  0.9356065988540649  1.0000
  Cd  Cd1       1.0  0.21770210564136505  0.09801331162452698  0.5781651139259338  1.0000
  Cd  Cd2       1.0  0.7255610227584839  0.6398611664772034  0.32835039496421814  1.0000
  Cd  Cd3       1.0  0.21735779941082  0.3075217604637146  0.9663659930229187  1.0000
  Ce  Ce1       1.0  0.3954096734523773  0.9476829767227174  0.10740527510643005  1.0000
  Pt  Pt1       1.0  0.970356822013855  0.5520197749137878  0.4651799201965332  1.0000
