data_image0
_chemical_formula_structural       Ca6Cd3PtSe
_chemical_formula_sum              "Ca6 Cd3 Pt1 Se1"
_cell_length_a       5.492052919935998
_cell_length_b       9.130153389730316
_cell_length_c       9.230172157287598
_cell_angle_alpha    120.90000558118867
_cell_angle_beta     89.38302254857525
_cell_angle_gamma    89.94148860443745

_space_group_name_H-M_alt    "P 1"
_space_group_IT_number       1

loop_
  _space_group_symop_operation_xyz
  'x, y, z'

loop_
  _atom_site_type_symbol
  _atom_site_label
  _atom_site_symmetry_multiplicity
  _atom_site_fract_x
  _atom_site_fract_y
  _atom_site_fract_z
  _atom_site_occupancy
  Ca  Ca1       1.0  0.9221524000167847  0.829464018344879  0.28462314605712885  1.0000
  Ca  Ca2       1.0  0.4047720730304718  0.1618036776781082  0.8337206840515137  1.0000
  Ca  Ca3       1.0  0.42781245708465576  0.48867848515510554  0.10325132310390468  1.0000
  Ca  Ca4       1.0  0.4238133430480957  0.5582310557365416  0.34092760086059565  1.0000
  Ca  Ca5       1.0  0.4240674972534181  0.9605541825294494  0.6025888323783875  1.0000
  Ca  Ca6       1.0  0.897037923336029  0.5682479739189147  0.39882326126098633  1.0000
  Cd  Cd1       1.0  0.402881920337677  0.9454433321952819  0.8372918367385864  1.0000
  Cd  Cd2       1.0  0.9223377704620361  0.3313025832176208  0.6009395122528076  1.0000
  Cd  Cd3       1.0  0.9190642833709717  0.1881497651338577  0.6010379791259766  1.0000
  Pt  Pt1       1.0  0.42017054557800293  0.621963858604431  0.33248275518417353  1.0000
  Se  Se1       1.0  0.9243258833885193  0.4923676252365112  0.9517280459403992  1.0000
