data_image0
_chemical_formula_structural       Ca5Pt4Se2
_chemical_formula_sum              "Ca5 Pt4 Se2"
_cell_length_a       5.840274399727857
_cell_length_b       7.565578563622533
_cell_length_c       7.839183330535889
_cell_angle_alpha    124.76371586199951
_cell_angle_beta     86.34766116546866
_cell_angle_gamma    89.84061045180249

_space_group_name_H-M_alt    "P 1"
_space_group_IT_number       1

loop_
  _space_group_symop_operation_xyz
  'x, y, z'

loop_
  _atom_site_type_symbol
  _atom_site_label
  _atom_site_symmetry_multiplicity
  _atom_site_fract_x
  _atom_site_fract_y
  _atom_site_fract_z
  _atom_site_occupancy
  Ca  Ca1       1.0  0.9539278149604797  0.16799916326999664  0.9849095940589905  1.0000
  Ca  Ca2       1.0  0.9481911659240723  0.08813253045082092  0.0030828153248876476  1.0000
  Ca  Ca3       1.0  0.4265778660774231  0.5675552487373352  0.7526779174804688  1.0000
  Ca  Ca4       1.0  0.9254938960075378  0.7829594016075134  0.1062676683068276  1.0000
  Ca  Ca5       1.0  0.4574783742427826  0.3878075182437897  0.9472843408584595  1.0000
  Pt  Pt1       1.0  0.9352371096611023  0.5115251541137695  0.2287768572568894  1.0000
  Pt  Pt2       1.0  0.4503548741340637  0.29103630781173706  0.23485934734344485  1.0000
  Pt  Pt3       1.0  0.44176939129829407  0.5948318243026733  0.5755539536476135  1.0000
  Pt  Pt4       1.0  0.4510405659675598  0.1664438545703888  0.762694776058197  1.0000
  Se  Se1       1.0  0.4318486750125885  0.692653477191925  0.8959611654281616  1.0000
  Se  Se2       1.0  0.932293713092804  0.09324297308921814  0.28877344727516174  1.0000
