data_image0
_chemical_formula_structural       Ca3Cd5IPtZn
_chemical_formula_sum              "Ca3 Cd5 I1 Pt1 Zn1"
_cell_length_a       4.957901117254957
_cell_length_b       8.855550055112442
_cell_length_c       9.04667854309082
_cell_angle_alpha    120.96265836774488
_cell_angle_beta     89.39104524023345
_cell_angle_gamma    88.9515797559235

_space_group_name_H-M_alt    "P 1"
_space_group_IT_number       1

loop_
  _space_group_symop_operation_xyz
  'x, y, z'

loop_
  _atom_site_type_symbol
  _atom_site_label
  _atom_site_symmetry_multiplicity
  _atom_site_fract_x
  _atom_site_fract_y
  _atom_site_fract_z
  _atom_site_occupancy
  Ca  Ca1       1.0  0.47589531540870667  0.7463143467903137  0.3132640719413758  1.0000
  Ca  Ca2       1.0  0.9721513390541077  0.45868343114852905  0.6769692897796631  1.0000
  Ca  Ca3       1.0  0.4734579622745514  0.7530975341796875  0.263144314289093  1.0000
  Cd  Cd1       1.0  0.975102424621582  0.9684932827949524  0.3394722938537598  1.0000
  Cd  Cd2       1.0  0.9649004340171814  0.778264045715332  0.7940111756324769  1.0000
  Cd  Cd3       1.0  0.9732850193977356  0.7495923042297363  0.5436408519744874  1.0000
  Cd  Cd4       1.0  0.47682368755340576  0.3342856466770172  0.9323751330375671  1.0000
  Cd  Cd5       1.0  0.4776204526424408  0.2784653306007385  0.9710540175437927  1.0000
  I   I1        1.0  0.975849449634552  0.4520719647407532  0.057702086865901996  1.0000
  Pt  Pt1       1.0  0.9866940379142761  0.059283915907144547  0.9867568016052246  1.0000
  Zn  Zn1       1.0  0.47134989500045776  0.6017791032791138  0.45719024538993835  1.0000
