data_image0
_chemical_formula_structural       Ca6Pt5
_chemical_formula_sum              "Ca6 Pt5"
_cell_length_a       5.618113226281087
_cell_length_b       8.233972239838598
_cell_length_c       8.485480308532715
_cell_angle_alpha    125.84659130841415
_cell_angle_beta     82.15422895210027
_cell_angle_gamma    91.41689786644055

_space_group_name_H-M_alt    "P 1"
_space_group_IT_number       1

loop_
  _space_group_symop_operation_xyz
  'x, y, z'

loop_
  _atom_site_type_symbol
  _atom_site_label
  _atom_site_symmetry_multiplicity
  _atom_site_fract_x
  _atom_site_fract_y
  _atom_site_fract_z
  _atom_site_occupancy
  Ca  Ca1       1.0  0.5708624720573425  0.16506215929985046  0.8237805366516113  1.0000
  Ca  Ca2       1.0  0.4784655272960663  0.36677423119544983  0.23869538307189941  1.0000
  Ca  Ca3       1.0  0.013110785745084286  0.14442279934883118  0.014500951394438744  1.0000
  Ca  Ca4       1.0  0.1338939517736435  0.12390612810850142  0.631406307220459  1.0000
  Ca  Ca5       1.0  0.5180037021636963  0.887676179409027  0.9469359517097473  1.0000
  Ca  Ca6       1.0  0.6601343154907227  0.16361269354820251  0.556587815284729  1.0000
  Pt  Pt1       1.0  0.6363793015480042  0.6310590505599976  0.7654619812965393  1.0000
  Pt  Pt2       1.0  0.05148974061012268  0.6422587633132935  0.9868610501289368  1.0000
  Pt  Pt3       1.0  0.08518102020025255  0.8296479582786559  0.5638155937194824  1.0000
  Pt  Pt4       1.0  0.495572566986084  0.9012406468391417  0.9970431923866272  1.0000
  Pt  Pt5       1.0  0.650497317314148  0.1616816371679306  0.7250306010246277  1.0000
