data_image0
_chemical_formula_structural       IPPbWZnZr
_chemical_formula_sum              "I1 P1 Pb1 W1 Zn1 Zr1"
_cell_length_a       4.5301819423693175
_cell_length_b       4.321982209357839
_cell_length_c       6.008259296417236
_cell_angle_alpha    81.82767734347372
_cell_angle_beta     75.88550545940497
_cell_angle_gamma    63.63399487114001

_space_group_name_H-M_alt    "P 1"
_space_group_IT_number       1

loop_
  _space_group_symop_operation_xyz
  'x, y, z'

loop_
  _atom_site_type_symbol
  _atom_site_label
  _atom_site_symmetry_multiplicity
  _atom_site_fract_x
  _atom_site_fract_y
  _atom_site_fract_z
  _atom_site_occupancy
  I   I1        1.0  0.809776246547699  0.008289300836622717  0.3177091181278229  1.0000
  P   P1        1.0  0.5724034309387207  0.826706349849701  0.7793236374855042  1.0000
  Pb  Pb1       1.0  0.920558512210846  0.7194287180900575  0.9820850491523743  1.0000
  W   W1        1.0  0.5672705173492432  0.4309884905815125  0.027089914306998253  1.0000
  Zn  Zn1       1.0  0.5675649642944336  0.8606102466583253  0.13023969531059265  1.0000
  Zr  Zr1       1.0  0.5626234412193298  0.9652181267738343  0.20658472180366516  1.0000
