data_image0
_chemical_formula_structural       OW5
_chemical_formula_sum              "O1 W5"
_cell_length_a       3.4450942622222276
_cell_length_b       3.754214797600382
_cell_length_c       3.9907703399658203
_cell_angle_alpha    136.29735256209662
_cell_angle_beta     91.89765328088943
_cell_angle_gamma    94.86232856089073

_space_group_name_H-M_alt    "P 1"
_space_group_IT_number       1

loop_
  _space_group_symop_operation_xyz
  'x, y, z'

loop_
  _atom_site_type_symbol
  _atom_site_label
  _atom_site_symmetry_multiplicity
  _atom_site_fract_x
  _atom_site_fract_y
  _atom_site_fract_z
  _atom_site_occupancy
  O   O1        1.0  0.6063808798789978  0.1725924611091614  0.8287385702133179  1.0000
  W   W1        1.0  0.15532678365707397  0.3670721054077149  0.3182134926319123  1.0000
  W   W2        1.0  0.14868439733982086  0.8469541668891907  0.9267379045486451  1.0000
  W   W3        1.0  0.6525814533233643  0.09128527343273173  0.466796100139618  1.0000
  W   W4        1.0  0.6490258574485779  0.39188328385353094  0.3845455646514893  1.0000
  W   W5        1.0  0.14811360836029053  0.8379359841346742  0.9603129625320436  1.0000
