data_image0
_chemical_formula_structural       Ce3CoErGaGeMgPtSSe
_chemical_formula_sum              "Ce3 Co1 Er1 Ga1 Ge1 Mg1 Pt1 S1 Se1"
_cell_length_a       5.231467258839651
_cell_length_b       5.657112085170023
_cell_length_c       9.536917686462402
_cell_angle_alpha    99.97931317898814
_cell_angle_beta     88.53564070625065
_cell_angle_gamma    88.888745053744

_space_group_name_H-M_alt    "P 1"
_space_group_IT_number       1

loop_
  _space_group_symop_operation_xyz
  'x, y, z'

loop_
  _atom_site_type_symbol
  _atom_site_label
  _atom_site_symmetry_multiplicity
  _atom_site_fract_x
  _atom_site_fract_y
  _atom_site_fract_z
  _atom_site_occupancy
  Ce  Ce1       1.0  0.49682101607322693  0.8605255484580994  0.8106618523597717  1.0000
  Ce  Ce2       1.0  0.5982916355133057  0.5040377974510193  0.21979311108589172  1.0000
  Ce  Ce3       1.0  0.5716912746429443  0.22905388474464417  0.5947248935699463  1.0000
  Co  Co1       1.0  0.589247465133667  0.5724568367004395  0.1877678632736206  1.0000
  Er  Er1       1.0  0.07803233712911606  0.28397804498672485  0.05387093499302864  1.0000
  Ga  Ga1       1.0  0.0897674560546875  0.20399731397628784  0.15591907501220703  1.0000
  Ge  Ge1       1.0  0.0712166503071785  0.3442607522010803  0.3343797028064728  1.0000
  Mg  Mg1       1.0  0.5904104113578796  0.9745572209358215  0.5625448226928711  1.0000
  Pt  Pt1       1.0  0.5817146897315979  0.8180705308914185  0.936849057674408  1.0000
  S   S1        1.0  0.09449312835931778  0.4518677890300751  0.4701877236366272  1.0000
  Se  Se1       1.0  0.5941931009292603  0.9861593246459961  0.5374810695648193  1.0000
