data_image0
_chemical_formula_structural       Ce4CoGaGeILiPPb
_chemical_formula_sum              "Ce4 Co1 Ga1 Ge1 I1 Li1 P1 Pb1"
_cell_length_a       5.017598970360795
_cell_length_b       6.09671527756793
_cell_length_c       13.1568603515625
_cell_angle_alpha    98.96425267217869
_cell_angle_beta     98.135705434468
_cell_angle_gamma    89.61978208345072

_space_group_name_H-M_alt    "P 1"
_space_group_IT_number       1

loop_
  _space_group_symop_operation_xyz
  'x, y, z'

loop_
  _atom_site_type_symbol
  _atom_site_label
  _atom_site_symmetry_multiplicity
  _atom_site_fract_x
  _atom_site_fract_y
  _atom_site_fract_z
  _atom_site_occupancy
  Ce  Ce1       1.0  0.7036838531494141  0.54413241147995  0.4870468974113464  1.0000
  Ce  Ce2       1.0  0.033947546035051346  0.8960102796554565  0.0077547514811158085  1.0000
  Ce  Ce3       1.0  0.7243227362632751  0.9576859474182129  0.5561929941177368  1.0000
  Ce  Ce4       1.0  0.22891034185886383  0.9414392709732056  0.1496734470129013  1.0000
  Co  Co1       1.0  0.7195464968681335  0.1428060382604599  0.2192423641681671  1.0000
  Ga  Ga1       1.0  0.5307156443595886  0.8502715826034546  0.1582964062690735  1.0000
  Ge  Ge1       1.0  0.7218136191368103  0.48883044719696045  0.9546502232551574  1.0000
  I   I1        1.0  0.21594929695129395  0.3443218171596527  0.07041468471288681  1.0000
  Li  Li1       1.0  0.17864573001861572  0.7905474305152893  0.18305847048759458  1.0000
  P   P1        1.0  0.9969720244407655  0.8820038437843323  0.11986903846263884  1.0000
  Pb  Pb1       1.0  0.4717189967632294  0.9331960082054138  0.5022280216217041  1.0000
