data_image0
_chemical_formula_structural       CeCo4Ga3GeIPt
_chemical_formula_sum              "Ce1 Co4 Ga3 Ge1 I1 Pt1"
_cell_length_a       5.085951135193256
_cell_length_b       8.103263855593724
_cell_length_c       8.236419677734375
_cell_angle_alpha    122.90227312936406
_cell_angle_beta     87.36124849223246
_cell_angle_gamma    87.6413666939547

_space_group_name_H-M_alt    "P 1"
_space_group_IT_number       1

loop_
  _space_group_symop_operation_xyz
  'x, y, z'

loop_
  _atom_site_type_symbol
  _atom_site_label
  _atom_site_symmetry_multiplicity
  _atom_site_fract_x
  _atom_site_fract_y
  _atom_site_fract_z
  _atom_site_occupancy
  Ce  Ce1       1.0  0.30653807520866394  0.26990973949432373  0.1760251820087433  1.0000
  Co  Co1       1.0  0.7944933772087097  0.22814054787158966  0.7336315512657166  1.0000
  Co  Co2       1.0  0.3043409585952759  0.5495471954345703  0.5772580504417419  1.0000
  Co  Co3       1.0  0.30401796102523804  0.9603286981582642  0.48663148283958424  1.0000
  Co  Co4       1.0  0.8020535111427308  0.22332939505577087  0.28158339858055115  1.0000
  Ga  Ga1       1.0  0.6647507548332214  0.9068059325218201  0.3428014516830443  1.0000
  Ga  Ga2       1.0  0.799989938735962  0.479227751493454  0.21265080571174616  1.0000
  Ga  Ga3       1.0  0.3086770176887512  0.2509581446647644  0.18962426483631134  1.0000
  Ge  Ge1       1.0  0.8071278333663942  0.4691009819507599  0.6456509828567505  1.0000
  I   I1        1.0  0.8067274689674379  0.9580873847007751  0.6687833070755005  1.0000
  Pt  Pt1       1.0  0.29492130875587463  0.09787358343601227  0.8525168299674987  1.0000
