data_image0
_chemical_formula_structural       Ce2Co2DyGa3IPtSe
_chemical_formula_sum              "Ce2 Co2 Dy1 Ga3 I1 Pt1 Se1"
_cell_length_a       5.108460783262979
_cell_length_b       6.139532366657725
_cell_length_c       9.534379959106445
_cell_angle_alpha    91.43547870992104
_cell_angle_beta     88.7287794380529
_cell_angle_gamma    99.96826987883512

_space_group_name_H-M_alt    "P 1"
_space_group_IT_number       1

loop_
  _space_group_symop_operation_xyz
  'x, y, z'

loop_
  _atom_site_type_symbol
  _atom_site_label
  _atom_site_symmetry_multiplicity
  _atom_site_fract_x
  _atom_site_fract_y
  _atom_site_fract_z
  _atom_site_occupancy
  Ce  Ce1       1.0  0.6149626970291138  0.5444032549858093  0.15030264854431152  1.0000
  Ce  Ce2       1.0  0.102605439722538  0.7538908123970032  0.5216916799545288  1.0000
  Co  Co1       1.0  0.5949567556381226  0.7900116443634033  0.18997296690940857  1.0000
  Co  Co2       1.0  0.1014830619096756  0.3875257074832916  0.2333800196647644  1.0000
  Dy  Dy1       1.0  0.6061597466468811  0.483233243227005  0.10414183139801025  1.0000
  Ga  Ga1       1.0  0.6135439276695251  0.032755061984062195  0.7550789713859558  1.0000
  Ga  Ga2       1.0  0.6202532649040222  0.7005143165588379  0.8239293694496155  1.0000
  Ga  Ga3       1.0  0.5679638981819153  0.06375901401042938  0.7599940896034241  1.0000
  I   I1        1.0  0.6169432997703552  0.9892237186431885  0.3563704490661621  1.0000
  Pt  Pt1       1.0  0.10296713560819626  0.9190084934234619  0.19935975968837738  1.0000
  Se  Se1       1.0  0.6207680106163025  0.17210900783538818  0.6609034538269044  1.0000
