data_image0
_chemical_formula_structural       Ce5Co3Ga2Pd
_chemical_formula_sum              "Ce5 Co3 Ga2 Pd1"
_cell_length_a       4.760475950968211
_cell_length_b       6.432555513378135
_cell_length_c       6.9263224601745605
_cell_angle_alpha    127.73732319109405
_cell_angle_beta     90.83519856743818
_cell_angle_gamma    88.43191523068607

_space_group_name_H-M_alt    "P 1"
_space_group_IT_number       1

loop_
  _space_group_symop_operation_xyz
  'x, y, z'

loop_
  _atom_site_type_symbol
  _atom_site_label
  _atom_site_symmetry_multiplicity
  _atom_site_fract_x
  _atom_site_fract_y
  _atom_site_fract_z
  _atom_site_occupancy
  Ce  Ce1       1.0  0.7478731274604797  0.3787936568260193  0.6028523445129395  1.0000
  Ce  Ce2       1.0  0.2255561202764511  0.19548387825489044  0.9771928787231445  1.0000
  Ce  Ce3       1.0  0.9832051992416382  0.8877522945404053  0.8586834669113159  1.0000
  Ce  Ce4       1.0  0.9754038453102112  0.6063331961631775  0.6344968676567078  1.0000
  Ce  Ce5       1.0  0.4800398349761963  0.5521978735923767  0.8475480079650879  1.0000
  Co  Co1       1.0  0.21912483870983124  0.8266016244888306  0.6458476185798645  1.0000
  Co  Co2       1.0  0.47578054666519165  0.8556316494941711  0.48817744851112355  1.0000
  Co  Co3       1.0  0.9786503314971924  0.2681716978549957  0.7145483493804932  1.0000
  Ga  Ga1       1.0  0.665328860282898  0.4272212088108063  0.5463467836380005  1.0000
  Ga  Ga2       1.0  0.5896313190460205  0.3189098536968231  0.7989814281463623  1.0000
  Pd  Pd1       1.0  0.48050862550735474  0.25133979320526123  0.2915368676185608  1.0000
