data_image0
_chemical_formula_structural       Ce6Co4Ga
_chemical_formula_sum              "Ce6 Co4 Ga1"
_cell_length_a       6.21980293747498
_cell_length_b       6.457020359985068
_cell_length_c       7.170483589172363
_cell_angle_alpha    115.14244578137011
_cell_angle_beta     112.71760112178012
_cell_angle_gamma    107.1073893540234

_space_group_name_H-M_alt    "P 1"
_space_group_IT_number       1

loop_
  _space_group_symop_operation_xyz
  'x, y, z'

loop_
  _atom_site_type_symbol
  _atom_site_label
  _atom_site_symmetry_multiplicity
  _atom_site_fract_x
  _atom_site_fract_y
  _atom_site_fract_z
  _atom_site_occupancy
  Ce  Ce1       1.0  0.040702831000089645  0.8073941469192505  0.5338957309722902  1.0000
  Ce  Ce2       1.0  0.5234317183494568  0.15657266974449158  0.29621946811676025  1.0000
  Ce  Ce3       1.0  0.5386093258857727  0.6794911026954651  0.8937232494354249  1.0000
  Ce  Ce4       1.0  0.024134449660778122  0.9767515063285829  0.12258867919445039  1.0000
  Ce  Ce5       1.0  0.518539309501648  0.07167253643274307  0.08242377638816835  1.0000
  Ce  Ce6       1.0  0.01795796863734722  0.6832085847854614  0.13429126143455514  1.0000
  Co  Co1       1.0  0.52122962474823  0.7673045992851257  0.6429101824760437  1.0000
  Co  Co2       1.0  0.5315046906471252  0.001517629367299378  0.9418044686317445  1.0000
  Co  Co3       1.0  0.5235460996627808  0.8036504983901978  0.06640560179948814  1.0000
  Co  Co4       1.0  0.5203130841255188  0.4543265402317047  0.8530938029289247  1.0000
  Ga  Ga1       1.0  0.02637297846376896  0.6139275431632996  0.9214463829994203  1.0000
