data_image0
_chemical_formula_structural       Be2GeHoNpPrRhSi2
_chemical_formula_sum              "Be2 Ge1 Ho1 Np1 Pr1 Rh1 Si2"
_cell_length_a       4.093806425996457
_cell_length_b       6.604864895937293
_cell_length_c       6.623717784881592
_cell_angle_alpha    118.87391336189792
_cell_angle_beta     90.1082892333689
_cell_angle_gamma    90.02072632744715

_space_group_name_H-M_alt    "P 1"
_space_group_IT_number       1

loop_
  _space_group_symop_operation_xyz
  'x, y, z'

loop_
  _atom_site_type_symbol
  _atom_site_label
  _atom_site_symmetry_multiplicity
  _atom_site_fract_x
  _atom_site_fract_y
  _atom_site_fract_z
  _atom_site_occupancy
  Be  Be1       1.0  0.3402014672756195  0.28584468364715576  0.34545260667800903  1.0000
  Be  Be2       1.0  0.3433113396167755  0.6597176790237427  0.4942634701728821  1.0000
  Ge  Ge1       1.0  0.34000295400619507  0.6486549973487854  0.005414213519543309  1.0000
  Ho  Ho1       1.0  0.8408332467079163  0.46974417567253113  0.18908835947513578  1.0000
  Np  Np1       1.0  0.8427059650421143  0.45666003227233887  0.6583868861198425  1.0000
  Pr  Pr1       1.0  0.34428873658180237  0.07850909233093262  0.8899182081222534  1.0000
  Rh  Rh1       1.0  0.3410564064979553  0.9696564674377441  0.39975097775459284  1.0000
  Si  Si1       1.0  0.8385463953018188  0.0059832073748111725  0.20670199394226074  1.0000
  Si  Si2       1.0  0.8424489498138428  0.8885346055030823  0.5491107106208801  1.0000
