data_image0
_chemical_formula_structural       Ho3Rh2Si4
_chemical_formula_sum              "Ho3 Rh2 Si4"
_cell_length_a       4.051663339981695
_cell_length_b       6.150024507687936
_cell_length_c       6.889209270477295
_cell_angle_alpha    94.37822397583102
_cell_angle_beta     89.97397152828091
_cell_angle_gamma    109.51982182861468

_space_group_name_H-M_alt    "P 1"
_space_group_IT_number       1

loop_
  _space_group_symop_operation_xyz
  'x, y, z'

loop_
  _atom_site_type_symbol
  _atom_site_label
  _atom_site_symmetry_multiplicity
  _atom_site_fract_x
  _atom_site_fract_y
  _atom_site_fract_z
  _atom_site_occupancy
  Ho  Ho1       1.0  0.9767859578132629  0.8762810230255127  0.07753901183605193  1.0000
  Ho  Ho2       1.0  0.25636598467826843  0.4228892922401428  0.08114499598741531  1.0000
  Ho  Ho3       1.0  0.1117616519331932  0.14581474661827087  0.5844814777374268  1.0000
  Rh  Rh1       1.0  0.4042268693447113  0.724112331867218  0.7161195874214172  1.0000
  Rh  Rh2       1.0  0.8328020572662354  0.5933839082717896  0.445612758398056  1.0000
  Si  Si1       1.0  0.7856581807136536  0.495889276266098  0.7760829329490662  1.0000
  Si  Si2       1.0  0.6508045196533203  0.20863381028175354  0.2874806225299835  1.0000
  Si  Si3       1.0  0.5893057584762573  0.11381436139345169  0.8895208835601807  1.0000
  Si  Si4       1.0  0.45049571990966797  0.8159969449043274  0.38347312808036804  1.0000
