data_image0
_chemical_formula_structural       CoGa2Li5O2Tb
_chemical_formula_sum              "Co1 Ga2 Li5 O2 Tb1"
_cell_length_a       5.120604073268956
_cell_length_b       6.187465152476935
_cell_length_c       6.659178733825684
_cell_angle_alpha    88.87371475744654
_cell_angle_beta     90.52165025979352
_cell_angle_gamma    89.78995393970044

_space_group_name_H-M_alt    "P 1"
_space_group_IT_number       1

loop_
  _space_group_symop_operation_xyz
  'x, y, z'

loop_
  _atom_site_type_symbol
  _atom_site_label
  _atom_site_symmetry_multiplicity
  _atom_site_fract_x
  _atom_site_fract_y
  _atom_site_fract_z
  _atom_site_occupancy
  Co  Co1       1.0  0.2610088884830475  0.3109133541584015  0.7460325956344604  1.0000
  Ga  Ga1       1.0  0.7778406143188477  0.9819645285606384  0.9206130504608154  1.0000
  Ga  Ga2       1.0  0.2748720049858093  0.048135124146938324  0.8242602348327637  1.0000
  Li  Li1       1.0  0.292517751455307  0.4367128014564514  0.8837010264396667  1.0000
  Li  Li2       1.0  0.28331267833709717  0.9222725033760071  0.8189675807952881  1.0000
  Li  Li3       1.0  0.7838315367698669  0.7302073240280151  0.5516432523727416  1.0000
  Li  Li4       1.0  0.2698409855365753  0.0550357960164547  0.716561496257782  1.0000
  Li  Li5       1.0  0.2731056213378906  0.2452610731124878  0.13743950426578522  1.0000
  O   O1        1.0  0.28761833906173706  0.3742886185646057  0.7893486618995667  1.0000
  O   O2        1.0  0.777967631816864  0.13549675047397614  0.840667188167572  1.0000
  Tb  Tb1       1.0  0.7718079686164856  0.2551209628582001  0.6699333786964418  1.0000
