data_image0
_chemical_formula_structural       CoLi5O2PdTbZn
_chemical_formula_sum              "Co1 Li5 O2 Pd1 Tb1 Zn1"
_cell_length_a       5.857606688407646
_cell_length_b       5.574043611628124
_cell_length_c       6.1937971115112305
_cell_angle_alpha    92.62813094906336
_cell_angle_beta     89.5985180448437
_cell_angle_gamma    91.4123870803819

_space_group_name_H-M_alt    "P 1"
_space_group_IT_number       1

loop_
  _space_group_symop_operation_xyz
  'x, y, z'

loop_
  _atom_site_type_symbol
  _atom_site_label
  _atom_site_symmetry_multiplicity
  _atom_site_fract_x
  _atom_site_fract_y
  _atom_site_fract_z
  _atom_site_occupancy
  Co  Co1       1.0  0.41242530941963196  0.7608779072761536  0.2967272102832794  1.0000
  Li  Li1       1.0  0.9116723537445068  0.3000941574573517  0.025180585682392124  1.0000
  Li  Li2       1.0  0.9086692333221436  0.11231695115566254  0.6082978248596191  1.0000
  Li  Li3       1.0  0.3945671617984772  0.4440101981163025  0.21504706144332889  1.0000
  Li  Li4       1.0  0.9079418778419495  0.21454812586307526  0.3684290051460266  1.0000
  Li  Li5       1.0  0.4039275348186493  0.9547426700592041  0.4099716246128083  1.0000
  O   O1        1.0  0.42277300357818604  0.6933473348617554  0.773437261581421  1.0000
  O   O2        1.0  0.9193298816680908  0.31206828355789185  0.5156915187835693  1.0000
  Pd  Pd1       1.0  0.4179539084434509  0.9587321877479553  0.31658411026000977  1.0000
  Tb  Tb1       1.0  0.6886634230613708  0.4822404086589813  0.9609488248825074  1.0000
  Zn  Zn1       1.0  0.9121077060699463  0.8360852599143982  0.47222268581390386  1.0000
