data_image0
_chemical_formula_structural       FeLi5O4Sn
_chemical_formula_sum              "Fe1 Li5 O4 Sn1"
_cell_length_a       4.730222763944448
_cell_length_b       5.176276945528457
_cell_length_c       5.671476364135742
_cell_angle_alpha    80.52124964262285
_cell_angle_beta     71.45425688521665
_cell_angle_gamma    65.72243461414462

_space_group_name_H-M_alt    "P 1"
_space_group_IT_number       1

loop_
  _space_group_symop_operation_xyz
  'x, y, z'

loop_
  _atom_site_type_symbol
  _atom_site_label
  _atom_site_symmetry_multiplicity
  _atom_site_fract_x
  _atom_site_fract_y
  _atom_site_fract_z
  _atom_site_occupancy
  Fe  Fe1       1.0  0.37440231442451477  0.4555671215057373  0.8392987251281739  1.0000
  Li  Li1       1.0  0.8525848984718323  0.9299960136413574  0.06022199615836144  1.0000
  Li  Li2       1.0  0.8796126842498779  0.34790924191474915  0.1269582211971283  1.0000
  Li  Li3       1.0  0.34299618005752563  0.9129869341850281  0.4754278957843781  1.0000
  Li  Li4       1.0  0.8740097880363464  0.18503358960151672  0.9148085713386537  1.0000
  Li  Li5       1.0  0.799078106880188  0.4662778079509735  0.7323712110519409  1.0000
  O   O1        1.0  0.373225599527359  0.7128146290779114  0.3830319941043854  1.0000
  O   O2        1.0  0.8511696457862854  0.5602464079856873  0.11839450150728227  1.0000
  O   O3        1.0  0.16791695356369019  0.964239776134491  0.22396911680698398  1.0000
  O   O4        1.0  0.2625552713871002  0.6098460555076599  0.7674782276153564  1.0000
  Sn  Sn1       1.0  0.5932318568229675  0.6900616884231567  0.6935409307479858  1.0000
