data_image0
_chemical_formula_structural       FeLi7O2Sn
_chemical_formula_sum              "Fe1 Li7 O2 Sn1"
_cell_length_a       3.6507423474560046
_cell_length_b       5.267971468822029
_cell_length_c       8.029390335083008
_cell_angle_alpha    90.26237925215652
_cell_angle_beta     90.74350772824896
_cell_angle_gamma    89.11060633569271

_space_group_name_H-M_alt    "P 1"
_space_group_IT_number       1

loop_
  _space_group_symop_operation_xyz
  'x, y, z'

loop_
  _atom_site_type_symbol
  _atom_site_label
  _atom_site_symmetry_multiplicity
  _atom_site_fract_x
  _atom_site_fract_y
  _atom_site_fract_z
  _atom_site_occupancy
  Fe  Fe1       1.0  0.9929835796356201  0.8793359398841857  0.9662244319915771  1.0000
  Li  Li1       1.0  0.9887399673461914  0.17264337837696075  0.044739097356796265  1.0000
  Li  Li2       1.0  0.47893211245536804  0.6079545617103577  0.03151220828294754  1.0000
  Li  Li3       1.0  0.49649471044540405  0.22626602649688718  0.011851618997752666  1.0000
  Li  Li4       1.0  0.48090383410453796  0.11067369580268858  0.786923348903656  1.0000
  Li  Li5       1.0  0.9865314960479736  0.6026285290718079  0.8265154361724854  1.0000
  Li  Li6       1.0  0.4788835644721985  0.5244870781898499  0.8244758248329163  1.0000
  Li  Li7       1.0  0.4815204441547394  0.9591192603111266  0.8676040172576904  1.0000
  O   O1        1.0  0.9817987680435181  0.09959039092063904  0.3694285452365875  1.0000
  O   O2        1.0  0.49112966656684875  0.5831237435340881  0.3275442123413086  1.0000
  Sn  Sn1       1.0  0.9858599901199341  0.043949007987976074  0.9088262915611267  1.0000
