data_image0
_chemical_formula_structural       FLi4O4SnW
_chemical_formula_sum              "F1 Li4 O4 Sn1 W1"
_cell_length_a       5.705267281167056
_cell_length_b       6.5250886067895655
_cell_length_c       7.186481475830078
_cell_angle_alpha    80.94348469680689
_cell_angle_beta     67.27487958538856
_cell_angle_gamma    69.72149516874616

_space_group_name_H-M_alt    "P 1"
_space_group_IT_number       1

loop_
  _space_group_symop_operation_xyz
  'x, y, z'

loop_
  _atom_site_type_symbol
  _atom_site_label
  _atom_site_symmetry_multiplicity
  _atom_site_fract_x
  _atom_site_fract_y
  _atom_site_fract_z
  _atom_site_occupancy
  F   F1        1.0  0.07654952257871628  0.5299798846244812  0.3601564466953278  1.0000
  Li  Li1       1.0  0.07384076714515686  0.974209189414978  0.32863226532936096  1.0000
  Li  Li2       1.0  0.7153541445732117  0.19526389241218567  0.3201482892036438  1.0000
  Li  Li3       1.0  0.21935665607452393  0.6017563939094543  0.32724353671073914  1.0000
  Li  Li4       1.0  0.7143668532371521  0.3083936274051666  0.7214356660842897  1.0000
  O   O1        1.0  0.21858471632003784  0.4976954758167267  0.35779538750648504  1.0000
  O   O2        1.0  0.26200634241104126  0.88297039270401  0.24954321980476382  1.0000
  O   O3        1.0  0.6948772668838501  0.2557585835456848  0.4292941093444825  1.0000
  O   O4        1.0  0.21365834772586823  0.9213823676109314  0.18087548017501834  1.0000
  Sn  Sn1       1.0  0.2629760503768921  0.9606061577796936  0.8270453810691835  1.0000
  W   W1        1.0  0.7479689121246338  0.3877085745334625  0.7224059700965882  1.0000
