data_image0
_chemical_formula_structural       ErLi4O4Sn2
_chemical_formula_sum              "Er1 Li4 O4 Sn2"
_cell_length_a       5.793136948490127
_cell_length_b       6.232086670086576
_cell_length_c       6.442075252532959
_cell_angle_alpha    64.62326684658657
_cell_angle_beta     63.499577504932205
_cell_angle_gamma    62.98688516069003

_space_group_name_H-M_alt    "P 1"
_space_group_IT_number       1

loop_
  _space_group_symop_operation_xyz
  'x, y, z'

loop_
  _atom_site_type_symbol
  _atom_site_label
  _atom_site_symmetry_multiplicity
  _atom_site_fract_x
  _atom_site_fract_y
  _atom_site_fract_z
  _atom_site_occupancy
  Er  Er1       1.0  0.9596689343452454  0.8871315717697144  0.6322932243347168  1.0000
  Li  Li1       1.0  0.15819942951202393  0.4147282540798187  0.428747296333313  1.0000
  Li  Li2       1.0  0.48160335421562195  0.4669822156429291  0.2060338258743286  1.0000
  Li  Li3       1.0  0.07493392378091812  0.5906437635421753  0.6271170377731323  1.0000
  Li  Li4       1.0  0.09503397345542908  0.4138251841068268  0.00850349199026823  1.0000
  O   O1        1.0  0.6824126243591309  0.24717125296592712  0.8630931973457336  1.0000
  O   O2        1.0  0.16989782452583313  0.2150627225637436  0.8326840400695801  1.0000
  O   O3        1.0  0.7185917496681213  0.8759233355522156  0.16950787603855133  1.0000
  O   O4        1.0  0.48706504702568054  0.5063053369522095  0.4764896035194397  1.0000
  Sn  Sn1       1.0  0.5142017006874084  0.9461207389831543  0.005578469485044479  1.0000
  Sn  Sn2       1.0  0.5586323142051697  0.13336189091205597  0.32998034358024597  1.0000
