data_image0
_chemical_formula_structural       Er2FeSi11
_chemical_formula_sum              "Er2 Fe1 Si11"
_cell_length_a       4.680977996572592
_cell_length_b       7.301218999939444
_cell_length_c       7.075984477996826
_cell_angle_alpha    116.97446752171729
_cell_angle_beta     88.46551956731156
_cell_angle_gamma    90.42744588134185

_space_group_name_H-M_alt    "P 1"
_space_group_IT_number       1

loop_
  _space_group_symop_operation_xyz
  'x, y, z'

loop_
  _atom_site_type_symbol
  _atom_site_label
  _atom_site_symmetry_multiplicity
  _atom_site_fract_x
  _atom_site_fract_y
  _atom_site_fract_z
  _atom_site_occupancy
  Er  Er1       1.0  0.5867916345596313  0.9503533840179443  0.43503811955451965  1.0000
  Er  Er2       1.0  0.6104446053504944  0.38936883211135864  0.090828537940979  1.0000
  Fe  Fe1       1.0  0.6229355335235596  0.3735404908657074  0.21791210770606995  1.0000
  Si  Si1       1.0  0.8457182049751282  0.8693051338195801  0.47306913137435913  1.0000
  Si  Si2       1.0  0.3241548240184784  0.6961105465888977  0.7711091637611389  1.0000
  Si  Si3       1.0  0.14674660563468933  0.27021387219429016  0.23224708437919617  1.0000
  Si  Si4       1.0  0.6483781933784485  0.4691307842731476  0.6331740617752075  1.0000
  Si  Si5       1.0  0.8096392750740051  0.5460151433944702  0.7442206740379333  1.0000
  Si  Si6       1.0  0.3211926519870758  0.4957069456577301  0.5677235722541809  1.0000
  Si  Si7       1.0  0.8452567458152771  0.08970072865486145  0.5072891712188721  1.0000
  Si  Si8       1.0  0.3265848457813263  0.6139501929283142  0.5805221199989319  1.0000
  Si  Si9       1.0  0.3221443295478821  0.11065679788589478  0.7467285394668579  1.0000
  Si  Si10      1.0  0.10922694206237794  0.3048054873943329  0.9424317479133606  1.0000
  Si  Si11      1.0  0.8009846210479736  0.26580294966697693  0.9544591307640076  1.0000
