data_image0
_chemical_formula_structural       Er2Si12
_chemical_formula_sum              "Er2 Si12"
_cell_length_a       4.453903468743841
_cell_length_b       5.9216345374053585
_cell_length_c       6.225378036499023
_cell_angle_alpha    122.85850213997128
_cell_angle_beta     86.13455527807993
_cell_angle_gamma    92.83838976883604

_space_group_name_H-M_alt    "P 1"
_space_group_IT_number       1

loop_
  _space_group_symop_operation_xyz
  'x, y, z'

loop_
  _atom_site_type_symbol
  _atom_site_label
  _atom_site_symmetry_multiplicity
  _atom_site_fract_x
  _atom_site_fract_y
  _atom_site_fract_z
  _atom_site_occupancy
  Er  Er1       1.0  0.5472970008850098  0.4062016010284424  0.38855668902397156  1.0000
  Er  Er2       1.0  0.04085656255483627  0.10821212828159332  0.4764765202999115  1.0000
  Si  Si1       1.0  0.5240336060523987  0.39910948276519775  0.7135139107704163  1.0000
  Si  Si2       1.0  0.03825667127966881  0.7603014707565308  0.7881270051002502  1.0000
  Si  Si3       1.0  0.046810347586870193  0.9194228053092957  0.18074482679367065  1.0000
  Si  Si4       1.0  0.5570864677429199  0.40421417355537415  0.17574210464954376  1.0000
  Si  Si5       1.0  0.5608201622962952  0.4546075463294983  0.5165572762489319  1.0000
  Si  Si6       1.0  0.5516043901443481  0.12583138048648834  0.8109840154647827  1.0000
  Si  Si7       1.0  0.5482285618782043  0.1014765053987503  0.6531575918197632  1.0000
  Si  Si8       1.0  0.5557562708854675  0.7554082870483398  0.012236265465617251  1.0000
  Si  Si9       1.0  0.8341807126998902  0.4813584983348847  0.16104076802730563  1.0000
  Si  Si10      1.0  0.061901990324258804  0.10787228494882584  0.7476288080215454  1.0000
  Si  Si11      1.0  0.05863651633262634  0.9742082953453065  0.3927894830703736  1.0000
  Si  Si12      1.0  0.04100136086344719  0.38963407278060913  0.21309393644332889  1.0000
