data_image0
_chemical_formula_structural       AlFeSi11Zn
_chemical_formula_sum              "Al1 Fe1 Si11 Zn1"
_cell_length_a       4.473320468713694
_cell_length_b       6.772409356974157
_cell_length_c       6.743582248687744
_cell_angle_alpha    118.44332371826412
_cell_angle_beta     90.70985055264046
_cell_angle_gamma    89.96599974692019

_space_group_name_H-M_alt    "P 1"
_space_group_IT_number       1

loop_
  _space_group_symop_operation_xyz
  'x, y, z'

loop_
  _atom_site_type_symbol
  _atom_site_label
  _atom_site_symmetry_multiplicity
  _atom_site_fract_x
  _atom_site_fract_y
  _atom_site_fract_z
  _atom_site_occupancy
  Al  Al1       1.0  0.8229029774665833  0.9357145428657531  0.24451768398284912  1.0000
  Fe  Fe1       1.0  0.5098471641540527  0.14392481744289398  0.32027745246887207  1.0000
  Si  Si1       1.0  0.025586802512407303  0.6963659524917603  0.3570849895477295  1.0000
  Si  Si2       1.0  0.0009580850601196286  0.3674235343933105  0.02927236817777157  1.0000
  Si  Si3       1.0  0.780338704586029  0.5326327085494995  0.2050718069076538  1.0000
  Si  Si4       1.0  0.02579142339527607  0.3270014226436615  0.27023547887802124  1.0000
  Si  Si5       1.0  0.019470538944005966  0.8029577136039733  0.53066086769104  1.0000
  Si  Si6       1.0  0.010184903629124165  0.24501386284828183  0.7580165266990662  1.0000
  Si  Si7       1.0  0.008869526907801628  0.3460119962692261  0.5579006671905518  1.0000
  Si  Si8       1.0  0.5048994421958923  0.494360864162445  0.30300620198249817  1.0000
  Si  Si9       1.0  0.5049320459365845  0.8326776027679442  0.36969324946403503  1.0000
  Si  Si10      1.0  0.5349048972129822  0.9163761138916015  0.2287319153547287  1.0000
  Si  Si11      1.0  0.5186873078346252  0.8535851836204528  0.4554871320724487  1.0000
  Zn  Zn1       1.0  0.5145633816719055  0.3110293447971344  0.8817381858825684  1.0000
