data_image0
_chemical_formula_structural       ErFeSi12
_chemical_formula_sum              "Er1 Fe1 Si12"
_cell_length_a       4.933621971053317
_cell_length_b       6.673625154080353
_cell_length_c       6.696372032165527
_cell_angle_alpha    121.23104474644387
_cell_angle_beta     88.97142179257357
_cell_angle_gamma    89.01805412351632

_space_group_name_H-M_alt    "P 1"
_space_group_IT_number       1

loop_
  _space_group_symop_operation_xyz
  'x, y, z'

loop_
  _atom_site_type_symbol
  _atom_site_label
  _atom_site_symmetry_multiplicity
  _atom_site_fract_x
  _atom_site_fract_y
  _atom_site_fract_z
  _atom_site_occupancy
  Er  Er1       1.0  0.7834203243255615  0.9888333082199096  0.9476872086524963  1.0000
  Fe  Fe1       1.0  0.7909007668495178  0.5781068205833435  0.23560163378715512  1.0000
  Si  Si1       1.0  0.04602241888642311  0.2401194870471954  0.7907362580299377  1.0000
  Si  Si2       1.0  0.5559921860694885  0.3339617848396301  0.37983617186546326  1.0000
  Si  Si3       1.0  0.046027421951293945  0.5523573160171509  0.9379811882972717  1.0000
  Si  Si4       1.0  0.7973605990409851  0.25089508295059204  0.4798509776592255  1.0000
  Si  Si5       1.0  0.7902780175209045  0.07528533786535263  0.6623930335044861  1.0000
  Si  Si6       1.0  0.28832799196243286  0.823839247226715  0.5723305940628052  1.0000
  Si  Si7       1.0  0.32252630591392517  0.5891132354736328  0.11198487877845759  1.0000
  Si  Si8       1.0  0.5528935790061951  0.22537958621978757  0.09679776430130005  1.0000
  Si  Si9       1.0  0.2982524335384369  0.20983555912971494  0.5580281615257263  1.0000
  Si  Si10      1.0  0.7935192584991455  0.8106133937835693  0.5788071155548096  1.0000
  Si  Si11      1.0  0.7935991287231445  0.5267046093940735  0.7149595022201538  1.0000
  Si  Si12      1.0  0.27971455454826355  0.33016639947891235  0.7549285888671875  1.0000
