data_image0
_chemical_formula_structural       CErFe2Si10
_chemical_formula_sum              "C1 Er1 Fe2 Si10"
_cell_length_a       4.837526366764825
_cell_length_b       6.155843440778546
_cell_length_c       5.303988933563232
_cell_angle_alpha    65.11916261259017
_cell_angle_beta     64.04798190453643
_cell_angle_gamma    70.98536499504822

_space_group_name_H-M_alt    "P 1"
_space_group_IT_number       1

loop_
  _space_group_symop_operation_xyz
  'x, y, z'

loop_
  _atom_site_type_symbol
  _atom_site_label
  _atom_site_symmetry_multiplicity
  _atom_site_fract_x
  _atom_site_fract_y
  _atom_site_fract_z
  _atom_site_occupancy
  C   C1        1.0  0.4401511251926422  0.7948026657104492  0.873220682144165  1.0000
  Er  Er1       1.0  0.6148090362548828  0.3095446527004242  0.775324285030365  1.0000
  Fe  Fe1       1.0  0.9091665744781494  0.7861272096633911  0.6608501076698303  1.0000
  Fe  Fe2       1.0  0.5752080678939819  0.781427800655365  0.2913665473461151  1.0000
  Si  Si1       1.0  0.37607699632644653  0.9386422634124755  0.7137571573257446  1.0000
  Si  Si2       1.0  0.995522677898407  0.38749703764915466  0.9884337186813353  1.0000
  Si  Si3       1.0  0.4204203188419342  0.8278825283050537  0.6486501693725586  1.0000
  Si  Si4       1.0  0.8783419132232666  0.8612107038497925  0.49538433551788325  1.0000
  Si  Si5       1.0  0.17059846222400665  0.05572549253702164  0.42932596802711487  1.0000
  Si  Si6       1.0  0.5944437384605408  0.5319482088088989  0.27828776836395264  1.0000
  Si  Si7       1.0  0.21932251751422882  0.3265390992164612  0.3217899203300476  1.0000
  Si  Si8       1.0  0.897927463054657  0.3591461777687073  0.8948951363563538  1.0000
  Si  Si9       1.0  0.2104346752166748  0.04610534757375717  0.16313782334327698  1.0000
  Si  Si10      1.0  0.9197667837142944  0.06808535009622574  0.6468381881713867  1.0000
