data_image0
_chemical_formula_structural       CEr2Fe4Si7
_chemical_formula_sum              "C1 Er2 Fe4 Si7"
_cell_length_a       4.860429899654192
_cell_length_b       6.32706713379273
_cell_length_c       6.405864238739014
_cell_angle_alpha    69.8351006990591
_cell_angle_beta     65.51670354506072
_cell_angle_gamma    67.59142692731248

_space_group_name_H-M_alt    "P 1"
_space_group_IT_number       1

loop_
  _space_group_symop_operation_xyz
  'x, y, z'

loop_
  _atom_site_type_symbol
  _atom_site_label
  _atom_site_symmetry_multiplicity
  _atom_site_fract_x
  _atom_site_fract_y
  _atom_site_fract_z
  _atom_site_occupancy
  C   C1        1.0  0.4333553910255432  0.911190390586853  0.5507617592811584  1.0000
  Er  Er1       1.0  0.19074292480945587  0.531190812587738  0.9261285066604614  1.0000
  Er  Er2       1.0  0.11282719671726227  0.17234976589679718  0.10384739190340042  1.0000
  Fe  Fe1       1.0  0.776938259601593  0.6436197757720947  0.772088348865509  1.0000
  Fe  Fe2       1.0  0.7872567176818848  0.7507954239845276  0.28635138273239136  1.0000
  Fe  Fe3       1.0  0.2826824188232422  0.6949247717857361  0.8141887187957764  1.0000
  Fe  Fe4       1.0  0.0709112212061882  0.07076852023601532  0.37816891074180603  1.0000
  Si  Si1       1.0  0.5912952423095703  0.8527392745018005  0.7278257608413696  1.0000
  Si  Si2       1.0  0.9252942204475403  0.16573621332645416  0.39840078353881836  1.0000
  Si  Si3       1.0  0.3526943027973175  0.7750341892242432  0.3463972508907318  1.0000
  Si  Si4       1.0  0.9409011602401733  0.4043659269809723  0.38205966353416443  1.0000
  Si  Si5       1.0  0.6368862986564636  0.771911084651947  0.25333404541015625  1.0000
  Si  Si6       1.0  0.15394146740436554  0.5186750292778015  0.9134867787361145  1.0000
  Si  Si7       1.0  0.563951849937439  0.5766729116439819  0.975574254989624  1.0000
