data_image0
_chemical_formula_structural       BrIPbYbZr6
_chemical_formula_sum              "Br1 I1 Pb1 Yb1 Zr6"
_cell_length_a       5.482790202245563
_cell_length_b       8.514504290061513
_cell_length_c       9.440321922302246
_cell_angle_alpha    119.28996781372642
_cell_angle_beta     90.2156434411985
_cell_angle_gamma    88.65811992331248

_space_group_name_H-M_alt    "P 1"
_space_group_IT_number       1

loop_
  _space_group_symop_operation_xyz
  'x, y, z'

loop_
  _atom_site_type_symbol
  _atom_site_label
  _atom_site_symmetry_multiplicity
  _atom_site_fract_x
  _atom_site_fract_y
  _atom_site_fract_z
  _atom_site_occupancy
  Br  Br1       1.0  0.019426053389906883  0.15842309594154355  0.7579831480979919  1.0000
  I   I1        1.0  0.006211042404174806  0.4512800574302673  0.010183164849877357  1.0000
  Pb  Pb1       1.0  0.5201865434646606  0.06193982064723968  0.10370371490716934  1.0000
  Yb  Yb1       1.0  0.016546092927455906  0.8436335921287536  0.5021935105323792  1.0000
  Zr  Zr1       1.0  0.5169426202774048  0.40939229726791376  0.08484157919883725  1.0000
  Zr  Zr2       1.0  0.5147833824157715  0.3143592178821563  0.10186897963285446  1.0000
  Zr  Zr3       1.0  0.014107865281403063  0.18417215347290036  0.6612269282341003  1.0000
  Zr  Zr4       1.0  0.518290638923645  0.8406056761741637  0.5439375042915344  1.0000
  Zr  Zr5       1.0  0.5200810432434082  0.31305435299873346  0.7215179800987244  1.0000
  Zr  Zr6       1.0  0.5196734070777893  0.9975198507308959  0.05171218514442444  1.0000
