data_image0
_chemical_formula_structural       BrPZr8
_chemical_formula_sum              "Br1 P1 Zr8"
_cell_length_a       5.478809647770004
_cell_length_b       8.011261971866386
_cell_length_c       8.246315956115723
_cell_angle_alpha    125.63925700463355
_cell_angle_beta     87.55329556799215
_cell_angle_gamma    90.18346489958336

_space_group_name_H-M_alt    "P 1"
_space_group_IT_number       1

loop_
  _space_group_symop_operation_xyz
  'x, y, z'

loop_
  _atom_site_type_symbol
  _atom_site_label
  _atom_site_symmetry_multiplicity
  _atom_site_fract_x
  _atom_site_fract_y
  _atom_site_fract_z
  _atom_site_occupancy
  Br  Br1       1.0  0.2718757688999176  0.851900041103363  0.5561845302581787  1.0000
  P   P1        1.0  0.26739901304244995  0.4807782471179962  0.7473281621932983  1.0000
  Zr  Zr1       1.0  0.7726665139198303  0.8090811371803284  0.2420164942741394  1.0000
  Zr  Zr2       1.0  0.2791404128074646  0.892447292804718  0.08101559430360805  1.0000
  Zr  Zr3       1.0  0.7710466980934143  0.0506194606423378  0.9030884504318237  1.0000
  Zr  Zr4       1.0  0.2811877131462097  0.2568581998348236  0.45001164078712463  1.0000
  Zr  Zr5       1.0  0.7954075336456299  0.8042445182800293  0.24517211318016052  1.0000
  Zr  Zr6       1.0  0.7727188467979431  0.10221750289201736  0.5427748560905457  1.0000
  Zr  Zr7       1.0  0.7819352149963379  0.9031558632850647  0.5679771900177003  1.0000
  Zr  Zr8       1.0  0.27502989768981934  0.4996383488178253  0.538136899471283  1.0000
