data_image0
_chemical_formula_structural       BrIPPbYb2Zr4
_chemical_formula_sum              "Br1 I1 P1 Pb1 Yb2 Zr4"
_cell_length_a       5.9221609749129245
_cell_length_b       6.985762383010071
_cell_length_c       7.567695617675781
_cell_angle_alpha    122.55033996441232
_cell_angle_beta     91.2133398365205
_cell_angle_gamma    88.74652581729049

_space_group_name_H-M_alt    "P 1"
_space_group_IT_number       1

loop_
  _space_group_symop_operation_xyz
  'x, y, z'

loop_
  _atom_site_type_symbol
  _atom_site_label
  _atom_site_symmetry_multiplicity
  _atom_site_fract_x
  _atom_site_fract_y
  _atom_site_fract_z
  _atom_site_occupancy
  Br  Br1       1.0  0.08704620599746704  0.7187184095382689  0.7135098576545715  1.0000
  I   I1        1.0  0.05373400822281838  0.029390150681138035  0.5062550902366638  1.0000
  P   P1        1.0  0.6467284560203552  0.9248030185699462  0.4038723409175873  1.0000
  Pb  Pb1       1.0  0.3362888991832733  0.8466243743896483  0.9718344807624817  1.0000
  Yb  Yb1       1.0  0.87012380361557  0.029313473030924794  0.8575129508972168  1.0000
  Yb  Yb2       1.0  0.34699463844299316  0.6452751755714417  0.6513470411300659  1.0000
  Zr  Zr1       1.0  0.41779163479804987  0.9323091506958007  0.8310670852661133  1.0000
  Zr  Zr2       1.0  0.8645118474960326  0.7146910429000853  0.6324849724769592  1.0000
  Zr  Zr3       1.0  0.8533682227134703  0.8180400729179381  0.3067781329154968  1.0000
  Zr  Zr4       1.0  0.3679175078868866  0.18774110078811643  0.10624939948320389  1.0000
