data_image0
_chemical_formula_structural       As3Br2RhY4
_chemical_formula_sum              "As3 Br2 Rh1 Y4"
_cell_length_a       5.663383512994169
_cell_length_b       6.954021516020098
_cell_length_c       7.274594306945801
_cell_angle_alpha    119.60368745116205
_cell_angle_beta     90.69432178195507
_cell_angle_gamma    93.6683487734989

_space_group_name_H-M_alt    "P 1"
_space_group_IT_number       1

loop_
  _space_group_symop_operation_xyz
  'x, y, z'

loop_
  _atom_site_type_symbol
  _atom_site_label
  _atom_site_symmetry_multiplicity
  _atom_site_fract_x
  _atom_site_fract_y
  _atom_site_fract_z
  _atom_site_occupancy
  As  As1       1.0  0.47445645928382874  0.8913658261299132  0.3943544626235962  1.0000
  As  As2       1.0  0.7533182501792908  0.055815625935792916  0.8683866858482361  1.0000
  As  As3       1.0  0.4803776443004608  0.09529418498277663  0.9383668899536133  1.0000
  Br  Br1       1.0  0.9502346515655518  0.3948820829391479  0.7357715368270874  1.0000
  Br  Br2       1.0  0.24393504858016968  0.21223135292530057  0.5805138945579529  1.0000
  Rh  Rh1       1.0  0.21761693060398102  0.6845378279685973  0.7190161943435669  1.0000
  Y   Y1        1.0  0.9554742574691772  0.6215245723724365  0.12061171233654022  1.0000
  Y   Y2        1.0  0.9879766702651978  0.45518639683723444  0.08398636430501935  1.0000
  Y   Y3        1.0  0.44386613368988037  0.35603037476539606  0.5349048376083374  1.0000
  Y   Y4        1.0  0.9522128105163574  0.744805872440338  0.2638889849185943  1.0000
