data_image0
_chemical_formula_structural       AsBr3OY5
_chemical_formula_sum              "As1 Br3 O1 Y5"
_cell_length_a       6.641851700575412
_cell_length_b       6.495049008165182
_cell_length_c       7.194165229797363
_cell_angle_alpha    116.09760819447808
_cell_angle_beta     118.35726303932499
_cell_angle_gamma    89.87425902323739

_space_group_name_H-M_alt    "P 1"
_space_group_IT_number       1

loop_
  _space_group_symop_operation_xyz
  'x, y, z'

loop_
  _atom_site_type_symbol
  _atom_site_label
  _atom_site_symmetry_multiplicity
  _atom_site_fract_x
  _atom_site_fract_y
  _atom_site_fract_z
  _atom_site_occupancy
  As  As1       1.0  0.8782508969306946  0.27243176102638245  0.6689580678939819  1.0000
  Br  Br1       1.0  0.5708655714988708  0.8837786912918091  0.5661376714706422  1.0000
  Br  Br2       1.0  0.25522804260253906  0.9155676364898682  0.8645721077919006  1.0000
  Br  Br3       1.0  0.892278790473938  0.44537147879600525  0.7152504920959474  1.0000
  O   O1        1.0  0.6079562306404114  0.21375393867492676  0.7897377610206604  1.0000
  Y   Y1        1.0  0.14302755892276764  0.4980701506137848  0.48238369822502136  1.0000
  Y   Y2        1.0  0.905927300453186  0.3512897491455078  0.9490734338760377  1.0000
  Y   Y3        1.0  0.09767689555883408  0.2178352326154709  0.4174284040927887  1.0000
  Y   Y4        1.0  0.3832872807979584  0.7073277235031128  0.1890453696250916  1.0000
  Y   Y5        1.0  0.718614935874939  0.8139476776123047  0.33440276980400097  1.0000
