data_image0
_chemical_formula_structural       Br2YZr7
_chemical_formula_sum              "Br2 Y1 Zr7"
_cell_length_a       6.0028300734794975
_cell_length_b       6.482029019696686
_cell_length_c       6.715970039367676
_cell_angle_alpha    123.99681715685743
_cell_angle_beta     91.14144829422001
_cell_angle_gamma    86.36610208996383

_space_group_name_H-M_alt    "P 1"
_space_group_IT_number       1

loop_
  _space_group_symop_operation_xyz
  'x, y, z'

loop_
  _atom_site_type_symbol
  _atom_site_label
  _atom_site_symmetry_multiplicity
  _atom_site_fract_x
  _atom_site_fract_y
  _atom_site_fract_z
  _atom_site_occupancy
  Br  Br1       1.0  0.3498273193836212  0.8152841329574585  0.5756130218505859  1.0000
  Br  Br2       1.0  0.7754744291305542  0.38392573595046997  0.7426849007606506  1.0000
  Y   Y1        1.0  0.3521316647529602  0.7318720817565918  0.303610235452652  1.0000
  Zr  Zr1       1.0  0.2547300159931183  0.9023565053939819  0.9049732089042664  1.0000
  Zr  Zr2       1.0  0.8747020363807678  0.4934552013874054  0.9285314679145813  1.0000
  Zr  Zr3       1.0  0.9220961928367615  0.3463872969150543  0.5521460771560669  1.0000
  Zr  Zr4       1.0  0.3288602828979492  0.06553877890110016  0.7153829336166382  1.0000
  Zr  Zr5       1.0  0.8427469730377197  0.7189213633537292  0.39157983660697937  1.0000
  Zr  Zr6       1.0  0.3496098816394806  0.3025948703289032  0.7935832142829895  1.0000
  Zr  Zr7       1.0  0.36263421177864075  0.3588826656341553  0.8097443580627441  1.0000
