data_image0
_chemical_formula_structural       Li2PtSe3Te2Ti
_chemical_formula_sum              "Li2 Pt1 Se3 Te2 Ti1"
_cell_length_a       4.936474599646539
_cell_length_b       5.935075477207706
_cell_length_c       10.280512809753418
_cell_angle_alpha    80.03905780895929
_cell_angle_beta     80.30880033411849
_cell_angle_gamma    64.49331884056026

_space_group_name_H-M_alt    "P 1"
_space_group_IT_number       1

loop_
  _space_group_symop_operation_xyz
  'x, y, z'

loop_
  _atom_site_type_symbol
  _atom_site_label
  _atom_site_symmetry_multiplicity
  _atom_site_fract_x
  _atom_site_fract_y
  _atom_site_fract_z
  _atom_site_occupancy
  Li  Li1       1.0  0.8006298542022705  0.07140938937664032  0.47306692600250244  1.0000
  Li  Li2       1.0  0.33787792921066284  0.06833131611347198  0.9784346222877502  1.0000
  Pt  Pt1       1.0  0.8631740212440491  0.0896216556429863  0.8605956435203552  1.0000
  Se  Se1       1.0  0.595503568649292  0.1409498006105423  0.11094079166650772  1.0000
  Se  Se2       1.0  0.0765938833355904  0.45236492156982416  0.2535446584224701  1.0000
  Se  Se3       1.0  0.6130143404006958  0.6985006332397461  0.5918552279472351  1.0000
  Te  Te1       1.0  0.7393308877944946  0.5832807421684265  0.4877912700176239  1.0000
  Te  Te2       1.0  0.2216537892818451  0.7613195776939392  0.3755190074443817  1.0000
  Ti  Ti1       1.0  0.4028524160385132  0.1707865297794342  0.6708637475967407  1.0000
