data_image0
_chemical_formula_structural       LiLuPt2Se3Te2
_chemical_formula_sum              "Li1 Lu1 Pt2 Se3 Te2"
_cell_length_a       5.833771989301796
_cell_length_b       5.942144983376172
_cell_length_c       9.659041404724121
_cell_angle_alpha    73.20394288407597
_cell_angle_beta     72.65420943190892
_cell_angle_gamma    62.88449805512151

_space_group_name_H-M_alt    "P 1"
_space_group_IT_number       1

loop_
  _space_group_symop_operation_xyz
  'x, y, z'

loop_
  _atom_site_type_symbol
  _atom_site_label
  _atom_site_symmetry_multiplicity
  _atom_site_fract_x
  _atom_site_fract_y
  _atom_site_fract_z
  _atom_site_occupancy
  Li  Li1       1.0  0.9101548194885253  0.9885895252227783  0.7338842749595642  1.0000
  Lu  Lu1       1.0  0.9440243840217589  0.7690207958221436  0.49980831146240234  1.0000
  Pt  Pt1       1.0  0.5769711136817932  0.9446358680725098  0.39855140447616577  1.0000
  Pt  Pt2       1.0  0.9498963356018065  0.2549092173576355  0.6398566961288452  1.0000
  Se  Se1       1.0  0.7474876642227173  0.7703181505203247  0.3254549205303192  1.0000
  Se  Se2       1.0  0.2438438385725021  0.2824117839336395  0.2511327266693115  1.0000
  Se  Se3       1.0  0.30450960993766785  0.2355422079563141  0.49619120359420776  1.0000
  Te  Te1       1.0  0.24541787803173062  0.2819545567035675  0.7504898905754089  1.0000
  Te  Te2       1.0  0.7369959950447083  0.7758815288543701  0.9889386892318726  1.0000
