data_image0
_chemical_formula_structural       Li2Se3Te4
_chemical_formula_sum              "Li2 Se3 Te4"
_cell_length_a       6.6396020179314945
_cell_length_b       7.309573283612625
_cell_length_c       10.24535083770752
_cell_angle_alpha    73.25429974420047
_cell_angle_beta     72.5952625884188
_cell_angle_gamma    65.51964490387365

_space_group_name_H-M_alt    "P 1"
_space_group_IT_number       1

loop_
  _space_group_symop_operation_xyz
  'x, y, z'

loop_
  _atom_site_type_symbol
  _atom_site_label
  _atom_site_symmetry_multiplicity
  _atom_site_fract_x
  _atom_site_fract_y
  _atom_site_fract_z
  _atom_site_occupancy
  Li  Li1       1.0  0.5196169018745422  0.05108131095767021  0.6361988186836243  1.0000
  Li  Li2       1.0  0.6792596578598022  0.2167862355709076  0.7725064158439636  1.0000
  Se  Se1       1.0  0.48241060972213745  0.3151128888130188  0.8749002814292908  1.0000
  Se  Se2       1.0  0.4392623007297516  0.004336864687502384  0.9901291728019714  1.0000
  Se  Se3       1.0  0.1735323816537857  0.7305167317390442  0.26908761262893677  1.0000
  Te  Te1       1.0  0.2786165177822113  0.26192930340766907  0.2132752686738968  1.0000
  Te  Te2       1.0  0.03355756402015686  0.9740794897079468  0.26331421732902527  1.0000
  Te  Te3       1.0  0.7161069512367249  0.7364175319671631  0.3262413740158081  1.0000
  Te  Te4       1.0  0.6827086210250854  0.7328604459762573  0.7554542422294617  1.0000
