data_image0
_chemical_formula_structural       Li2Se4TbTe2
_chemical_formula_sum              "Li2 Se4 Tb1 Te2"
_cell_length_a       5.992738620222221
_cell_length_b       6.992748524003969
_cell_length_c       7.966197490692139
_cell_angle_alpha    116.93598245677413
_cell_angle_beta     111.48647181922377
_cell_angle_gamma    89.58222656972853

_space_group_name_H-M_alt    "P 1"
_space_group_IT_number       1

loop_
  _space_group_symop_operation_xyz
  'x, y, z'

loop_
  _atom_site_type_symbol
  _atom_site_label
  _atom_site_symmetry_multiplicity
  _atom_site_fract_x
  _atom_site_fract_y
  _atom_site_fract_z
  _atom_site_occupancy
  Li  Li1       1.0  0.2666228711605072  0.1606295257806778  0.16545125842094419  1.0000
  Li  Li2       1.0  0.2993006408214569  0.0010291337966918945  0.4062225222587585  1.0000
  Se  Se1       1.0  0.9267297983169556  0.4451930522918701  0.08165164291858672  1.0000
  Se  Se2       1.0  0.33096492290496826  0.65919429063797  0.5111592411994934  1.0000
  Se  Se3       1.0  0.9551722407341003  0.6558998227119446  0.8848645091056823  1.0000
  Se  Se4       1.0  0.8150618672370911  0.8723036646842957  0.4102379381656646  1.0000
  Tb  Tb1       1.0  0.3058571517467499  0.5067216753959656  0.37731954455375666  1.0000
  Te  Te1       1.0  0.7688575983047485  0.1560746729373932  0.3370294868946075  1.0000
  Te  Te2       1.0  0.24525028467178345  0.1496751457452774  0.7160471081733703  1.0000
