data_image0
_chemical_formula_structural       BiILiPtSe3Te2
_chemical_formula_sum              "Bi1 I1 Li1 Pt1 Se3 Te2"
_cell_length_a       6.3841376880690754
_cell_length_b       7.276460946471049
_cell_length_c       8.295868873596191
_cell_angle_alpha    117.54204087023057
_cell_angle_beta     112.26039131091396
_cell_angle_gamma    89.17624282347404

_space_group_name_H-M_alt    "P 1"
_space_group_IT_number       1

loop_
  _space_group_symop_operation_xyz
  'x, y, z'

loop_
  _atom_site_type_symbol
  _atom_site_label
  _atom_site_symmetry_multiplicity
  _atom_site_fract_x
  _atom_site_fract_y
  _atom_site_fract_z
  _atom_site_occupancy
  Bi  Bi1       1.0  0.7525830268859863  0.6878209710121155  0.7319080829620361  1.0000
  I   I1        1.0  0.5049847960472107  0.9266884922981262  0.20954772830009472  1.0000
  Li  Li1       1.0  0.956598162651062  0.4228287637233734  0.13527970016002655  1.0000
  Pt  Pt1       1.0  0.7436617612838745  0.18367455899715424  0.24452021718025208  1.0000
  Se  Se1       1.0  0.8863216638565063  0.9282462000846863  0.3821542263031006  1.0000
  Se  Se2       1.0  0.3943426012992859  0.6412143707275391  0.4163140952587128  1.0000
  Se  Se3       1.0  0.3783395290374756  0.41829150915145874  0.7860939502716064  1.0000
  Te  Te1       1.0  0.5357192754745483  0.43061259388923645  0.9237604141235352  1.0000
  Te  Te2       1.0  0.02082698978483677  0.9316233396530151  0.7897441983222961  1.0000
