data_image0
_chemical_formula_structural       Co5Ga3Gd2Zn
_chemical_formula_sum              "Co5 Ga3 Gd2 Zn1"
_cell_length_a       5.780506497629712
_cell_length_b       5.842892382165893
_cell_length_c       5.611363410949707
_cell_angle_alpha    105.76061208275355
_cell_angle_beta     104.62467231968873
_cell_angle_gamma    115.23898598598713

_space_group_name_H-M_alt    "P 1"
_space_group_IT_number       1

loop_
  _space_group_symop_operation_xyz
  'x, y, z'

loop_
  _atom_site_type_symbol
  _atom_site_label
  _atom_site_symmetry_multiplicity
  _atom_site_fract_x
  _atom_site_fract_y
  _atom_site_fract_z
  _atom_site_occupancy
  Co  Co1       1.0  0.8378286957740784  0.4735361635684967  0.8683302998542786  1.0000
  Co  Co2       1.0  0.2847757637500763  0.5219046473503113  0.39846253395080566  1.0000
  Co  Co3       1.0  0.2535909414291382  0.7793145179748535  0.3861824572086334  1.0000
  Co  Co4       1.0  0.6488033533096313  0.26912450790405273  0.38162240386009216  1.0000
  Co  Co5       1.0  0.965065062046051  0.33055350184440613  0.1062641441822052  1.0000
  Ga  Ga1       1.0  0.32270321249961853  0.6948119401931763  0.5401591062545776  1.0000
  Ga  Ga2       1.0  0.7171358466148376  0.12844215333461761  0.6100794672966003  1.0000
  Ga  Ga3       1.0  0.8433348536491394  0.023491833359003067  0.6827953457832336  1.0000
  Gd  Gd1       1.0  0.3278142809867859  0.02485603094100952  0.8914844989776611  1.0000
  Gd  Gd2       1.0  0.8261752128601074  0.03481253981590271  0.16805733740329742  1.0000
  Zn  Zn1       1.0  0.4680234491825104  0.33260324597358704  0.10197476297616963  1.0000
