data_image0
_chemical_formula_structural       Co4GaGd4MnZn
_chemical_formula_sum              "Co4 Ga1 Gd4 Mn1 Zn1"
_cell_length_a       5.4901652574692825
_cell_length_b       5.73289946655784
_cell_length_c       6.434335231781006
_cell_angle_alpha    106.86476147005824
_cell_angle_beta     105.32038071025853
_cell_angle_gamma    110.34153850774281

_space_group_name_H-M_alt    "P 1"
_space_group_IT_number       1

loop_
  _space_group_symop_operation_xyz
  'x, y, z'

loop_
  _atom_site_type_symbol
  _atom_site_label
  _atom_site_symmetry_multiplicity
  _atom_site_fract_x
  _atom_site_fract_y
  _atom_site_fract_z
  _atom_site_occupancy
  Co  Co1       1.0  0.24414114654064178  0.811186671257019  0.49524578452110296  1.0000
  Co  Co2       1.0  0.5150398015975952  0.5640993118286133  0.25177115201950073  1.0000
  Co  Co3       1.0  0.4870392680168152  0.30052635073661804  0.6379933953285217  1.0000
  Co  Co4       1.0  0.23596762120723724  0.8078563213348389  0.989412546157837  1.0000
  Ga  Ga1       1.0  0.22331200540065765  0.8197541832923889  0.2612209618091583  1.0000
  Gd  Gd1       1.0  0.8105692863464355  0.9743419885635376  0.4901310801506043  1.0000
  Gd  Gd2       1.0  0.03153657913208008  0.5655000805854797  0.36395236849784857  1.0000
  Gd  Gd3       1.0  0.8318761587142944  0.2542387843132019  0.8542590141296388  1.0000
  Gd  Gd4       1.0  0.5020948052406311  0.49585816264152527  0.9886059761047364  1.0000
  Mn  Mn1       1.0  0.5040716528892517  0.2775391936302185  0.7547541856765748  1.0000
  Zn  Zn1       1.0  0.5113163590431213  0.05539558455348015  0.2045496851205826  1.0000
