data_image0
_chemical_formula_structural       Co5Ga3GdZnZr
_chemical_formula_sum              "Co5 Ga3 Gd1 Zn1 Zr1"
_cell_length_a       4.586009340827167
_cell_length_b       6.949804135513134
_cell_length_c       7.151236534118652
_cell_angle_alpha    118.81035050249268
_cell_angle_beta     86.92033615410448
_cell_angle_gamma    90.61435829186685

_space_group_name_H-M_alt    "P 1"
_space_group_IT_number       1

loop_
  _space_group_symop_operation_xyz
  'x, y, z'

loop_
  _atom_site_type_symbol
  _atom_site_label
  _atom_site_symmetry_multiplicity
  _atom_site_fract_x
  _atom_site_fract_y
  _atom_site_fract_z
  _atom_site_occupancy
  Co  Co1       1.0  0.9783111214637756  0.400898277759552  0.5860971212387085  1.0000
  Co  Co2       1.0  0.465572327375412  0.884589433670044  0.05032989010214805  1.0000
  Co  Co3       1.0  0.46993058919906616  0.8396406173706055  0.14702878892421722  1.0000
  Co  Co4       1.0  0.9726505279541016  0.3990718126296997  0.30480146408081055  1.0000
  Co  Co5       1.0  0.9660401344299316  0.740536093711853  0.9656394124031066  1.0000
  Ga  Ga1       1.0  0.9688045978546143  0.06375017762184143  0.5152844190597534  1.0000
  Ga  Ga2       1.0  0.9683923125267029  0.24079647660255432  0.8511000275611876  1.0000
  Ga  Ga3       1.0  0.4745006859302521  0.41877034306526184  0.967365801334381  1.0000
  Gd  Gd1       1.0  0.9702125191688538  0.23313431441783905  0.7937082052230834  1.0000
  Zn  Zn1       1.0  0.97137051820755  0.7357441186904907  0.30536285042762756  1.0000
  Zr  Zr1       1.0  0.4677982032299042  0.05700035020709038  0.08686231821775435  1.0000
