data_image0
_chemical_formula_structural       Al3Co4Ga4
_chemical_formula_sum              "Al3 Co4 Ga4"
_cell_length_a       5.03159352239385
_cell_length_b       5.937773598715586
_cell_length_c       5.750544548034668
_cell_angle_alpha    65.13861339516829
_cell_angle_beta     62.72339519822016
_cell_angle_gamma    63.98363163778982

_space_group_name_H-M_alt    "P 1"
_space_group_IT_number       1

loop_
  _space_group_symop_operation_xyz
  'x, y, z'

loop_
  _atom_site_type_symbol
  _atom_site_label
  _atom_site_symmetry_multiplicity
  _atom_site_fract_x
  _atom_site_fract_y
  _atom_site_fract_z
  _atom_site_occupancy
  Al  Al1       1.0  0.7741295099258423  0.5504492521286011  0.5169875025749207  1.0000
  Al  Al2       1.0  0.09878350049257278  0.05377080664038658  0.521403968334198  1.0000
  Al  Al3       1.0  0.30459949374198914  0.8878808617591858  0.26959502696990967  1.0000
  Co  Co1       1.0  0.1558046191930771  0.6752725839614868  0.7811986804008484  1.0000
  Co  Co2       1.0  0.7433819770812988  0.5738332271575928  0.7099131941795349  1.0000
  Co  Co3       1.0  0.684567391872406  0.09185972809791565  0.7673698663711548  1.0000
  Co  Co4       1.0  0.37887513637542725  0.0866587907075882  0.7777674794197083  1.0000
  Ga  Ga1       1.0  0.00956001877784729  0.37861621379852295  0.27956199645996094  1.0000
  Ga  Ga2       1.0  0.3880867063999176  0.6298887729644775  0.03142242506146431  1.0000
  Ga  Ga3       1.0  0.38920581340789795  0.5737242102622986  0.2755701243877411  1.0000
  Ga  Ga4       1.0  0.04984709993004799  0.05988951772451401  0.9171763062477112  1.0000
