data_image0
_chemical_formula_structural       Al3Co5Ga3
_chemical_formula_sum              "Al3 Co5 Ga3"
_cell_length_a       4.679289595993778
_cell_length_b       5.867635541399777
_cell_length_c       5.650859832763672
_cell_angle_alpha    69.37473797204319
_cell_angle_beta     64.4178926813988
_cell_angle_gamma    66.1400599688538

_space_group_name_H-M_alt    "P 1"
_space_group_IT_number       1

loop_
  _space_group_symop_operation_xyz
  'x, y, z'

loop_
  _atom_site_type_symbol
  _atom_site_label
  _atom_site_symmetry_multiplicity
  _atom_site_fract_x
  _atom_site_fract_y
  _atom_site_fract_z
  _atom_site_occupancy
  Al  Al1       1.0  0.6030812859535217  0.5652919411659241  0.6543452739715576  1.0000
  Al  Al2       1.0  0.10247711092233658  0.5635501742362976  0.39335897564888  1.0000
  Al  Al3       1.0  0.8130367398262024  0.8090453743934631  0.9137222766876221  1.0000
  Co  Co1       1.0  0.5977052450180054  0.05969086289405823  0.932395875453949  1.0000
  Co  Co2       1.0  0.10969550162553787  0.06230013445019722  0.2836754024028778  1.0000
  Co  Co3       1.0  0.1094314455986023  0.5631320476531982  0.17849627137184143  1.0000
  Co  Co4       1.0  0.8152066469192505  0.3085360527038574  0.4451322853565216  1.0000
  Co  Co5       1.0  0.593776285648346  0.5641701221466064  0.6607434749603271  1.0000
  Ga  Ga1       1.0  0.5944211483001709  0.5663294196128845  0.12578269839286804  1.0000
  Ga  Ga2       1.0  0.6203415393829346  0.06530486047267914  0.8768731355667114  1.0000
  Ga  Ga3       1.0  0.10472465306520462  0.5796353220939636  0.6546914577484131  1.0000
