data_image0
_chemical_formula_structural       AlCo5Ga3GdZn
_chemical_formula_sum              "Al1 Co5 Ga3 Gd1 Zn1"
_cell_length_a       5.816325565376055
_cell_length_b       6.18861177197606
_cell_length_c       5.885716915130615
_cell_angle_alpha    106.55375948771253
_cell_angle_beta     105.23122819086642
_cell_angle_gamma    111.59263512405614

_space_group_name_H-M_alt    "P 1"
_space_group_IT_number       1

loop_
  _space_group_symop_operation_xyz
  'x, y, z'

loop_
  _atom_site_type_symbol
  _atom_site_label
  _atom_site_symmetry_multiplicity
  _atom_site_fract_x
  _atom_site_fract_y
  _atom_site_fract_z
  _atom_site_occupancy
  Al  Al1       1.0  0.5444048643112183  0.054536666721105576  0.5300663709640503  1.0000
  Co  Co1       1.0  0.20338653028011322  0.5520378351211548  0.5432651042938232  1.0000
  Co  Co2       1.0  0.8736625909805298  0.37641745805740356  0.012690498493611813  1.0000
  Co  Co3       1.0  0.8705466389656067  0.6309046149253845  0.28180602192878723  1.0000
  Co  Co4       1.0  0.4718877971172333  0.25962334871292114  0.8330379724502563  1.0000
  Co  Co5       1.0  0.885213315486908  0.7981259822845459  0.6779390573501587  1.0000
  Ga  Ga1       1.0  0.4448756277561188  0.7163359522819519  0.6859229803085327  1.0000
  Ga  Ga2       1.0  0.19672976434230804  0.038798097521066666  0.27726221084594727  1.0000
  Ga  Ga3       1.0  0.5897058844566345  0.9061774611473083  0.7755116820335388  1.0000
  Gd  Gd1       1.0  0.8634434342384338  0.2978466749191284  0.185974583029747  1.0000
  Zn  Zn1       1.0  0.19905856251716614  0.5553901791572571  0.5505027174949646  1.0000
