data_image0
_chemical_formula_structural       Dy4Fe4Ga3Lu
_chemical_formula_sum              "Dy4 Fe4 Ga3 Lu1"
_cell_length_a       5.4721999571311155
_cell_length_b       6.750720987066969
_cell_length_c       7.022943496704102
_cell_angle_alpha    121.50209006345068
_cell_angle_beta     91.72307203399338
_cell_angle_gamma    89.17553667381928

_space_group_name_H-M_alt    "P 1"
_space_group_IT_number       1

loop_
  _space_group_symop_operation_xyz
  'x, y, z'

loop_
  _atom_site_type_symbol
  _atom_site_label
  _atom_site_symmetry_multiplicity
  _atom_site_fract_x
  _atom_site_fract_y
  _atom_site_fract_z
  _atom_site_occupancy
  Dy  Dy1       1.0  0.49282771348953247  0.45440953969955444  0.6762222051620483  1.0000
  Dy  Dy2       1.0  0.49180930852890015  0.45017576217651367  0.6427355408668518  1.0000
  Dy  Dy3       1.0  0.014268742874264717  0.9468736052513123  0.3256512880325318  1.0000
  Dy  Dy4       1.0  0.48840266466140747  0.4580613076686859  0.6335930228233337  1.0000
  Fe  Fe1       1.0  0.23959940671920776  0.6810726523399353  0.14717526733875275  1.0000
  Fe  Fe2       1.0  0.7425584197044373  0.6221256852149963  0.011295982636511326  1.0000
  Fe  Fe3       1.0  0.23553940653800964  0.19249920547008514  0.14847002923488617  1.0000
  Fe  Fe4       1.0  0.7319635152816772  0.8804517984390259  0.3693597316741944  1.0000
  Ga  Ga1       1.0  0.225613072514534  0.6187115907669067  0.8685830831527709  1.0000
  Ga  Ga2       1.0  0.743694543838501  0.43077024817466736  0.9071590304374694  1.0000
  Ga  Ga3       1.0  0.7610833048820496  0.9362320303916931  0.9651863574981688  1.0000
  Lu  Lu1       1.0  0.004432185087352991  0.1997474879026413  0.1642078012228012  1.0000
