data_image0
_chemical_formula_structural       CoDy3Fe4Ga2HoZn
_chemical_formula_sum              "Co1 Dy3 Fe4 Ga2 Ho1 Zn1"
_cell_length_a       5.304631062821174
_cell_length_b       7.341125919940612
_cell_length_c       7.193005561828613
_cell_angle_alpha    121.98932489665096
_cell_angle_beta     90.59141653954295
_cell_angle_gamma    89.32499004459947

_space_group_name_H-M_alt    "P 1"
_space_group_IT_number       1

loop_
  _space_group_symop_operation_xyz
  'x, y, z'

loop_
  _atom_site_type_symbol
  _atom_site_label
  _atom_site_symmetry_multiplicity
  _atom_site_fract_x
  _atom_site_fract_y
  _atom_site_fract_z
  _atom_site_occupancy
  Co  Co1       1.0  0.31285393238067627  0.658221423625946  0.797191858291626  1.0000
  Dy  Dy1       1.0  0.329689621925354  0.6596230864524841  0.3012616336345672  1.0000
  Dy  Dy2       1.0  0.8328745365142823  0.675649106502533  0.033032719045877394  1.0000
  Dy  Dy3       1.0  0.33281853795051575  0.3596709370613098  0.5622968673706055  1.0000
  Fe  Fe1       1.0  0.3290119767189026  0.11042024940252304  0.7945260405540466  1.0000
  Fe  Fe2       1.0  0.8231446146965028  0.38095545768737793  0.759279191493988  1.0000
  Fe  Fe3       1.0  0.6035650372505188  0.12035046517848969  0.20943431556224826  1.0000
  Fe  Fe4       1.0  0.3277185261249542  0.14983245730400085  0.03774737939238547  1.0000
  Ga  Ga1       1.0  0.844613552093506  0.06188170239329338  0.5287498235702515  1.0000
  Ga  Ga2       1.0  0.3238891065120697  0.45856305956840515  0.3052961230278015  1.0000
  Ho  Ho1       1.0  0.8318544626235963  0.042680513113737106  0.9689669013023378  1.0000
  Zn  Zn1       1.0  0.8171173334121705  0.6661429405212402  0.16934223473072052  1.0000
