data_image0
_chemical_formula_structural       Dy2Fe7Ga3
_chemical_formula_sum              "Dy2 Fe7 Ga3"
_cell_length_a       5.248802530291157
_cell_length_b       5.528043623669666
_cell_length_c       5.808037281036377
_cell_angle_alpha    79.1840264322575
_cell_angle_beta     79.71600343285485
_cell_angle_gamma    79.0516486007176

_space_group_name_H-M_alt    "P 1"
_space_group_IT_number       1

loop_
  _space_group_symop_operation_xyz
  'x, y, z'

loop_
  _atom_site_type_symbol
  _atom_site_label
  _atom_site_symmetry_multiplicity
  _atom_site_fract_x
  _atom_site_fract_y
  _atom_site_fract_z
  _atom_site_occupancy
  Dy  Dy1       1.0  0.3206082880496979  0.4341173470020294  0.10872470587491989  1.0000
  Dy  Dy2       1.0  0.678329586982727  0.8798912167549132  0.3224729597568512  1.0000
  Fe  Fe1       1.0  0.3128013014793396  0.9197244644165038  0.610751748085022  1.0000
  Fe  Fe2       1.0  0.010515566915273666  0.6770097613334656  0.9499834179878235  1.0000
  Fe  Fe3       1.0  0.28373050689697266  0.8636715412139893  0.34031346440315247  1.0000
  Fe  Fe4       1.0  0.6496515870094299  0.15003064274787903  0.855136513710022  1.0000
  Fe  Fe5       1.0  0.6508857607841492  0.6289645433425903  0.35860514640808105  1.0000
  Fe  Fe6       1.0  0.6439653635025024  0.6553506851196289  0.8388364315032959  1.0000
  Fe  Fe7       1.0  0.31765812635421753  0.159388467669487  0.6008195877075195  1.0000
  Ga  Ga1       1.0  0.9683706164360045  0.23819015920162198  0.3353375792503357  1.0000
  Ga  Ga2       1.0  0.3313544988632202  0.1636868268251419  0.09550678730010986  1.0000
  Ga  Ga3       1.0  0.6505349278450012  0.6337531805038452  0.35087472200393677  1.0000
