data_image0
_chemical_formula_structural       Dy5Fe4Ga3
_chemical_formula_sum              "Dy5 Fe4 Ga3"
_cell_length_a       5.28655730170061
_cell_length_b       7.112578755510268
_cell_length_c       7.002140998840332
_cell_angle_alpha    121.30391764053097
_cell_angle_beta     90.10668285017235
_cell_angle_gamma    89.28643856504429

_space_group_name_H-M_alt    "P 1"
_space_group_IT_number       1

loop_
  _space_group_symop_operation_xyz
  'x, y, z'

loop_
  _atom_site_type_symbol
  _atom_site_label
  _atom_site_symmetry_multiplicity
  _atom_site_fract_x
  _atom_site_fract_y
  _atom_site_fract_z
  _atom_site_occupancy
  Dy  Dy1       1.0  0.20363877713680267  0.464344173669815  0.42864441871643066  1.0000
  Dy  Dy2       1.0  0.45770007371902466  0.9820777177810668  0.1468129009008407  1.0000
  Dy  Dy3       1.0  0.9592210054397583  0.9856994152069091  0.9874330163002013  1.0000
  Dy  Dy4       1.0  0.45604395866394043  0.4661309123039245  0.6094812750816345  1.0000
  Dy  Dy5       1.0  0.9530948996543884  0.7432574033737183  0.3661504685878753  1.0000
  Fe  Fe1       1.0  0.45150405168533325  0.24338768422603604  0.6143725514411926  1.0000
  Fe  Fe2       1.0  0.9549412131309509  0.7559350728988647  0.10530818253755563  1.0000
  Fe  Fe3       1.0  0.956692099571228  0.7553648352622986  0.1040134131908416  1.0000
  Fe  Fe4       1.0  0.9553149938583374  0.7694217562675476  0.5982738137245178  1.0000
  Ga  Ga1       1.0  0.45478034019470215  0.993779420852661  0.08941928297281265  1.0000
  Ga  Ga2       1.0  0.9541447758674622  0.11743689328432082  0.9358022809028625  1.0000
  Ga  Ga3       1.0  0.45779746770858765  0.4713782668113708  0.9787315726280212  1.0000
