data_image0
_chemical_formula_structural       Fe7Ga5
_chemical_formula_sum              "Fe7 Ga5"
_cell_length_a       5.4710812392278285
_cell_length_b       5.824577201358959
_cell_length_c       5.55251407623291
_cell_angle_alpha    79.2605465599983
_cell_angle_beta     79.77998988670319
_cell_angle_gamma    81.43093431350373

_space_group_name_H-M_alt    "P 1"
_space_group_IT_number       1

loop_
  _space_group_symop_operation_xyz
  'x, y, z'

loop_
  _atom_site_type_symbol
  _atom_site_label
  _atom_site_symmetry_multiplicity
  _atom_site_fract_x
  _atom_site_fract_y
  _atom_site_fract_z
  _atom_site_occupancy
  Fe  Fe1       1.0  0.2399219125509262  0.6645820140838623  0.826290488243103  1.0000
  Fe  Fe2       1.0  0.8141735196113586  0.4845360219478607  0.06599225103855133  1.0000
  Fe  Fe3       1.0  0.5993028879165649  0.9115004539489746  0.02750946581363678  1.0000
  Fe  Fe4       1.0  0.09922245144844055  0.47685930132865906  0.810574471950531  1.0000
  Fe  Fe5       1.0  0.5874026417732239  0.3862118721008301  0.5387448072433472  1.0000
  Fe  Fe6       1.0  0.10850336402654648  0.8898949027061462  0.049627885222435  1.0000
  Fe  Fe7       1.0  0.35705700516700745  0.15206831693649292  0.3328455090522766  1.0000
  Ga  Ga1       1.0  0.7822965383529663  0.6621515154838562  0.26006174087524414  1.0000
  Ga  Ga2       1.0  0.259037047624588  0.132650226354599  0.8404290080070496  1.0000
  Ga  Ga3       1.0  0.503150224685669  0.8845762610435486  0.8083785772323608  1.0000
  Ga  Ga4       1.0  0.4941313862800598  0.3839813470840454  0.23686368763446808  1.0000
  Ga  Ga5       1.0  0.049291741102933884  0.44631481170654297  0.052706148475408554  1.0000
