data_image0
_chemical_formula_structural       Dy4Fe4Ga4
_chemical_formula_sum              "Dy4 Fe4 Ga4"
_cell_length_a       5.450562792024895
_cell_length_b       7.061621821558724
_cell_length_c       6.992522716522217
_cell_angle_alpha    121.61106371660999
_cell_angle_beta     91.49705959888185
_cell_angle_gamma    90.43382686553757

_space_group_name_H-M_alt    "P 1"
_space_group_IT_number       1

loop_
  _space_group_symop_operation_xyz
  'x, y, z'

loop_
  _atom_site_type_symbol
  _atom_site_label
  _atom_site_symmetry_multiplicity
  _atom_site_fract_x
  _atom_site_fract_y
  _atom_site_fract_z
  _atom_site_occupancy
  Dy  Dy1       1.0  0.5306017398834229  0.18642103672027588  0.552964448928833  1.0000
  Dy  Dy2       1.0  0.31084784865379333  0.4937251806259155  0.2248103022575378  1.0000
  Dy  Dy3       1.0  0.044237758964300156  0.6725142002105713  0.7151230573654175  1.0000
  Dy  Dy4       1.0  0.03973664343357086  0.18820354342460632  0.620572030544281  1.0000
  Fe  Fe1       1.0  0.8221662044525148  0.1685091257095337  0.19033849239349362  1.0000
  Fe  Fe2       1.0  0.29224893450737  0.17213597893714905  0.022058527916669828  1.0000
  Fe  Fe3       1.0  0.5187325477600098  0.18562579154968262  0.5579222440719604  1.0000
  Fe  Fe4       1.0  0.0026073455810546875  0.49523693323135376  0.025372600182890857  1.0000
  Ga  Ga1       1.0  0.5564678907394409  0.6252173781394958  0.878525674343109  1.0000
  Ga  Ga2       1.0  0.7835366725921631  0.8782885670661926  0.33824869990348805  1.0000
  Ga  Ga3       1.0  0.5384162664413452  0.5406441688537598  0.54203462600708  1.0000
  Ga  Ga4       1.0  0.31436100602149963  0.6735574007034302  0.009062227793037827  1.0000
