data_image0
_chemical_formula_structural       AlHo4SbTb2Zr
_chemical_formula_sum              "Al1 Ho4 Sb1 Tb2 Zr1"
_cell_length_a       5.4660035214625955
_cell_length_b       6.8977146403714995
_cell_length_c       7.034572601318359
_cell_angle_alpha    118.9468327193548
_cell_angle_beta     89.6980166483872
_cell_angle_gamma    90.09099880773175

_space_group_name_H-M_alt    "P 1"
_space_group_IT_number       1

loop_
  _space_group_symop_operation_xyz
  'x, y, z'

loop_
  _atom_site_type_symbol
  _atom_site_label
  _atom_site_symmetry_multiplicity
  _atom_site_fract_x
  _atom_site_fract_y
  _atom_site_fract_z
  _atom_site_occupancy
  Al  Al1       1.0  0.07375261932611465  0.9135448932647705  0.4970044493675231  1.0000
  Ho  Ho1       1.0  0.8290933966636657  0.7580990791320801  0.13529656827449793  1.0000
  Ho  Ho2       1.0  0.08577164262533188  0.14113476872444153  0.13448430597782135  1.0000
  Ho  Ho3       1.0  0.3304652273654938  0.23893418908119202  0.6318923234939575  1.0000
  Ho  Ho4       1.0  0.5715394616127014  0.6448564529418945  0.9913573861122131  1.0000
  Sb  Sb1       1.0  0.32578244805336  0.6371433734893799  0.3757123947143554  1.0000
  Tb  Tb1       1.0  0.8355213999748229  0.2649936079978943  0.965700089931488  1.0000
  Tb  Tb2       1.0  0.8263521194458007  0.2224980741739273  0.2557234466075897  1.0000
  Zr  Zr1       1.0  0.33019566535949707  0.9889134168624878  0.85478675365448  1.0000
