data_image0
_chemical_formula_structural       FHo5Tb2Zr
_chemical_formula_sum              "F1 Ho5 Tb2 Zr1"
_cell_length_a       4.924612138310729
_cell_length_b       6.6725809043388615
_cell_length_c       6.960414886474609
_cell_angle_alpha    118.96616393099967
_cell_angle_beta     89.62331376239298
_cell_angle_gamma    90.37989117341678

_space_group_name_H-M_alt    "P 1"
_space_group_IT_number       1

loop_
  _space_group_symop_operation_xyz
  'x, y, z'

loop_
  _atom_site_type_symbol
  _atom_site_label
  _atom_site_symmetry_multiplicity
  _atom_site_fract_x
  _atom_site_fract_y
  _atom_site_fract_z
  _atom_site_occupancy
  F   F1        1.0  0.35261812806129456  0.9116241931915284  0.4897553324699402  1.0000
  Ho  Ho1       1.0  0.8549761772155763  0.35368943214416504  0.30035191774368286  1.0000
  Ho  Ho2       1.0  0.352752685546875  0.3413732945919037  0.7821326255798339  1.0000
  Ho  Ho3       1.0  0.3535459637641907  0.5737245678901672  0.8895315527915953  1.0000
  Ho  Ho4       1.0  0.8542184233665469  0.9528692960739137  0.8414981961250304  1.0000
  Ho  Ho5       1.0  0.34806501865386963  0.8483608961105348  0.43826699256896967  1.0000
  Tb  Tb1       1.0  0.855029046535492  0.7534372210502625  0.22770833969116208  1.0000
  Tb  Tb2       1.0  0.854784905910492  0.20578466355800631  0.5125617980957031  1.0000
  Zr  Zr1       1.0  0.8525888919830323  0.7820996642112733  0.717484176158905  1.0000
