data_image0
_chemical_formula_structural       F2Ho4TbZr2
_chemical_formula_sum              "F2 Ho4 Tb1 Zr2"
_cell_length_a       4.883102748516513
_cell_length_b       5.49001650010362
_cell_length_c       6.501547336578369
_cell_angle_alpha    121.11510688321498
_cell_angle_beta     94.06540333956951
_cell_angle_gamma    73.5835557758501

_space_group_name_H-M_alt    "P 1"
_space_group_IT_number       1

loop_
  _space_group_symop_operation_xyz
  'x, y, z'

loop_
  _atom_site_type_symbol
  _atom_site_label
  _atom_site_symmetry_multiplicity
  _atom_site_fract_x
  _atom_site_fract_y
  _atom_site_fract_z
  _atom_site_occupancy
  F   F1        1.0  0.4751141667366028  0.1915750503540039  0.8531179428100586  1.0000
  F   F2        1.0  0.4862225353717804  0.752355694770813  0.5770167708396912  1.0000
  Ho  Ho1       1.0  0.26157107949256897  0.5423028469085693  0.0706259086728096  1.0000
  Ho  Ho2       1.0  0.24973221123218536  0.6944901347160339  0.7383309602737427  1.0000
  Ho  Ho3       1.0  0.9973881244659424  0.06268628686666489  0.5638726949691772  1.0000
  Ho  Ho4       1.0  0.00025460775941610336  0.7067808508872986  0.19057087600231176  1.0000
  Tb  Tb1       1.0  0.013545735739171505  0.1954515427350998  0.5830085873603821  1.0000
  Zr  Zr1       1.0  0.7517069578170776  0.8936593532562256  0.3930566310882569  1.0000
  Zr  Zr2       1.0  0.7511406540870667  0.38415804505348206  0.7766554951667786  1.0000
