data_image0
_chemical_formula_structural       FHo4Tb3Zr
_chemical_formula_sum              "F1 Ho4 Tb3 Zr1"
_cell_length_a       5.362047463599578
_cell_length_b       6.544460162744157
_cell_length_c       6.74967622756958
_cell_angle_alpha    121.30733932948847
_cell_angle_beta     91.21074013125153
_cell_angle_gamma    90.10031502530065

_space_group_name_H-M_alt    "P 1"
_space_group_IT_number       1

loop_
  _space_group_symop_operation_xyz
  'x, y, z'

loop_
  _atom_site_type_symbol
  _atom_site_label
  _atom_site_symmetry_multiplicity
  _atom_site_fract_x
  _atom_site_fract_y
  _atom_site_fract_z
  _atom_site_occupancy
  F   F1        1.0  0.3633992373943329  0.5550693273544312  0.691649317741394  1.0000
  Ho  Ho1       1.0  0.6210976243019104  0.974770724773407  0.6887515783309937  1.0000
  Ho  Ho2       1.0  0.13604679703712463  0.1826115846633911  0.2563188970088959  1.0000
  Ho  Ho3       1.0  0.13291217386722565  0.9419471621513367  0.9713597297668457  1.0000
  Ho  Ho4       1.0  0.8782743811607361  0.9408949613571167  0.4531489312648773  1.0000
  Tb  Tb1       1.0  0.6344516277313232  0.5195286273956299  0.17399725317955017  1.0000
  Tb  Tb2       1.0  0.8688441514968872  0.4298241138458252  0.4134736955165863  1.0000
  Tb  Tb3       1.0  0.7536287307739258  0.41933977603912354  0.25561514496803284  1.0000
  Zr  Zr1       1.0  0.6270546317100525  0.9364579916000366  0.9447267055511475  1.0000
