data_image0
_chemical_formula_structural       FHo4OPtTb2
_chemical_formula_sum              "F1 Ho4 O1 Pt1 Tb2"
_cell_length_a       4.8446572136279
_cell_length_b       6.447996148468002
_cell_length_c       6.745604991912842
_cell_angle_alpha    116.26131534943823
_cell_angle_beta     98.80490591445759
_cell_angle_gamma    89.93025525651836

_space_group_name_H-M_alt    "P 1"
_space_group_IT_number       1

loop_
  _space_group_symop_operation_xyz
  'x, y, z'

loop_
  _atom_site_type_symbol
  _atom_site_label
  _atom_site_symmetry_multiplicity
  _atom_site_fract_x
  _atom_site_fract_y
  _atom_site_fract_z
  _atom_site_occupancy
  F   F1        1.0  0.9596080183982849  0.5937535166740417  0.37164580821990967  1.0000
  Ho  Ho1       1.0  0.3652801811695099  0.34605979919433594  0.8732716441154479  1.0000
  Ho  Ho2       1.0  0.9717978239059448  0.08575519174337387  0.1114295870065689  1.0000
  Ho  Ho3       1.0  0.9696687459945679  0.031016234308481216  0.2550331652164459  1.0000
  Ho  Ho4       1.0  0.47582870721817017  0.009406470693647861  0.4535530805587768  1.0000
  O   O1        1.0  0.3481544852256775  0.6106410622596741  0.8944470286369323  1.0000
  Pt  Pt1       1.0  0.48341134190559387  0.2720800042152405  0.44713220000267023  1.0000
  Tb  Tb1       1.0  0.35982033610343933  0.6034390926361084  0.8696030378341674  1.0000
  Tb  Tb2       1.0  0.8666961193084717  0.6000319719314575  0.8794183135032653  1.0000
