data_image0
_chemical_formula_structural       CClK3NPt3
_chemical_formula_sum              "C1 Cl1 K3 N1 Pt3"
_cell_length_a       4.049706535632876
_cell_length_b       5.073664255230334
_cell_length_c       10.286993026733398
_cell_angle_alpha    94.86578521140211
_cell_angle_beta     92.42476106325228
_cell_angle_gamma    90.43277197721083

_space_group_name_H-M_alt    "P 1"
_space_group_IT_number       1

loop_
  _space_group_symop_operation_xyz
  'x, y, z'

loop_
  _atom_site_type_symbol
  _atom_site_label
  _atom_site_symmetry_multiplicity
  _atom_site_fract_x
  _atom_site_fract_y
  _atom_site_fract_z
  _atom_site_occupancy
  C   C1        1.0  0.5173626542091369  0.4171763062477111  0.8850694894790649  1.0000
  Cl  Cl1       1.0  0.3623271882534027  0.9979869127273558  0.6620680689811707  1.0000
  K   K1        1.0  0.32959070801734924  0.7538156509399414  0.33919432759284973  1.0000
  K   K2        1.0  0.8659064769744873  0.42660570144653315  0.23007288575172424  1.0000
  K   K3        1.0  0.35443347692489624  0.263350248336792  0.10378426313400269  1.0000
  N   N1        1.0  0.3290821313858032  0.26679864525794983  0.34780749678611755  1.0000
  Pt  Pt1       1.0  0.8468130826950073  0.8932808637619017  0.11102230846881866  1.0000
  Pt  Pt2       1.0  0.8285296559333801  0.7471448183059692  0.2502995729446411  1.0000
  Pt  Pt3       1.0  0.3597133755683899  0.2475362569093704  0.8289983272552488  1.0000
