data_image0
_chemical_formula_structural       HO4P3PbRuZr4
_chemical_formula_sum              "H1 O4 P3 Pb1 Ru1 Zr4"
_cell_length_a       6.103490084983994
_cell_length_b       6.4075539332523155
_cell_length_c       7.610702991485596
_cell_angle_alpha    79.01929265535517
_cell_angle_beta     68.81011874822333
_cell_angle_gamma    62.85686938394789

_space_group_name_H-M_alt    "P 1"
_space_group_IT_number       1

loop_
  _space_group_symop_operation_xyz
  'x, y, z'

loop_
  _atom_site_type_symbol
  _atom_site_label
  _atom_site_symmetry_multiplicity
  _atom_site_fract_x
  _atom_site_fract_y
  _atom_site_fract_z
  _atom_site_occupancy
  H   H1        1.0  0.296724408864975  0.023794878274202347  0.2114163041114807  1.0000
  O   O1        1.0  0.7872245907783508  0.27752724289894104  0.4951750338077545  1.0000
  O   O2        1.0  0.47710534930229187  0.5865195989608765  0.22095684707164764  1.0000
  O   O3        1.0  0.29531142115592957  0.6464324593544006  0.26315248012542725  1.0000
  O   O4        1.0  0.9658952951431274  0.24519231915473938  0.18878722190856934  1.0000
  P   P1        1.0  0.9603753089904785  0.4793611168861389  0.24905438721179962  1.0000
  P   P2        1.0  0.5330451130867004  0.728022575378418  0.02675260603427887  1.0000
  P   P3        1.0  0.7965164184570312  0.5565962195396423  0.20023460686206818  1.0000
  Pb  Pb1       1.0  0.4684237539768219  0.5640498399734497  0.2677784264087677  1.0000
  Ru  Ru1       1.0  0.5940728187561035  0.7706671357154846  0.5267752408981323  1.0000
  Zr  Zr1       1.0  0.22078925371170044  0.5423562526702881  0.5377744436264038  1.0000
  Zr  Zr2       1.0  0.5967853665351868  0.4543086290359497  0.4813185930252075  1.0000
  Zr  Zr3       1.0  0.05424981936812401  0.08253805339336395  0.036984462291002274  1.0000
  Zr  Zr4       1.0  0.3265426456928253  0.5951894521713257  0.1351344585418701  1.0000
