data_image0
_chemical_formula_structural       BrFHI2O3PrScSi2TbZr
_chemical_formula_sum              "Br1 F1 H1 I2 O3 Pr1 Sc1 Si2 Tb1 Zr1"
_cell_length_a       6.144317604590429
_cell_length_b       6.66524170120087
_cell_length_c       6.775404453277588
_cell_angle_alpha    51.55460818041441
_cell_angle_beta     51.216755014359144
_cell_angle_gamma    63.63752264265566

_space_group_name_H-M_alt    "P 1"
_space_group_IT_number       1

loop_
  _space_group_symop_operation_xyz
  'x, y, z'

loop_
  _atom_site_type_symbol
  _atom_site_label
  _atom_site_symmetry_multiplicity
  _atom_site_fract_x
  _atom_site_fract_y
  _atom_site_fract_z
  _atom_site_occupancy
  Br  Br1       1.0  0.5118489265441895  0.7991980910301208  0.7103190422058104  1.0000
  F   F1        1.0  0.9002487063407898  0.6605309247970581  0.37604627013206476  1.0000
  H   H1        1.0  0.2111901193857193  0.3697645366191864  0.6403135061264038  1.0000
  I   I1        1.0  0.8152585625648499  0.8928108811378479  0.0006143517093732543  1.0000
  I   I2        1.0  0.3452272117137909  0.00904501136392355  0.5347787737846372  1.0000
  O   O1        1.0  0.18514536321163177  0.9665941596031189  0.11271498352289198  1.0000
  O   O2        1.0  0.5518625974655151  0.4471903145313263  0.550078272819519  1.0000
  O   O3        1.0  0.9129103422164917  0.03145581856369972  0.13947734236717224  1.0000
  Pr  Pr1       1.0  0.6021774411201477  0.08363234996795654  0.310527205467224  1.0000
  Sc  Sc1       1.0  0.8389906287193298  0.8554485440254211  0.12945640087127686  1.0000
  Si  Si1       1.0  0.5061005353927612  0.869118332862854  0.5738579630851746  1.0000
  Si  Si2       1.0  0.5654235482215881  0.6161962151527405  0.7317774295806884  1.0000
  Tb  Tb1       1.0  0.2987349331378937  0.32811757922172546  0.6771985888481139  1.0000
  Zr  Zr1       1.0  0.0947234258055687  0.06895624101161957  0.7785564661026  1.0000
