data_image0
_chemical_formula_structural       DyHIIrLi2O3P2SrTbZr
_chemical_formula_sum              "Dy1 H1 I1 Ir1 Li2 O3 P2 Sr1 Tb1 Zr1"
_cell_length_a       5.456150992704393
_cell_length_b       6.494834000397287
_cell_length_c       7.558156490325928
_cell_angle_alpha    117.55328565434152
_cell_angle_beta     93.2149991295372
_cell_angle_gamma    108.36127389467468

_space_group_name_H-M_alt    "P 1"
_space_group_IT_number       1

loop_
  _space_group_symop_operation_xyz
  'x, y, z'

loop_
  _atom_site_type_symbol
  _atom_site_label
  _atom_site_symmetry_multiplicity
  _atom_site_fract_x
  _atom_site_fract_y
  _atom_site_fract_z
  _atom_site_occupancy
  Dy  Dy1       1.0  0.4584799110889435  0.9958035349845886  0.12747004628181452  1.0000
  H   H1        1.0  0.46582499146461487  0.6302067637443542  0.6245831847190857  1.0000
  I   I1        1.0  0.946561872959137  0.9971540570259094  0.8689133524894714  1.0000
  Ir  Ir1       1.0  0.2017943412065506  0.7192569971084595  0.7701137065887451  1.0000
  Li  Li1       1.0  0.28466159105300903  0.6320695877075195  0.9599964618682861  1.0000
  Li  Li2       1.0  0.9684410095214844  0.8872886896133423  0.17584413290023804  1.0000
  O   O1        1.0  0.6465893387794495  0.1611437350511551  0.03637931868433952  1.0000
  O   O2        1.0  0.906164824962616  0.7473574280738831  0.6676146388053894  1.0000
  O   O3        1.0  0.7475190162658691  0.27709731459617615  0.26958975195884705  1.0000
  P   P1        1.0  0.937933623790741  0.894804060459137  0.6442459225654602  1.0000
  P   P2        1.0  0.9807301163673401  0.3326404392719269  0.06306630373001096  1.0000
  Sr  Sr1       1.0  0.3974587023258209  0.6183333396911621  0.7055292129516602  1.0000
  Tb  Tb1       1.0  0.14514870941638947  0.9110535979270935  0.6536166667938232  1.0000
  Zr  Zr1       1.0  0.9806917309761047  0.4323330521583557  0.029613733291625945  1.0000
