data_image0
_chemical_formula_structural       B3CaO6RuScSnZr
_chemical_formula_sum              "B3 Ca1 O6 Ru1 Sc1 Sn1 Zr1"
_cell_length_a       5.448729211505972
_cell_length_b       5.198918889117665
_cell_length_c       6.480453014373779
_cell_angle_alpha    94.65696883042642
_cell_angle_beta     89.9855506434903
_cell_angle_gamma    89.8448386260063

_space_group_name_H-M_alt    "P 1"
_space_group_IT_number       1

loop_
  _space_group_symop_operation_xyz
  'x, y, z'

loop_
  _atom_site_type_symbol
  _atom_site_label
  _atom_site_symmetry_multiplicity
  _atom_site_fract_x
  _atom_site_fract_y
  _atom_site_fract_z
  _atom_site_occupancy
  B   B1        1.0  0.5853265523910522  0.15677355229854584  0.14985255897045135  1.0000
  B   B2        1.0  0.2441496104001999  0.8263404369354248  0.1182313859462738  1.0000
  B   B3        1.0  0.22164224088191986  0.5704214572906494  0.9213535189628601  1.0000
  Ca  Ca1       1.0  0.8800164461135864  0.33721891045570374  0.3859807848930359  1.0000
  O   O1        1.0  0.737200915813446  0.03778329864144325  0.16837178170681  1.0000
  O   O2        1.0  0.2134447544813156  0.7269587516784668  0.5645059943199158  1.0000
  O   O3        1.0  0.24796375632286072  0.5311883091926575  0.7820765376091003  1.0000
  O   O4        1.0  0.2559686601161957  0.4808872342109681  0.8780170679092407  1.0000
  O   O5        1.0  0.4404301047325134  0.22353440523147583  0.34232237935066223  1.0000
  O   O6        1.0  0.6495721936225891  0.8969887495040894  0.9809718132019043  1.0000
  Ru  Ru1       1.0  0.5999873876571655  0.8467784523963928  0.3509976863861084  1.0000
  Sc  Sc1       1.0  0.2512398958206177  0.7026903033256531  0.8384091258049011  1.0000
  Sn  Sn1       1.0  0.659492015838623  0.5314123630523682  0.6575763821601868  1.0000
  Zr  Zr1       1.0  0.08732102066278458  0.07276958972215652  0.13056330382823944  1.0000
