data_image0
_chemical_formula_structural       Al2AsBrIO3PrScYbZr3
_chemical_formula_sum              "Al2 As1 Br1 I1 O3 Pr1 Sc1 Yb1 Zr3"
_cell_length_a       4.7958829782189945
_cell_length_b       6.439429725796845
_cell_length_c       7.736569404602051
_cell_angle_alpha    122.14819899693238
_cell_angle_beta     90.61827749752302
_cell_angle_gamma    86.40913428874704

_space_group_name_H-M_alt    "P 1"
_space_group_IT_number       1

loop_
  _space_group_symop_operation_xyz
  'x, y, z'

loop_
  _atom_site_type_symbol
  _atom_site_label
  _atom_site_symmetry_multiplicity
  _atom_site_fract_x
  _atom_site_fract_y
  _atom_site_fract_z
  _atom_site_occupancy
  Al  Al1       1.0  0.13511042296886444  0.3201988935470581  0.3909990787506103  1.0000
  Al  Al2       1.0  0.14220453798770905  0.11617006361484528  0.9580447673797606  1.0000
  As  As1       1.0  0.1381579339504242  0.40807098150253296  0.4991072714328765  1.0000
  Br  Br1       1.0  0.6490705609321594  0.4476239085197449  0.44361999630928034  1.0000
  I   I1        1.0  0.6361346244812012  0.8221648335456848  0.3606416881084441  1.0000
  O   O1        1.0  0.6385083794593811  0.6433535218238831  0.29943761229515065  1.0000
  O   O2        1.0  0.620682954788208  0.855060338973999  0.6178556084632874  1.0000
  O   O3        1.0  0.12490104883909225  0.32801973819732666  0.8677867054939269  1.0000
  Pr  Pr1       1.0  0.6410666108131409  0.4756230115890503  0.32566976547241205  1.0000
  Sc  Sc1       1.0  0.6386998295783997  0.4899057149887085  0.9008911252021788  1.0000
  Yb  Yb1       1.0  0.6443489193916321  0.12194660305976868  0.7243400216102599  1.0000
  Zr  Zr1       1.0  0.14057102799415588  0.7703140377998352  0.2740965187549591  1.0000
  Zr  Zr2       1.0  0.6426358222961426  0.45223742723464966  0.5279136300086975  1.0000
  Zr  Zr3       1.0  0.1503538340330124  0.3643519878387451  0.043833632022142376  1.0000
