data_image0
_chemical_formula_structural       B4BrO5PrSc2Zr
_chemical_formula_sum              "B4 Br1 O5 Pr1 Sc2 Zr1"
_cell_length_a       6.1341586066715035
_cell_length_b       5.720564075012999
_cell_length_c       5.955215930938721
_cell_angle_alpha    62.04442770907619
_cell_angle_beta     64.78833733294731
_cell_angle_gamma    65.19642067958793

_space_group_name_H-M_alt    "P 1"
_space_group_IT_number       1

loop_
  _space_group_symop_operation_xyz
  'x, y, z'

loop_
  _atom_site_type_symbol
  _atom_site_label
  _atom_site_symmetry_multiplicity
  _atom_site_fract_x
  _atom_site_fract_y
  _atom_site_fract_z
  _atom_site_occupancy
  B   B1        1.0  0.5086134076118469  0.936526894569397  0.0057427240535616875  1.0000
  B   B2        1.0  0.9659644365310669  0.771477222442627  0.059457667171955116  1.0000
  B   B3        1.0  0.6868783235549927  0.6568621397018433  0.10201063752174377  1.0000
  B   B4        1.0  0.8471838235855103  0.32826194167137146  0.7789503335952759  1.0000
  Br  Br1       1.0  0.993770956993103  0.16581980884075165  0.9837998151779176  1.0000
  O   O1        1.0  0.4645230770111084  0.4444596767425537  0.8564549684524536  1.0000
  O   O2        1.0  0.957795262336731  0.2850964665412903  0.1053178533911705  1.0000
  O   O3        1.0  0.4645622670650482  0.6720811128616333  0.9810209274291993  1.0000
  O   O4        1.0  0.9542773962020874  0.4742562770843506  0.5710001587867737  1.0000
  O   O5        1.0  0.9529739022254944  0.18701770901679993  0.964804232120514  1.0000
  Pr  Pr1       1.0  0.2243734747171402  0.5849387049674988  0.6320576667785645  1.0000
  Sc  Sc1       1.0  0.42895832657814026  0.6980140805244446  0.601203203201294  1.0000
  Sc  Sc2       1.0  0.2206764817237854  0.8801711201667786  0.6491633653640747  1.0000
  Zr  Zr1       1.0  0.9949209094047546  0.5474533438682556  0.9640493988990785  1.0000
