data_image0
_chemical_formula_structural       Ba5HIPbZnZr
_chemical_formula_sum              "Ba5 H1 I1 Pb1 Zn1 Zr1"
_cell_length_a       6.144556534357209
_cell_length_b       6.245762606751699
_cell_length_c       7.389533996582031
_cell_angle_alpha    70.3915574501726
_cell_angle_beta     68.60936666667781
_cell_angle_gamma    72.87960466164694

_space_group_name_H-M_alt    "P 1"
_space_group_IT_number       1

loop_
  _space_group_symop_operation_xyz
  'x, y, z'

loop_
  _atom_site_type_symbol
  _atom_site_label
  _atom_site_symmetry_multiplicity
  _atom_site_fract_x
  _atom_site_fract_y
  _atom_site_fract_z
  _atom_site_occupancy
  Ba  Ba1       1.0  0.6022307276725769  0.5728305578231812  0.12754115462303162  1.0000
  Ba  Ba2       1.0  0.08834097534418106  0.9632104635238647  0.13265326619148254  1.0000
  Ba  Ba3       1.0  0.578565776348114  0.007888696156442165  0.3946361839771271  1.0000
  Ba  Ba4       1.0  0.391408234834671  0.5936009883880615  0.7530016899108887  1.0000
  Ba  Ba5       1.0  0.08303897827863693  0.7885165810585022  0.969664990901947  1.0000
  H   H1        1.0  0.6056696176528931  0.27273988723754883  0.9666652083396912  1.0000
  I   I1        1.0  0.5901540517807007  0.7322224378585815  0.5240108370780945  1.0000
  Pb  Pb1       1.0  0.11328388005495071  0.24483151733875275  0.2190963625907898  1.0000
  Zn  Zn1       1.0  0.08623717725276947  0.7673797011375427  0.38287800550460815  1.0000
  Zr  Zr1       1.0  0.5913476347923279  0.20134232938289642  0.8846209645271301  1.0000
