data_image0
_chemical_formula_structural       Ba4DyIO2PSb
_chemical_formula_sum              "Ba4 Dy1 I1 O2 P1 Sb1"
_cell_length_a       5.127833235082293
_cell_length_b       5.2788550542908785
_cell_length_c       9.432456970214844
_cell_angle_alpha    90.2021458766778
_cell_angle_beta     89.8139019959673
_cell_angle_gamma    110.59952855349009

_space_group_name_H-M_alt    "P 1"
_space_group_IT_number       1

loop_
  _space_group_symop_operation_xyz
  'x, y, z'

loop_
  _atom_site_type_symbol
  _atom_site_label
  _atom_site_symmetry_multiplicity
  _atom_site_fract_x
  _atom_site_fract_y
  _atom_site_fract_z
  _atom_site_occupancy
  Ba  Ba1       1.0  0.30452778935432434  0.6321197748184204  0.9003111124038696  1.0000
  Ba  Ba2       1.0  0.8392539620399475  0.03195856139063835  0.18990865349769592  1.0000
  Ba  Ba3       1.0  0.8388417959213257  0.01787000149488449  0.10611657053232193  1.0000
  Ba  Ba4       1.0  0.6553394198417664  0.05367667227983475  0.5040137767791748  1.0000
  Dy  Dy1       1.0  0.6439323425292969  0.1844022572040558  0.3641042709350586  1.0000
  I   I1        1.0  0.17103835940361023  0.40466469526290894  0.11271202564239502  1.0000
  O   O1        1.0  0.692642867565155  0.352385550737381  0.8794533014297485  1.0000
  O   O2        1.0  0.8434916734695435  0.7148951888084412  0.33940985798835754  1.0000
  P   P1        1.0  0.15273664891719818  0.23762866854667664  0.4117265045642853  1.0000
  Sb  Sb1       1.0  0.17364215850830078  0.9541557431221008  0.9502611756324768  1.0000
