data_image0
_chemical_formula_structural       Ba5O3PPd
_chemical_formula_sum              "Ba5 O3 P1 Pd1"
_cell_length_a       6.107075934601341
_cell_length_b       6.7922635668943805
_cell_length_c       7.267241477966309
_cell_angle_alpha    73.56181429044683
_cell_angle_beta     64.62389938917904
_cell_angle_gamma    56.099863612068944

_space_group_name_H-M_alt    "P 1"
_space_group_IT_number       1

loop_
  _space_group_symop_operation_xyz
  'x, y, z'

loop_
  _atom_site_type_symbol
  _atom_site_label
  _atom_site_symmetry_multiplicity
  _atom_site_fract_x
  _atom_site_fract_y
  _atom_site_fract_z
  _atom_site_occupancy
  Ba  Ba1       1.0  0.5127708911895752  0.11160955578088759  0.6736288070678711  1.0000
  Ba  Ba2       1.0  0.6024531722068787  0.7388294339179993  0.4329839050769807  1.0000
  Ba  Ba3       1.0  0.0018788567977026205  0.8232598304748535  0.23224475979804993  1.0000
  Ba  Ba4       1.0  0.7644160389900208  0.8895767331123351  0.6444962620735168  1.0000
  Ba  Ba5       1.0  0.29103657603263855  0.7975088953971863  0.4604127407073975  1.0000
  O   O1        1.0  0.17741276323795319  0.4079437553882599  0.7866625785827638  1.0000
  O   O2        1.0  0.4115975499153137  0.6522931456565857  0.0389375202357769  1.0000
  O   O3        1.0  0.904253363609314  0.6741237640380859  0.40417820215225225  1.0000
  P   P1        1.0  0.4819682240486145  0.17586085200309753  0.9199723005294801  1.0000
  Pd  Pd1       1.0  0.09572762995958328  0.797844409942627  0.08677644282579422  1.0000
