data_image0
_chemical_formula_structural       Ba6O3Pd
_chemical_formula_sum              "Ba6 O3 Pd1"
_cell_length_a       6.372264071848861
_cell_length_b       6.0042953416774925
_cell_length_c       10.090790748596191
_cell_angle_alpha    110.1208755845294
_cell_angle_beta     98.93009347611714
_cell_angle_gamma    87.83750383191526

_space_group_name_H-M_alt    "P 1"
_space_group_IT_number       1

loop_
  _space_group_symop_operation_xyz
  'x, y, z'

loop_
  _atom_site_type_symbol
  _atom_site_label
  _atom_site_symmetry_multiplicity
  _atom_site_fract_x
  _atom_site_fract_y
  _atom_site_fract_z
  _atom_site_occupancy
  Ba  Ba1       1.0  0.9088451266288757  0.17357753217220306  0.8969030976295471  1.0000
  Ba  Ba2       1.0  0.4127831757068634  0.3165874481201172  0.22753161191940305  1.0000
  Ba  Ba3       1.0  0.9133923649787903  0.8359876275062561  0.2952669560909271  1.0000
  Ba  Ba4       1.0  0.9101437330245972  0.0680282786488533  0.9851933121681212  1.0000
  Ba  Ba5       1.0  0.40902185440063477  0.7410867810249329  0.8959975838661194  1.0000
  Ba  Ba6       1.0  0.4090539515018463  0.5996272563934326  0.04289524257183072  1.0000
  O   O1        1.0  0.9920127987861633  0.3063472807407379  0.6755470037460327  1.0000
  O   O2        1.0  0.41149309277534485  0.4540868401527405  0.5324905514717102  1.0000
  O   O3        1.0  0.7838875651359558  0.11872619390487671  0.11499520391225813  1.0000
  Pd  Pd1       1.0  0.41443923115730286  0.30623582005500793  0.2821385860443115  1.0000
