data_image0
_chemical_formula_structural       Ba5O4Ti
_chemical_formula_sum              "Ba5 O4 Ti1"
_cell_length_a       4.9400924505747215
_cell_length_b       3.2800506891545758
_cell_length_c       8.485430717468262
_cell_angle_alpha    74.69628707107964
_cell_angle_beta     81.17234055884863
_cell_angle_gamma    15.58788737996945

_space_group_name_H-M_alt    "P 1"
_space_group_IT_number       1

loop_
  _space_group_symop_operation_xyz
  'x, y, z'

loop_
  _atom_site_type_symbol
  _atom_site_label
  _atom_site_symmetry_multiplicity
  _atom_site_fract_x
  _atom_site_fract_y
  _atom_site_fract_z
  _atom_site_occupancy
  Ba  Ba1       1.0  0.9759520292282103  0.48553606867790217  0.7094219923019409  1.0000
  Ba  Ba2       1.0  0.19362621009349823  0.2607274651527405  0.9002687931060792  1.0000
  Ba  Ba3       1.0  0.2546728849411011  0.166119784116745  0.7368184328079224  1.0000
  Ba  Ba4       1.0  0.12010934203863143  0.7303479313850403  0.7397201657295227  1.0000
  Ba  Ba5       1.0  0.13052472472190857  0.031076926738023754  0.773279070854187  1.0000
  O   O1        1.0  0.543153703212738  0.33401063084602356  0.1498427838087082  1.0000
  O   O2        1.0  0.5165303349494934  0.7340560555458069  0.3925360143184662  1.0000
  O   O3        1.0  0.48478937149047846  0.43294334411621094  0.21435298025608063  1.0000
  O   O4        1.0  0.7043840885162354  0.6749749779701233  0.747556746006012  1.0000
  Ti  Ti1       1.0  0.9505765438079833  0.9365475177764891  0.9280220866203308  1.0000
