data_image0
_chemical_formula_structural       Ba7O3
_chemical_formula_sum              "Ba7 O3"
_cell_length_a       5.474990608075109
_cell_length_b       4.9235180323951955
_cell_length_c       8.712315559387207
_cell_angle_alpha    92.9898195100332
_cell_angle_beta     89.56134107202294
_cell_angle_gamma    81.41237779428751

_space_group_name_H-M_alt    "P 1"
_space_group_IT_number       1

loop_
  _space_group_symop_operation_xyz
  'x, y, z'

loop_
  _atom_site_type_symbol
  _atom_site_label
  _atom_site_symmetry_multiplicity
  _atom_site_fract_x
  _atom_site_fract_y
  _atom_site_fract_z
  _atom_site_occupancy
  Ba  Ba1       1.0  0.7466341257095337  0.15113921463489532  0.6873993873596191  1.0000
  Ba  Ba2       1.0  0.7582705020904541  0.2418929487466812  0.8556995391845703  1.0000
  Ba  Ba3       1.0  0.25563475489616394  0.5208648443222046  0.3430384695529938  1.0000
  Ba  Ba4       1.0  0.21202513575553894  0.6748560070991516  0.29185202717781067  1.0000
  Ba  Ba5       1.0  0.7591965794563293  0.6493415832519531  0.09346593916416168  1.0000
  Ba  Ba6       1.0  0.7268576622009277  0.6718743443489075  0.9911240339279175  1.0000
  Ba  Ba7       1.0  0.26494789123535156  0.7604013085365295  0.677919864654541  1.0000
  O   O1        1.0  0.7606474161148071  0.13462994992733002  0.3741822838783264  1.0000
  O   O2        1.0  0.22239604592323303  0.14340385794639587  0.2692403793334961  1.0000
  O   O3        1.0  0.2549576759338379  0.10276807099580765  0.01600693166255951  1.0000
