data_image0
_chemical_formula_structural       ClPSb6Sr
_chemical_formula_sum              "Cl1 P1 Sb6 Sr1"
_cell_length_a       4.902719953340619
_cell_length_b       6.812416245508847
_cell_length_c       7.389415264129639
_cell_angle_alpha    96.23990903246845
_cell_angle_beta     89.7783210354414
_cell_angle_gamma    89.04208132452568

_space_group_name_H-M_alt    "P 1"
_space_group_IT_number       1

loop_
  _space_group_symop_operation_xyz
  'x, y, z'

loop_
  _atom_site_type_symbol
  _atom_site_label
  _atom_site_symmetry_multiplicity
  _atom_site_fract_x
  _atom_site_fract_y
  _atom_site_fract_z
  _atom_site_occupancy
  Cl  Cl1       1.0  0.3819893002510071  0.10751619935035706  0.394082635641098  1.0000
  P   P1        1.0  0.918146252632141  0.5903683304786682  0.7322998046875  1.0000
  Sb  Sb1       1.0  0.3940993547439575  0.4394080638885498  0.7296210527420044  1.0000
  Sb  Sb2       1.0  0.41519081592559814  0.1430414617061615  0.49457091093063354  1.0000
  Sb  Sb3       1.0  0.9193916916847228  0.9024526476860046  0.29684680700302124  1.0000
  Sb  Sb4       1.0  0.892729103565216  0.3775475323200226  0.4314446747303009  1.0000
  Sb  Sb5       1.0  0.9078604578971862  0.4379315972328186  0.9253246188163757  1.0000
  Sb  Sb6       1.0  0.41794198751449585  0.9897100329399109  0.22735874354839325  1.0000
  Sr  Sr1       1.0  0.9324021339416503  0.7551283836364746  0.028465621173381805  1.0000
