data_image0
_chemical_formula_structural       NdSb5Sr3
_chemical_formula_sum              "Nd1 Sb5 Sr3"
_cell_length_a       5.990818716257915
_cell_length_b       9.256642305700533
_cell_length_c       9.154483795166016
_cell_angle_alpha    117.82704391870473
_cell_angle_beta     88.71665316490498
_cell_angle_gamma    89.43705334664136

_space_group_name_H-M_alt    "P 1"
_space_group_IT_number       1

loop_
  _space_group_symop_operation_xyz
  'x, y, z'

loop_
  _atom_site_type_symbol
  _atom_site_label
  _atom_site_symmetry_multiplicity
  _atom_site_fract_x
  _atom_site_fract_y
  _atom_site_fract_z
  _atom_site_occupancy
  Nd  Nd1       1.0  0.7133788466453552  0.4511166512966156  0.16437043249607083  1.0000
  Sb  Sb1       1.0  0.45748671889305115  0.9328792095184326  0.4623486399650574  1.0000
  Sb  Sb2       1.0  0.21115973591804504  0.42963749170303345  0.7336834669113158  1.0000
  Sb  Sb3       1.0  0.7104945778846741  0.6472784876823425  0.5376597046852112  1.0000
  Sb  Sb4       1.0  0.21622192859649658  0.12506498396396637  0.6274063587188721  1.0000
  Sb  Sb5       1.0  0.21552325785160065  0.43842554092407227  0.09743587672710419  1.0000
  Sr  Sr1       1.0  0.20862507820129395  0.02862401306629181  0.8858373165130615  1.0000
  Sr  Sr2       1.0  0.7077248692512512  0.14608828723430634  0.5891926288604736  1.0000
  Sr  Sr3       1.0  0.7212220430374146  0.6520538926124573  0.6526098251342773  1.0000
