data_image0
_chemical_formula_structural       Sb4Sr4Tl
_chemical_formula_sum              "Sb4 Sr4 Tl1"
_cell_length_a       5.525873498776516
_cell_length_b       7.3820284035199535
_cell_length_c       7.344770431518555
_cell_angle_alpha    118.21460775527622
_cell_angle_beta     90.37609470032963
_cell_angle_gamma    88.9134333423505

_space_group_name_H-M_alt    "P 1"
_space_group_IT_number       1

loop_
  _space_group_symop_operation_xyz
  'x, y, z'

loop_
  _atom_site_type_symbol
  _atom_site_label
  _atom_site_symmetry_multiplicity
  _atom_site_fract_x
  _atom_site_fract_y
  _atom_site_fract_z
  _atom_site_occupancy
  Sb  Sb1       1.0  0.11973802000284195  0.12924839556217194  0.23262408375740048  1.0000
  Sb  Sb2       1.0  0.6210648417472839  0.417426198720932  0.7289111614227295  1.0000
  Sb  Sb3       1.0  0.6245458126068115  0.8840301632881165  0.9717119932174682  1.0000
  Sb  Sb4       1.0  0.12452670931816101  0.42532896995544434  0.8992501497268676  1.0000
  Sr  Sr1       1.0  0.611386775970459  0.936859667301178  0.47191557288169844  1.0000
  Sr  Sr2       1.0  0.6371080875396729  0.1644079089164734  0.5607206225395203  1.0000
  Sr  Sr3       1.0  0.61285799741745  0.9215351343154907  0.12903079390525812  1.0000
  Sr  Sr4       1.0  0.6218420267105103  0.44254982471466064  0.4563561975955962  1.0000
  Tl  Tl1       1.0  0.12410468608140945  0.460893452167511  0.9027488231658933  1.0000
