data_image0
_chemical_formula_structural       PbSb3Sr3TcTe
_chemical_formula_sum              "Pb1 Sb3 Sr3 Tc1 Te1"
_cell_length_a       3.8915596335477836
_cell_length_b       6.955488912897078
_cell_length_c       8.441263198852539
_cell_angle_alpha    91.02950324946009
_cell_angle_beta     90.21706687997646
_cell_angle_gamma    88.91587317812406

_space_group_name_H-M_alt    "P 1"
_space_group_IT_number       1

loop_
  _space_group_symop_operation_xyz
  'x, y, z'

loop_
  _atom_site_type_symbol
  _atom_site_label
  _atom_site_symmetry_multiplicity
  _atom_site_fract_x
  _atom_site_fract_y
  _atom_site_fract_z
  _atom_site_occupancy
  Pb  Pb1       1.0  0.3578824996948242  0.025217611342668533  0.8370557427406311  1.0000
  Sb  Sb1       1.0  0.860331654548645  0.6275812983512878  0.5326470136642456  1.0000
  Sb  Sb2       1.0  0.8659830093383789  0.711014449596405  0.9462265968322754  1.0000
  Sb  Sb3       1.0  0.35838502645492554  0.32910439372062683  0.40579667687416077  1.0000
  Sr  Sr1       1.0  0.38347795605659485  0.11137802898883821  0.4801250696182251  1.0000
  Sr  Sr2       1.0  0.8706907033920288  0.3350358009338379  0.32909318804740906  1.0000
  Sr  Sr3       1.0  0.361184298992157  0.39930692315101624  0.2591145634651184  1.0000
  Tc  Tc1       1.0  0.8600535988807678  0.6547495126724243  0.4642621576786041  1.0000
  Te  Te1       1.0  0.35519903898239136  0.8154901266098022  0.778847336769104  1.0000
