data_image0
_chemical_formula_structural       Ca2Ge4HI2OP
_chemical_formula_sum              "Ca2 Ge4 H1 I2 O1 P1"
_cell_length_a       4.642940551619882
_cell_length_b       5.950410150340298
_cell_length_c       6.512360095977783
_cell_angle_alpha    108.2865986662457
_cell_angle_beta     91.68334467899628
_cell_angle_gamma    100.533057968087

_space_group_name_H-M_alt    "P 1"
_space_group_IT_number       1

loop_
  _space_group_symop_operation_xyz
  'x, y, z'

loop_
  _atom_site_type_symbol
  _atom_site_label
  _atom_site_symmetry_multiplicity
  _atom_site_fract_x
  _atom_site_fract_y
  _atom_site_fract_z
  _atom_site_occupancy
  Ca  Ca1       1.0  0.7721440196037292  0.31873297691345215  0.4528670608997345  1.0000
  Ca  Ca2       1.0  0.3045870065689087  0.058694057166576385  0.35152241587638855  1.0000
  Ge  Ge1       1.0  0.24218402802944183  0.6271656155586243  0.7491517663002014  1.0000
  Ge  Ge2       1.0  0.7278497219085693  0.5075686573982239  0.09020359814167023  1.0000
  Ge  Ge3       1.0  0.3306061625480652  0.52814120054245  0.36548852920532227  1.0000
  Ge  Ge4       1.0  0.7784243822097778  0.3527635633945465  0.8407109379768372  1.0000
  H   H1        1.0  0.4544214606285095  0.7632657885551453  0.6345207691192627  1.0000
  I   I1        1.0  0.6848782896995544  0.05083131417632103  0.7034932971000671  1.0000
  I   I2        1.0  0.9344199895858765  0.3131336569786072  0.8460677266120911  1.0000
  O   O1        1.0  0.2840040624141693  0.06890977919101715  0.8917204737663269  1.0000
  P   P1        1.0  0.19020098447799683  0.7809700965881348  0.45227858424186707  1.0000
