data_image0
_chemical_formula_structural       As2CaGe2I3P3
_chemical_formula_sum              "As2 Ca1 Ge2 I3 P3"
_cell_length_a       6.565129069768318
_cell_length_b       7.686596014860135
_cell_length_c       8.193201065063477
_cell_angle_alpha    119.73176408815272
_cell_angle_beta     99.52766292421417
_cell_angle_gamma    97.9652483838102

_space_group_name_H-M_alt    "P 1"
_space_group_IT_number       1

loop_
  _space_group_symop_operation_xyz
  'x, y, z'

loop_
  _atom_site_type_symbol
  _atom_site_label
  _atom_site_symmetry_multiplicity
  _atom_site_fract_x
  _atom_site_fract_y
  _atom_site_fract_z
  _atom_site_occupancy
  As  As1       1.0  0.6201274991035461  0.5938351154327393  0.1951700896024704  1.0000
  As  As2       1.0  0.4886873364448547  0.25983279943466187  0.36015811562538147  1.0000
  Ca  Ca1       1.0  0.1258644014596939  0.5305439829826355  0.7182693481445312  1.0000
  Ge  Ge1       1.0  0.1507270485162735  0.7695471048355103  0.9998032450675964  1.0000
  Ge  Ge2       1.0  0.6208133697509766  0.9117295145988464  0.0002238750457762588  1.0000
  I   I1        1.0  0.118327759206295  0.9693162441253662  0.8237245082855225  1.0000
  I   I2        1.0  0.8942255377769469  0.8212357759475708  0.08063499629497517  1.0000
  I   I3        1.0  0.6157251596450806  0.5900528430938721  0.4291009902954101  1.0000
  P   P1        1.0  0.16032829880714417  0.40019840002059937  0.6891022324562073  1.0000
  P   P2        1.0  0.46463689208030695  0.49034586548805237  0.8488819599151611  1.0000
  P   P3        1.0  0.19452200829982758  0.027298323810100555  0.5305271744728088  1.0000
