data_image0
_chemical_formula_structural       As5GeIP3V
_chemical_formula_sum              "As5 Ge1 I1 P3 V1"
_cell_length_a       5.929065329707974
_cell_length_b       6.097841823688884
_cell_length_c       9.927101135253906
_cell_angle_alpha    89.68215223398636
_cell_angle_beta     89.12130261986933
_cell_angle_gamma    118.65110116110581

_space_group_name_H-M_alt    "P 1"
_space_group_IT_number       1

loop_
  _space_group_symop_operation_xyz
  'x, y, z'

loop_
  _atom_site_type_symbol
  _atom_site_label
  _atom_site_symmetry_multiplicity
  _atom_site_fract_x
  _atom_site_fract_y
  _atom_site_fract_z
  _atom_site_occupancy
  As  As1       1.0  0.11342347413301468  0.9432830810546875  0.8877862095832825  1.0000
  As  As2       1.0  0.13459359109401703  0.8659428954124451  0.1644757241010666  1.0000
  As  As3       1.0  0.8031692504882812  0.4406328797340393  0.12580515444278717  1.0000
  As  As4       1.0  0.9639395475387573  0.9975643157958984  0.5588506460189819  1.0000
  As  As5       1.0  0.9267721176147461  0.0035025030374526978  0.12319784611463547  1.0000
  Ge  Ge1       1.0  0.35823649168014526  0.5898557305335999  0.6427145600318909  1.0000
  I   I1        1.0  0.29377076029777527  0.763308584690094  0.9170727133750916  1.0000
  P   P1        1.0  0.8240455985069275  0.7960305213928223  0.9324861764907837  1.0000
  P   P2        1.0  0.4789661765098572  0.6618531346321106  0.7543258666992188  1.0000
  P   P3        1.0  0.19415783882141113  0.9886536002159119  0.24278032779693604  1.0000
  V   V1        1.0  0.8818774819374084  0.4266674220561981  0.3577614426612854  1.0000
