data_image0
_chemical_formula_structural       As5CaGeIP2Pb
_chemical_formula_sum              "As5 Ca1 Ge1 I1 P2 Pb1"
_cell_length_a       4.376789648650819
_cell_length_b       8.495185378685296
_cell_length_c       8.773336410522461
_cell_angle_alpha    121.81345424647988
_cell_angle_beta     89.01543065474068
_cell_angle_gamma    89.58626932408866

_space_group_name_H-M_alt    "P 1"
_space_group_IT_number       1

loop_
  _space_group_symop_operation_xyz
  'x, y, z'

loop_
  _atom_site_type_symbol
  _atom_site_label
  _atom_site_symmetry_multiplicity
  _atom_site_fract_x
  _atom_site_fract_y
  _atom_site_fract_z
  _atom_site_occupancy
  As  As1       1.0  0.4642469882965088  0.4283591508865357  0.6449525356292725  1.0000
  As  As2       1.0  0.47279417514801025  0.41743248701095587  0.38907337188720703  1.0000
  As  As3       1.0  0.47202929854393005  0.8643267154693605  0.4997914731502533  1.0000
  As  As4       1.0  0.4675224721431732  0.8596131205558778  0.25242277979850763  1.0000
  As  As5       1.0  0.9769676327705383  0.577656626701355  0.6412944197654724  1.0000
  Ca  Ca1       1.0  0.4723609387874603  0.6837764382362367  0.5705526471138  1.0000
  Ge  Ge1       1.0  0.9745538830757141  0.6839512586593629  0.3465435206890106  1.0000
  I   I1        1.0  0.9715099930763245  0.34528321027755743  0.06174985691905022  1.0000
  P   P1        1.0  0.9791554808616638  0.6826586723327638  0.9400701522827148  1.0000
  P   P2        1.0  0.981587827205658  0.9408141374588014  0.033263564109802246  1.0000
  Pb  Pb1       1.0  0.4745030403137207  0.9000630974769593  0.6923849582672119  1.0000
