data_image0
_chemical_formula_structural       As6Ca3Ge2
_chemical_formula_sum              "As6 Ca3 Ge2"
_cell_length_a       5.1175196770278
_cell_length_b       4.515475404783844
_cell_length_c       8.148519515991211
_cell_angle_alpha    116.78611005090465
_cell_angle_beta     101.31766718381145
_cell_angle_gamma    137.141697041315

_space_group_name_H-M_alt    "P 1"
_space_group_IT_number       1

loop_
  _space_group_symop_operation_xyz
  'x, y, z'

loop_
  _atom_site_type_symbol
  _atom_site_label
  _atom_site_symmetry_multiplicity
  _atom_site_fract_x
  _atom_site_fract_y
  _atom_site_fract_z
  _atom_site_occupancy
  As  As1       1.0  0.6073033809661864  0.7916274070739745  0.2310107499361038  1.0000
  As  As2       1.0  0.7338189482688903  0.7153795957565307  0.44329443573951716  1.0000
  As  As3       1.0  0.21607904136180878  0.5186928510665894  0.4882274568080902  1.0000
  As  As4       1.0  0.9223525524139404  0.4136953651905059  0.4377167820930481  1.0000
  As  As5       1.0  0.1190089136362077  0.3627296984195711  0.957219123840332  1.0000
  As  As6       1.0  0.5475060939788818  0.9611859917640686  0.18422095477581021  1.0000
  Ca  Ca1       1.0  0.6066905260086058  0.0415978766977786  0.9224872589111328  1.0000
  Ca  Ca2       1.0  0.8016519546508787  0.7578931450843809  0.592742621898651  1.0000
  Ca  Ca3       1.0  0.5348713397979736  0.5065376162528992  0.9971904754638672  1.0000
  Ge  Ge1       1.0  0.27111238241195684  0.8466889858245851  0.7269645929336548  1.0000
  Ge  Ge2       1.0  0.6351806521415709  0.6893673539161681  0.3841103911399841  1.0000
