data_image0
_chemical_formula_structural       As5BCaGe3P
_chemical_formula_sum              "As5 B1 Ca1 Ge3 P1"
_cell_length_a       5.697765938660828
_cell_length_b       6.102978481582039
_cell_length_c       9.440163612365723
_cell_angle_alpha    113.44258215263662
_cell_angle_beta     100.65694348082607
_cell_angle_gamma    109.4431543307008

_space_group_name_H-M_alt    "P 1"
_space_group_IT_number       1

loop_
  _space_group_symop_operation_xyz
  'x, y, z'

loop_
  _atom_site_type_symbol
  _atom_site_label
  _atom_site_symmetry_multiplicity
  _atom_site_fract_x
  _atom_site_fract_y
  _atom_site_fract_z
  _atom_site_occupancy
  As  As1       1.0  0.9153262376785278  0.11381764709949493  0.7916620969772339  1.0000
  As  As2       1.0  0.8892560601234436  0.03883891925215721  0.1660124659538269  1.0000
  As  As3       1.0  0.8884294033050537  0.06594745069742203  0.04537634178996086  1.0000
  As  As4       1.0  0.603529691696167  0.229241281747818  0.31024011969566345  1.0000
  As  As5       1.0  0.33683279156684875  0.10731211304664612  0.3011949360370636  1.0000
  B   B1        1.0  0.3830527663230896  0.5831378102302551  0.944899618625641  1.0000
  Ca  Ca1       1.0  0.5477667450904846  0.2818729281425476  0.5211958289146423  1.0000
  Ge  Ge1       1.0  0.3950274884700775  0.7028688192367554  0.9092309474945068  1.0000
  Ge  Ge2       1.0  0.8891538381576538  0.07929105311632156  0.6088902354240417  1.0000
  Ge  Ge3       1.0  0.8996831774711609  0.7616923451423645  0.8335314989089966  1.0000
  P   P1        1.0  0.5758987665176392  0.041273124516010284  0.07849597185850143  1.0000
