data_image0
_chemical_formula_structural       BaClGa4Mg
_chemical_formula_sum              "Ba1 Cl1 Ga4 Mg1"
_cell_length_a       4.604975028959029
_cell_length_b       4.671288547080862
_cell_length_c       8.150418281555176
_cell_angle_alpha    94.46937676066617
_cell_angle_beta     100.70816401497729
_cell_angle_gamma    91.78069248470992

_space_group_name_H-M_alt    "P 1"
_space_group_IT_number       1

loop_
  _space_group_symop_operation_xyz
  'x, y, z'

loop_
  _atom_site_type_symbol
  _atom_site_label
  _atom_site_symmetry_multiplicity
  _atom_site_fract_x
  _atom_site_fract_y
  _atom_site_fract_z
  _atom_site_occupancy
  Ba  Ba1       1.0  0.23384356498718262  0.9495623707771301  0.4567321836948395  1.0000
  Cl  Cl1       1.0  0.2548386752605438  0.9549627304077148  0.20154236257076263  1.0000
  Ga  Ga1       1.0  0.8870186805725098  0.454153448343277  0.8651184439659119  1.0000
  Ga  Ga2       1.0  0.72017502784729  0.9546546339988708  0.35254570841789246  1.0000
  Ga  Ga3       1.0  0.23049163818359375  0.9544647932052612  0.5811198353767395  1.0000
  Ga  Ga4       1.0  0.43090739846229553  0.44947218894958496  0.9651229381561279  1.0000
  Mg  Mg1       1.0  0.7577700018882751  0.9493911862373352  0.937523365020752  1.0000
