data_image0
_chemical_formula_structural       ClGa4MgMn
_chemical_formula_sum              "Cl1 Ga4 Mg1 Mn1"
_cell_length_a       5.464399469612892
_cell_length_b       5.7354874739385275
_cell_length_c       5.892043113708496
_cell_angle_alpha    62.116442200815875
_cell_angle_beta     60.42743848602
_cell_angle_gamma    61.3268827054696

_space_group_name_H-M_alt    "P 1"
_space_group_IT_number       1

loop_
  _space_group_symop_operation_xyz
  'x, y, z'

loop_
  _atom_site_type_symbol
  _atom_site_label
  _atom_site_symmetry_multiplicity
  _atom_site_fract_x
  _atom_site_fract_y
  _atom_site_fract_z
  _atom_site_occupancy
  Cl  Cl1       1.0  0.22951704263687134  0.2170250564813614  0.4944606125354767  1.0000
  Ga  Ga1       1.0  0.21587218344211578  0.7186666131019592  0.15000107884407043  1.0000
  Ga  Ga2       1.0  0.7206324934959412  0.8268854022026062  0.42951422929763794  1.0000
  Ga  Ga3       1.0  0.2162727266550064  0.7133566737174988  0.9891967177391052  1.0000
  Ga  Ga4       1.0  0.7248091101646423  0.21204985678195953  0.12502287328243256  1.0000
  Mg  Mg1       1.0  0.8598333597183228  0.054892539978027344  0.7576156854629517  1.0000
  Mn  Mn1       1.0  0.4332837164402008  0.5083661079406738  0.6438040137290955  1.0000
