data_image0
_chemical_formula_structural       Ga6Mg
_chemical_formula_sum              "Ga6 Mg1"
_cell_length_a       4.632161451863901
_cell_length_b       3.7161871574130805
_cell_length_c       4.10012149810791
_cell_angle_alpha    133.4824790376229
_cell_angle_beta     123.53071487390783
_cell_angle_gamma    90.52664468409269

_space_group_name_H-M_alt    "P 1"
_space_group_IT_number       1

loop_
  _space_group_symop_operation_xyz
  'x, y, z'

loop_
  _atom_site_type_symbol
  _atom_site_label
  _atom_site_symmetry_multiplicity
  _atom_site_fract_x
  _atom_site_fract_y
  _atom_site_fract_z
  _atom_site_occupancy
  Ga  Ga1       1.0  0.4259711802005768  0.7090076208114623  0.39465528726577764  1.0000
  Ga  Ga2       1.0  0.06503023207187653  0.40938428044319153  0.6396399140357971  1.0000
  Ga  Ga3       1.0  0.12511169910430908  0.4553752541542053  0.2833095192909241  1.0000
  Ga  Ga4       1.0  0.7209647893905642  0.007643958553671906  0.7663926482200624  1.0000
  Ga  Ga5       1.0  0.7469595670700074  0.03528960049152381  0.9740856885910035  1.0000
  Ga  Ga6       1.0  0.3883225321769713  0.9181973338127134  0.13230030238628382  1.0000
  Mg  Mg1       1.0  0.06013283133506781  0.8071323633193971  0.6173375248908998  1.0000
