data_image0
_chemical_formula_structural       B3LuO5
_chemical_formula_sum              "B3 Lu1 O5"
_cell_length_a       4.981052414130016
_cell_length_b       5.043247223733322
_cell_length_c       5.121844291687012
_cell_angle_alpha    63.46596663689338
_cell_angle_beta     63.467764232180855
_cell_angle_gamma    62.65330407792652

_space_group_name_H-M_alt    "P 1"
_space_group_IT_number       1

loop_
  _space_group_symop_operation_xyz
  'x, y, z'

loop_
  _atom_site_type_symbol
  _atom_site_label
  _atom_site_symmetry_multiplicity
  _atom_site_fract_x
  _atom_site_fract_y
  _atom_site_fract_z
  _atom_site_occupancy
  B   B1        1.0  0.8395665884017944  0.2554209232330322  0.24783258140087128  1.0000
  B   B2        1.0  0.2085692286491394  0.6901575326919556  0.8487911224365234  1.0000
  B   B3        1.0  0.16046081483364105  0.0008473933557979763  0.3939822316169739  1.0000
  Lu  Lu1       1.0  0.8022394776344299  0.2094736099243164  0.005026375874876976  1.0000
  O   O1        1.0  0.48228153586387634  0.3614460527896881  0.08946695178747177  1.0000
  O   O2        1.0  0.7246887683868408  0.8074698448181152  0.8475826978683472  1.0000
  O   O3        1.0  0.16502070426940918  0.30596911907196045  0.7783486247062683  1.0000
  O   O4        1.0  0.8976315855979919  0.7726781368255615  0.5416750907897949  1.0000
  O   O5        1.0  0.5008407235145569  0.32155898213386536  0.3170594871044159  1.0000
