data_image0
_chemical_formula_structural       B5LiO3
_chemical_formula_sum              "B5 Li1 O3"
_cell_length_a       4.905577275141526
_cell_length_b       4.934889774422612
_cell_length_c       5.626270771026611
_cell_angle_alpha    70.59510988907348
_cell_angle_beta     69.32465489215538
_cell_angle_gamma    63.21922744613386

_space_group_name_H-M_alt    "P 1"
_space_group_IT_number       1

loop_
  _space_group_symop_operation_xyz
  'x, y, z'

loop_
  _atom_site_type_symbol
  _atom_site_label
  _atom_site_symmetry_multiplicity
  _atom_site_fract_x
  _atom_site_fract_y
  _atom_site_fract_z
  _atom_site_occupancy
  B   B1        1.0  0.8635948300361633  0.031057395040988926  0.20014552772045138  1.0000
  B   B2        1.0  0.41480711102485657  0.44567808508872986  0.0347905196249485  1.0000
  B   B3        1.0  0.8816418647766113  0.4220011532306671  0.6020749807357788  1.0000
  B   B4        1.0  0.2137501835823059  0.1627376824617386  0.697668731212616  1.0000
  B   B5        1.0  0.6941654086112976  0.9999701380729676  0.7118028402328491  1.0000
  Li  Li1       1.0  0.036132510751485825  0.711485743522644  0.016926279291510582  1.0000
  O   O1        1.0  0.28907468914985657  0.27330052852630615  0.2726070284843445  1.0000
  O   O2        1.0  0.5312185287475586  0.5187000036239624  0.34157082438468933  1.0000
  O   O3        1.0  0.9334073066711426  0.2754998505115509  0.008277887478470802  1.0000
