data_image0
_chemical_formula_structural       B5Li2O2
_chemical_formula_sum              "B5 Li2 O2"
_cell_length_a       4.520292492941688
_cell_length_b       4.581760492264628
_cell_length_c       4.715551853179932
_cell_angle_alpha    66.6056987123603
_cell_angle_beta     63.34259371283514
_cell_angle_gamma    62.26123219784633

_space_group_name_H-M_alt    "P 1"
_space_group_IT_number       1

loop_
  _space_group_symop_operation_xyz
  'x, y, z'

loop_
  _atom_site_type_symbol
  _atom_site_label
  _atom_site_symmetry_multiplicity
  _atom_site_fract_x
  _atom_site_fract_y
  _atom_site_fract_z
  _atom_site_occupancy
  B   B1        1.0  0.9715692400932312  0.7842106223106384  0.6110129952430725  1.0000
  B   B2        1.0  0.49617424607276917  0.22160740196704865  0.35704633593559265  1.0000
  B   B3        1.0  0.9961525797843933  0.7858371734619141  0.09710027277469635  1.0000
  B   B4        1.0  0.03215467557311058  0.23668642342090607  0.9991399049758911  1.0000
  B   B5        1.0  0.519395649433136  0.7843517661094666  0.6224454045295715  1.0000
  Li  Li1       1.0  0.5759018063545227  0.2714771032333374  0.06521440297365189  1.0000
  Li  Li2       1.0  0.24114850163459778  0.7694417238235474  0.3746352791786194  1.0000
  O   O1        1.0  0.11797062307596207  0.48934412002563477  0.9623105525970459  1.0000
  O   O2        1.0  0.6035667061805725  0.20668622851371765  0.357636958360672  1.0000
