data_image0
_chemical_formula_structural       B4MnO4
_chemical_formula_sum              "B4 Mn1 O4"
_cell_length_a       4.8069419086210425
_cell_length_b       5.244999346162511
_cell_length_c       5.20308256149292
_cell_angle_alpha    65.88722152714202
_cell_angle_beta     65.95190194347722
_cell_angle_gamma    62.327825484065734

_space_group_name_H-M_alt    "P 1"
_space_group_IT_number       1

loop_
  _space_group_symop_operation_xyz
  'x, y, z'

loop_
  _atom_site_type_symbol
  _atom_site_label
  _atom_site_symmetry_multiplicity
  _atom_site_fract_x
  _atom_site_fract_y
  _atom_site_fract_z
  _atom_site_occupancy
  B   B1        1.0  0.38830646872520447  0.012110055424273014  0.1944858282804489  1.0000
  B   B2        1.0  0.13847871124744415  0.20529040694236755  0.7843644022941589  1.0000
  B   B3        1.0  0.8919742107391357  0.2247956246137619  0.6554625034332275  1.0000
  B   B4        1.0  0.3859585225582123  0.6785399317741394  0.31107863783836365  1.0000
  Mn  Mn1       1.0  0.5762300491333008  0.30048900842666626  0.7078084945678711  1.0000
  O   O1        1.0  0.000377946300432086  0.48159581422805786  0.4848789572715759  1.0000
  O   O2        1.0  0.3055059611797333  0.6124515533447266  0.977238118648529  1.0000
  O   O3        1.0  0.5042386054992676  0.9957118630409241  0.6887457370758057  1.0000
  O   O4        1.0  0.3078658878803253  0.6914656162261963  0.2362503707408905  1.0000
