data_image0
_chemical_formula_structural       B5LiO3
_chemical_formula_sum              "B5 Li1 O3"
_cell_length_a       3.975361136027218
_cell_length_b       4.135626200234967
_cell_length_c       4.546737194061279
_cell_angle_alpha    110.52586676750309
_cell_angle_beta     116.57143941618943
_cell_angle_gamma    89.85625818544919

_space_group_name_H-M_alt    "P 1"
_space_group_IT_number       1

loop_
  _space_group_symop_operation_xyz
  'x, y, z'

loop_
  _atom_site_type_symbol
  _atom_site_label
  _atom_site_symmetry_multiplicity
  _atom_site_fract_x
  _atom_site_fract_y
  _atom_site_fract_z
  _atom_site_occupancy
  B   B1        1.0  0.031936295330524445  0.048800963908433914  0.5692160129547119  1.0000
  B   B2        1.0  0.774610698223114  0.5465453863143921  0.9666836857795715  1.0000
  B   B3        1.0  0.2991500794887543  0.5484596490859985  0.045002471655607224  1.0000
  B   B4        1.0  0.7605189681053162  0.04240909218788147  0.20889902114868164  1.0000
  B   B5        1.0  0.39289167523384094  0.658484697341919  0.5452121496200562  1.0000
  Li  Li1       1.0  0.304015576839447  0.052691683173179626  0.048843998461961746  1.0000
  O   O1        1.0  0.6925166249275208  0.39773258566856384  0.07118522375822067  1.0000
  O   O2        1.0  0.9458292126655579  0.5469533801078796  0.6324090957641602  1.0000
  O   O3        1.0  0.4560141861438751  0.7969077825546265  0.7782726287841797  1.0000
