data_image0
_chemical_formula_structural       B3Li2O4
_chemical_formula_sum              "B3 Li2 O4"
_cell_length_a       4.861118326791923
_cell_length_b       5.006033859025546
_cell_length_c       5.033207893371582
_cell_angle_alpha    62.82164760177781
_cell_angle_beta     62.133164993942465
_cell_angle_gamma    58.69720931149441

_space_group_name_H-M_alt    "P 1"
_space_group_IT_number       1

loop_
  _space_group_symop_operation_xyz
  'x, y, z'

loop_
  _atom_site_type_symbol
  _atom_site_label
  _atom_site_symmetry_multiplicity
  _atom_site_fract_x
  _atom_site_fract_y
  _atom_site_fract_z
  _atom_site_occupancy
  B   B1        1.0  0.9695057272911073  0.07467339932918549  0.2760404348373413  1.0000
  B   B2        1.0  0.4502145051956177  0.48329541087150574  0.6069902777671814  1.0000
  B   B3        1.0  0.9709675312042237  0.9680693745613098  0.49237102270126337  1.0000
  Li  Li1       1.0  0.00940694659948349  0.4850538969039917  0.2632884681224823  1.0000
  Li  Li2       1.0  0.5237037539482117  0.9725342988967896  0.8023245334625244  1.0000
  O   O1        1.0  0.33002734184265137  0.4926954507827759  0.22754710912704465  1.0000
  O   O2        1.0  0.7717106342315674  0.24189232289791107  0.7102017402648926  1.0000
  O   O3        1.0  0.7324343323707581  0.9506879448890686  0.7471609711647034  1.0000
  O   O4        1.0  0.9700135588645936  0.9530558586120605  0.4923692643642425  1.0000
