data_image0
_chemical_formula_structural       CGaI2KPbPt2Zr
_chemical_formula_sum              "C1 Ga1 I2 K1 Pb1 Pt2 Zr1"
_cell_length_a       7.197975889786575
_cell_length_b       7.366444876817443
_cell_length_c       7.642430782318115
_cell_angle_alpha    73.98175818140014
_cell_angle_beta     66.63645799107167
_cell_angle_gamma    65.90829673417507

_space_group_name_H-M_alt    "P 1"
_space_group_IT_number       1

loop_
  _space_group_symop_operation_xyz
  'x, y, z'

loop_
  _atom_site_type_symbol
  _atom_site_label
  _atom_site_symmetry_multiplicity
  _atom_site_fract_x
  _atom_site_fract_y
  _atom_site_fract_z
  _atom_site_occupancy
  C   C1        1.0  0.37798789143562317  0.7368438243865967  0.7682528495788573  1.0000
  Ga  Ga1       1.0  0.13712993264198303  0.5399519205093384  0.11971958726644515  1.0000
  I   I1        1.0  0.7533934116363525  0.6140552163124084  0.7674582600593566  1.0000
  I   I2        1.0  0.8049576282501221  0.9061096906661987  0.41379728913307184  1.0000
  K   K1        1.0  0.1566106379032135  0.7630061507225037  0.9009622931480407  1.0000
  Pb  Pb1       1.0  0.868996262550354  0.39762455224990845  0.6376090645790099  1.0000
  Pt  Pt1       1.0  0.13779033720493317  0.17632131278514862  0.790756583213806  1.0000
  Pt  Pt2       1.0  0.1140391007065773  0.7661637663841248  0.7563654780387877  1.0000
  Zr  Zr1       1.0  0.6278223395347595  0.38612574338912964  0.4151679575443267  1.0000
