data_image0
_chemical_formula_structural       CGa2K2PbPt2Ti
_chemical_formula_sum              "C1 Ga2 K2 Pb1 Pt2 Ti1"
_cell_length_a       6.022506312231255
_cell_length_b       6.27835293858543
_cell_length_c       7.852138996124268
_cell_angle_alpha    97.52977721011686
_cell_angle_beta     99.78274886965241
_cell_angle_gamma    111.0652545722136

_space_group_name_H-M_alt    "P 1"
_space_group_IT_number       1

loop_
  _space_group_symop_operation_xyz
  'x, y, z'

loop_
  _atom_site_type_symbol
  _atom_site_label
  _atom_site_symmetry_multiplicity
  _atom_site_fract_x
  _atom_site_fract_y
  _atom_site_fract_z
  _atom_site_occupancy
  C   C1        1.0  0.5380394458770752  0.4558598101139068  0.7834933400154114  1.0000
  Ga  Ga1       1.0  0.05338146537542343  0.05150038003921508  0.9276943206787109  1.0000
  Ga  Ga2       1.0  0.5337427854537963  0.9029661417007445  0.1428278684616089  1.0000
  K   K1        1.0  0.5511060357093811  0.16836880147457123  0.852607250213623  1.0000
  K   K2        1.0  0.04102632403373718  0.7320001125335693  0.6316616535186768  1.0000
  Pb  Pb1       1.0  0.009712692350149116  0.45144575834274286  0.7710095047950745  1.0000
  Pt  Pt1       1.0  0.521203875541687  0.5049139261245728  0.027070645242929472  1.0000
  Pt  Pt2       1.0  0.519784152507782  0.8216851353645324  0.5334492921829224  1.0000
  Ti  Ti1       1.0  0.005784392356872559  0.15229402482509613  0.6183189153671265  1.0000
