data_image0
_chemical_formula_structural       C3CaHKO5
_chemical_formula_sum              "C3 Ca1 H1 K1 O5"
_cell_length_a       5.222793559305998
_cell_length_b       6.126568011554539
_cell_length_c       7.48494815826416
_cell_angle_alpha    101.53569206970312
_cell_angle_beta     93.88388355943628
_cell_angle_gamma    113.26555582362013

_space_group_name_H-M_alt    "P 1"
_space_group_IT_number       1

loop_
  _space_group_symop_operation_xyz
  'x, y, z'

loop_
  _atom_site_type_symbol
  _atom_site_label
  _atom_site_symmetry_multiplicity
  _atom_site_fract_x
  _atom_site_fract_y
  _atom_site_fract_z
  _atom_site_occupancy
  C   C1        1.0  0.4243648946285248  0.7821705341339111  0.7547032237052917  1.0000
  C   C2        1.0  0.1740415394306183  0.9297441840171814  0.3576674163341522  1.0000
  C   C3        1.0  0.675933301448822  0.15400364995002747  0.871372401714325  1.0000
  Ca  Ca1       1.0  0.2160910815000534  0.165696382522583  0.6426963806152344  1.0000
  H   H1        1.0  0.4957943558692932  0.3022613823413849  0.05905904248356819  1.0000
  K   K1        1.0  0.8252167701721191  0.6481289267539978  0.5082263946533203  1.0000
  O   O1        1.0  0.49391448497772217  0.0901336595416069  0.7125469446182251  1.0000
  O   O2        1.0  0.1366548091173172  0.8941969275474548  0.5382320880889893  1.0000
  O   O3        1.0  0.33551040291786194  0.6350775957107544  0.18794730305671692  1.0000
  O   O4        1.0  0.6474375128746033  0.38046079874038696  0.2900865375995636  1.0000
  O   O5        1.0  0.9925181269645691  0.06792967021465302  0.7652739882469177  1.0000
