data_image0
_chemical_formula_structural       C3HKO5P
_chemical_formula_sum              "C3 H1 K1 O5 P1"
_cell_length_a       5.497255154742238
_cell_length_b       5.878349935917975
_cell_length_c       6.728131294250488
_cell_angle_alpha    103.5281056766801
_cell_angle_beta     102.45849198942929
_cell_angle_gamma    110.82698657644484

_space_group_name_H-M_alt    "P 1"
_space_group_IT_number       1

loop_
  _space_group_symop_operation_xyz
  'x, y, z'

loop_
  _atom_site_type_symbol
  _atom_site_label
  _atom_site_symmetry_multiplicity
  _atom_site_fract_x
  _atom_site_fract_y
  _atom_site_fract_z
  _atom_site_occupancy
  C   C1        1.0  0.61487877368927  0.6148133277893066  0.34870049357414246  1.0000
  C   C2        1.0  0.688565731048584  0.0877491682767868  0.11190545558929445  1.0000
  C   C3        1.0  0.9682440757751465  0.5597215890884399  0.8620924353599548  1.0000
  H   H1        1.0  0.21689820289611816  0.7444406151771545  0.3295135498046875  1.0000
  K   K1        1.0  0.18111580610275269  0.09663676470518112  0.6207703351974487  1.0000
  O   O1        1.0  0.17288412153720856  0.6999821066856384  0.6161541938781738  1.0000
  O   O2        1.0  0.36361804604530334  0.3483065068721771  0.3770732283592224  1.0000
  O   O3        1.0  0.9317289590835571  0.6932390332221985  0.576280951499939  1.0000
  O   O4        1.0  0.8586422801017761  0.2326372414827347  0.6361875534057617  1.0000
  O   O5        1.0  0.757152795791626  0.78432297706604  0.1263663321733475  1.0000
  P   P1        1.0  0.7626087069511414  0.06286142021417618  0.10618468374013902  1.0000
