data_image0
_chemical_formula_structural       C2H2KO6
_chemical_formula_sum              "C2 H2 K1 O6"
_cell_length_a       4.881774862715192
_cell_length_b       5.694273662726824
_cell_length_c       6.041018009185791
_cell_angle_alpha    109.48114673684208
_cell_angle_beta     104.39934405442187
_cell_angle_gamma    89.37774580874081

_space_group_name_H-M_alt    "P 1"
_space_group_IT_number       1

loop_
  _space_group_symop_operation_xyz
  'x, y, z'

loop_
  _atom_site_type_symbol
  _atom_site_label
  _atom_site_symmetry_multiplicity
  _atom_site_fract_x
  _atom_site_fract_y
  _atom_site_fract_z
  _atom_site_occupancy
  C   C1        1.0  0.13468608260154724  0.8371404409408569  0.635006308555603  1.0000
  C   C2        1.0  0.4003954529762268  0.6195505261421204  0.06609401106834412  1.0000
  H   H1        1.0  0.1284225434064865  0.234822079539299  0.819922924041748  1.0000
  H   H2        1.0  0.13680964708328247  0.44003838300704956  0.8258881568908691  1.0000
  K   K1        1.0  0.6557320356369019  0.9557701945304871  0.20903176069259644  1.0000
  O   O1        1.0  0.047293249517679214  0.6135153770446777  0.15212427079677585  1.0000
  O   O2        1.0  0.5424211621284485  0.6207044720649719  0.5001986622810364  1.0000
  O   O3        1.0  0.49025082588195806  0.8919583559036255  0.12200071662664413  1.0000
  O   O4        1.0  0.6398268938064575  0.3142045736312866  0.7854430079460144  1.0000
  O   O5        1.0  0.1380595564842224  0.5746839046478271  0.3373107314109802  1.0000
  O   O6        1.0  0.5296564102172852  0.9629632830619812  0.5419332981109619  1.0000
