data_image0
_chemical_formula_structural       C2FNiO7
_chemical_formula_sum              "C2 F1 Ni1 O7"
_cell_length_a       4.069276282018997
_cell_length_b       4.517379093755336
_cell_length_c       8.220144271850586
_cell_angle_alpha    92.88874455600285
_cell_angle_beta     95.79251574505781
_cell_angle_gamma    92.03396864937764

_space_group_name_H-M_alt    "P 1"
_space_group_IT_number       1

loop_
  _space_group_symop_operation_xyz
  'x, y, z'

loop_
  _atom_site_type_symbol
  _atom_site_label
  _atom_site_symmetry_multiplicity
  _atom_site_fract_x
  _atom_site_fract_y
  _atom_site_fract_z
  _atom_site_occupancy
  C   C1        1.0  0.8907079696655273  0.5626913905143738  0.9185041189193726  1.0000
  C   C2        1.0  0.8964864015579224  0.06293947249650955  0.4247341752052307  1.0000
  F   F1        1.0  0.3977116644382477  0.06540191173553467  0.8728598952293396  1.0000
  Ni  Ni1       1.0  0.39147281646728516  0.04843740910291672  0.16196034848690033  1.0000
  O   O1        1.0  0.13316768407821655  0.2212391495704651  0.027467548847198486  1.0000
  O   O2        1.0  0.9814931750297546  0.2918023467063904  0.9325100779533386  1.0000
  O   O3        1.0  0.8911290764808655  0.5419588685035706  0.1466207355260849  1.0000
  O   O4        1.0  0.3839198052883148  0.5336801409721375  0.6494867205619812  1.0000
  O   O5        1.0  0.8363243937492371  0.5352160334587097  0.014982622116804123  1.0000
  O   O6        1.0  0.035701934248209  0.7114687561988831  0.5063309073448181  1.0000
  O   O7        1.0  0.48359552025794983  0.7425862550735474  0.40164807438850403  1.0000
