data_image0
_chemical_formula_structural       C3HKO6
_chemical_formula_sum              "C3 H1 K1 O6"
_cell_length_a       5.401395434585836
_cell_length_b       5.088650015159281
_cell_length_c       5.435175895690918
_cell_angle_alpha    123.0373016485855
_cell_angle_beta     114.2898535315685
_cell_angle_gamma    91.92292692568152

_space_group_name_H-M_alt    "P 1"
_space_group_IT_number       1

loop_
  _space_group_symop_operation_xyz
  'x, y, z'

loop_
  _atom_site_type_symbol
  _atom_site_label
  _atom_site_symmetry_multiplicity
  _atom_site_fract_x
  _atom_site_fract_y
  _atom_site_fract_z
  _atom_site_occupancy
  C   C1        1.0  0.7005872130393982  0.3854927718639374  0.9842199087142943  1.0000
  C   C2        1.0  0.8945900797843933  0.04907173290848732  0.4210850894451141  1.0000
  C   C3        1.0  0.1790252923965454  0.3663162589073181  0.1014367789030075  1.0000
  H   H1        1.0  0.9024034738540649  0.9982568025588989  0.8075419068336486  1.0000
  K   K1        1.0  0.276466965675354  0.6168720722198486  0.6177470684051514  1.0000
  O   O1        1.0  0.22770291566848755  0.21999086439609528  0.9424211978912352  1.0000
  O   O2        1.0  0.1988220363855362  0.43573734164237976  0.6069800853729248  1.0000
  O   O3        1.0  0.9057267904281616  0.7589243650436401  0.9876666069030761  1.0000
  O   O4        1.0  0.8133009076118469  0.5035685300827026  0.4285025298595428  1.0000
  O   O5        1.0  0.7075745463371277  0.20701897144317627  0.9423714876174926  1.0000
  O   O6        1.0  0.7067162990570068  0.7381790280342102  0.6021420359611511  1.0000
