data_image0
_chemical_formula_structural       C4HO6
_chemical_formula_sum              "C4 H1 O6"
_cell_length_a       4.698660458947713
_cell_length_b       5.133448572815246
_cell_length_c       6.892626762390137
_cell_angle_alpha    113.6442353062226
_cell_angle_beta     109.02193459571792
_cell_angle_gamma    90.81921391463023

_space_group_name_H-M_alt    "P 1"
_space_group_IT_number       1

loop_
  _space_group_symop_operation_xyz
  'x, y, z'

loop_
  _atom_site_type_symbol
  _atom_site_label
  _atom_site_symmetry_multiplicity
  _atom_site_fract_x
  _atom_site_fract_y
  _atom_site_fract_z
  _atom_site_occupancy
  C   C1        1.0  0.8872097134590149  0.10345026105642319  0.6710801720619202  1.0000
  C   C2        1.0  0.49355465173721313  0.06414028257131577  0.2103714495897293  1.0000
  C   C3        1.0  0.6311871409416199  0.4207635223865509  0.5655765533447266  1.0000
  C   C4        1.0  0.6614845395088196  0.4072510004043579  0.9305493235588074  1.0000
  H   H1        1.0  0.2743633985519409  0.30535581707954407  0.31109118461608887  1.0000
  O   O1        1.0  0.46009087562561035  0.4475034773349762  0.19951574504375458  1.0000
  O   O2        1.0  0.6577790379524231  0.5286383032798767  0.006171585526317358  1.0000
  O   O3        1.0  0.6212428212165833  0.9267746210098267  0.11125829815864556  1.0000
  O   O4        1.0  0.22415271401405334  0.8952760100364685  0.7905563116073608  1.0000
  O   O5        1.0  0.9860935807228088  0.11023270338773727  0.6868383884429932  1.0000
  O   O6        1.0  0.3099459111690521  0.6433213949203491  0.47367048263549805  1.0000
