data_image0
_chemical_formula_structural       Fe2LaSbSm7
_chemical_formula_sum              "Fe2 La1 Sb1 Sm7"
_cell_length_a       6.02347307747472
_cell_length_b       6.626101438415522
_cell_length_c       8.530619621276855
_cell_angle_alpha    109.95617381377063
_cell_angle_beta     107.21223103184661
_cell_angle_gamma    88.77228084717156

_space_group_name_H-M_alt    "P 1"
_space_group_IT_number       1

loop_
  _space_group_symop_operation_xyz
  'x, y, z'

loop_
  _atom_site_type_symbol
  _atom_site_label
  _atom_site_symmetry_multiplicity
  _atom_site_fract_x
  _atom_site_fract_y
  _atom_site_fract_z
  _atom_site_occupancy
  Fe  Fe1       1.0  0.7699914574623108  0.43289685249328613  0.25651562213897705  1.0000
  Fe  Fe2       1.0  0.8293056488037109  0.44469618797302246  0.3758053779602051  1.0000
  La  La1       1.0  0.3925293982028961  0.7858853340148926  0.6376938819885254  1.0000
  Sb  Sb1       1.0  0.7511915564537048  0.9337179660797119  0.13402621448040009  1.0000
  Sm  Sm1       1.0  0.14718776941299438  0.48850950598716736  0.9569467306137085  1.0000
  Sm  Sm2       1.0  0.668190062046051  0.7866120338439941  0.9666497111320496  1.0000
  Sm  Sm3       1.0  0.9023931622505188  0.4772525727748871  0.6341850161552429  1.0000
  Sm  Sm4       1.0  0.6225351691246033  0.9727935791015625  0.4929041862487793  1.0000
  Sm  Sm5       1.0  0.41277340054512024  0.2904033362865448  0.4072083830833435  1.0000
  Sm  Sm6       1.0  0.6727802157402039  0.2836325764656067  0.9622997641563416  1.0000
  Sm  Sm7       1.0  0.1552157700061798  0.042740367352962494  0.9575274586677551  1.0000
