data_image0
_chemical_formula_structural       BFeSbSm7Tb
_chemical_formula_sum              "B1 Fe1 Sb1 Sm7 Tb1"
_cell_length_a       5.933555635278063
_cell_length_b       7.2613501039928
_cell_length_c       8.170215606689453
_cell_angle_alpha    114.1550291843588
_cell_angle_beta     110.35783640612075
_cell_angle_gamma    87.42833214448218

_space_group_name_H-M_alt    "P 1"
_space_group_IT_number       1

loop_
  _space_group_symop_operation_xyz
  'x, y, z'

loop_
  _atom_site_type_symbol
  _atom_site_label
  _atom_site_symmetry_multiplicity
  _atom_site_fract_x
  _atom_site_fract_y
  _atom_site_fract_z
  _atom_site_occupancy
  B   B1        1.0  0.6451327204704285  0.5182234048843384  0.27687087655067444  1.0000
  Fe  Fe1       1.0  0.7567954659461975  0.5887867212295532  0.13493596017360687  1.0000
  Sb  Sb1       1.0  0.9766038656234741  0.34535685181617737  0.6972123980522156  1.0000
  Sm  Sm1       1.0  0.6554363965988159  0.19023939967155457  0.6827659606933594  1.0000
  Sm  Sm2       1.0  0.519871175289154  0.3550756573677063  0.10932289808988571  1.0000
  Sm  Sm3       1.0  0.14236158132553098  0.8645170927047728  0.7773612141609192  1.0000
  Sm  Sm4       1.0  0.8606579303741455  0.10295389592647551  0.8815318942070007  1.0000
  Sm  Sm5       1.0  0.33459043502807617  0.8552826046943663  0.18633478879928583  1.0000
  Sm  Sm6       1.0  0.5006858706474304  0.8490434288978576  0.8700273633003235  1.0000
  Sm  Sm7       1.0  0.47679051756858826  0.35537999868392944  0.6994473934173584  1.0000
  Tb  Tb1       1.0  0.250588059425354  0.5944666862487793  0.6054075956344604  1.0000
