data_image0
_chemical_formula_structural       Fe3Sm8
_chemical_formula_sum              "Fe3 Sm8"
_cell_length_a       5.8823497168122065
_cell_length_b       6.331621451345356
_cell_length_c       8.762066841125488
_cell_angle_alpha    109.49459471368449
_cell_angle_beta     108.4214365093754
_cell_angle_gamma    89.35187387984612

_space_group_name_H-M_alt    "P 1"
_space_group_IT_number       1

loop_
  _space_group_symop_operation_xyz
  'x, y, z'

loop_
  _atom_site_type_symbol
  _atom_site_label
  _atom_site_symmetry_multiplicity
  _atom_site_fract_x
  _atom_site_fract_y
  _atom_site_fract_z
  _atom_site_occupancy
  Fe  Fe1       1.0  0.3679318130016327  0.593811571598053  0.4583917260169983  1.0000
  Fe  Fe2       1.0  0.45247101783752436  0.39184683561325073  0.6853062510490417  1.0000
  Fe  Fe3       1.0  0.13460594415664673  0.8412407636642456  0.555334210395813  1.0000
  Sm  Sm1       1.0  0.8975578546524047  0.7326909303665161  0.5162520408630371  1.0000
  Sm  Sm2       1.0  0.3810083866119384  0.8104792237281799  0.442190945148468  1.0000
  Sm  Sm3       1.0  0.9042711853981017  0.14512750506401062  0.5025928020477295  1.0000
  Sm  Sm4       1.0  0.2163259834051132  0.4678135812282562  0.1296989470720291  1.0000
  Sm  Sm5       1.0  0.539173424243927  0.10134666413068771  0.34164804220199585  1.0000
  Sm  Sm6       1.0  0.6257817149162292  0.35327091813087463  0.01170706283301115  1.0000
  Sm  Sm7       1.0  0.881527006626129  0.322905033826828  0.9322603940963745  1.0000
  Sm  Sm8       1.0  0.8724805116653441  0.36046862602233887  0.47137749195098877  1.0000
