data_image0
_chemical_formula_structural       Fe3Sm7Tl
_chemical_formula_sum              "Fe3 Sm7 Tl1"
_cell_length_a       5.419621065564083
_cell_length_b       6.05153864877218
_cell_length_c       6.826575756072998
_cell_angle_alpha    116.38678023554081
_cell_angle_beta     106.2195094577138
_cell_angle_gamma    86.47992841808062

_space_group_name_H-M_alt    "P 1"
_space_group_IT_number       1

loop_
  _space_group_symop_operation_xyz
  'x, y, z'

loop_
  _atom_site_type_symbol
  _atom_site_label
  _atom_site_symmetry_multiplicity
  _atom_site_fract_x
  _atom_site_fract_y
  _atom_site_fract_z
  _atom_site_occupancy
  Fe  Fe1       1.0  0.23925438523292542  0.17137247323989868  0.3246260285377502  1.0000
  Fe  Fe2       1.0  0.49432727694511414  0.501909077167511  0.5320788621902466  1.0000
  Fe  Fe3       1.0  0.24046537280082703  0.19366464018821716  0.36132040619850153  1.0000
  Sm  Sm1       1.0  0.7614080309867859  0.924378514289856  0.30324307084083557  1.0000
  Sm  Sm2       1.0  0.4245380163192749  0.4903566241264343  0.24235746264457703  1.0000
  Sm  Sm3       1.0  0.6999931335449219  0.08596492558717728  0.8932392597198485  1.0000
  Sm  Sm4       1.0  0.2176918089389801  0.20192115008831024  0.859834849834442  1.0000
  Sm  Sm5       1.0  0.4456252157688141  0.23523423075675964  0.7364135980606078  1.0000
  Sm  Sm6       1.0  0.020538397133350372  0.9020934700965881  0.6421986818313598  1.0000
  Sm  Sm7       1.0  0.9785314202308655  0.9741935729980469  0.5276220440864563  1.0000
  Tl  Tl1       1.0  0.9803736805915833  0.6956953406333923  0.5395004153251648  1.0000
