data_image0
_chemical_formula_structural       Fe2Sm9
_chemical_formula_sum              "Fe2 Sm9"
_cell_length_a       5.365515660653947
_cell_length_b       6.13495597491299
_cell_length_c       8.813880920410156
_cell_angle_alpha    111.53290965028904
_cell_angle_beta     105.58313883652998
_cell_angle_gamma    85.99994119520363

_space_group_name_H-M_alt    "P 1"
_space_group_IT_number       1

loop_
  _space_group_symop_operation_xyz
  'x, y, z'

loop_
  _atom_site_type_symbol
  _atom_site_label
  _atom_site_symmetry_multiplicity
  _atom_site_fract_x
  _atom_site_fract_y
  _atom_site_fract_z
  _atom_site_occupancy
  Fe  Fe1       1.0  0.10846250504255295  0.5289002656936646  0.8428453803062439  1.0000
  Fe  Fe2       1.0  0.8537018299102783  0.5272369980812073  0.32263919711112976  1.0000
  Sm  Sm1       1.0  0.45356500148773193  0.49387592077255243  0.2903282940387726  1.0000
  Sm  Sm2       1.0  0.2215752750635147  0.045534826815128326  0.7598164677619934  1.0000
  Sm  Sm3       1.0  0.21834786236286163  0.006617088336497545  0.7663716077804565  1.0000
  Sm  Sm4       1.0  0.1747782826423645  0.8190532922744751  0.237329363822937  1.0000
  Sm  Sm5       1.0  0.965343177318573  0.36642536520957947  0.9909618496894836  1.0000
  Sm  Sm6       1.0  0.436727911233902  0.5384576916694641  0.6296104192733765  1.0000
  Sm  Sm7       1.0  0.48151540756225586  0.17563855648040771  0.9720098376274109  1.0000
  Sm  Sm8       1.0  0.9446066617965698  0.8434299230575562  0.4397667646408081  1.0000
  Sm  Sm9       1.0  0.7335774302482604  0.2318906337022781  0.6002844572067261  1.0000
