data_image0
_chemical_formula_structural       Fe3Sm8
_chemical_formula_sum              "Fe3 Sm8"
_cell_length_a       5.530186813548482
_cell_length_b       5.6542774907432705
_cell_length_c       6.535470962524414
_cell_angle_alpha    111.96891623814781
_cell_angle_beta     113.60156944550083
_cell_angle_gamma    88.86188709334841

_space_group_name_H-M_alt    "P 1"
_space_group_IT_number       1

loop_
  _space_group_symop_operation_xyz
  'x, y, z'

loop_
  _atom_site_type_symbol
  _atom_site_label
  _atom_site_symmetry_multiplicity
  _atom_site_fract_x
  _atom_site_fract_y
  _atom_site_fract_z
  _atom_site_occupancy
  Fe  Fe1       1.0  0.2925169765949249  0.5815314650535583  0.0491158664226532  1.0000
  Fe  Fe2       1.0  0.05025210604071617  0.7902265191078186  0.24270540475845337  1.0000
  Fe  Fe3       1.0  0.7726083993911743  0.2759929597377777  0.43479371070861816  1.0000
  Sm  Sm1       1.0  0.36749735474586487  0.5590478777885437  0.8952240347862244  1.0000
  Sm  Sm2       1.0  0.6785303354263306  0.09667450934648514  0.008446142077445984  1.0000
  Sm  Sm3       1.0  0.9549413323402405  0.05776139721274376  0.7400067448616028  1.0000
  Sm  Sm4       1.0  0.7119921445846558  0.2970375120639801  0.9556167125701904  1.0000
  Sm  Sm5       1.0  0.18450228869915009  0.2965019941329956  0.2442501038312912  1.0000
  Sm  Sm6       1.0  0.6786178946495056  0.7917657494544983  0.7394546866416931  1.0000
  Sm  Sm7       1.0  0.4306887686252594  0.811880886554718  0.4235033690929413  1.0000
  Sm  Sm8       1.0  0.4021286964416504  0.5551686882972717  0.411505788564682  1.0000
