data_image0
_chemical_formula_structural       ClGa2Ge4NiSm7
_chemical_formula_sum              "Cl1 Ga2 Ge4 Ni1 Sm7"
_cell_length_a       5.49810203800438
_cell_length_b       6.080577708790862
_cell_length_c       10.251423835754395
_cell_angle_alpha    90.307914091073
_cell_angle_beta     91.0173756046753
_cell_angle_gamma    90.08959994447737

_space_group_name_H-M_alt    "P 1"
_space_group_IT_number       1

loop_
  _space_group_symop_operation_xyz
  'x, y, z'

loop_
  _atom_site_type_symbol
  _atom_site_label
  _atom_site_symmetry_multiplicity
  _atom_site_fract_x
  _atom_site_fract_y
  _atom_site_fract_z
  _atom_site_occupancy
  Cl  Cl1       1.0  0.5998501181602478  0.8017115592956543  0.7499465942382812  1.0000
  Ga  Ga1       1.0  0.5107224583625793  0.2482786327600479  0.9575583338737489  1.0000
  Ga  Ga2       1.0  0.16942289471626282  0.9227868318557739  0.45212957262992864  1.0000
  Ge  Ge1       1.0  0.9974626898765564  0.4632410705089569  0.23140813410282138  1.0000
  Ge  Ge2       1.0  0.3562518060207367  0.3035787343978882  0.7840253710746765  1.0000
  Ge  Ge3       1.0  0.07748265564441681  0.5872034430503845  0.74565190076828  1.0000
  Ge  Ge4       1.0  0.33879321813583374  0.8184840679168701  0.29745805263519287  1.0000
  Ni  Ni1       1.0  0.6674141883850098  0.02945217862725258  0.4628667533397675  1.0000
  Sm  Sm1       1.0  0.738115131855011  0.022558804601430893  0.23021540045738223  1.0000
  Sm  Sm2       1.0  0.16092604398727417  0.031245488673448563  0.5267868041992188  1.0000
  Sm  Sm3       1.0  0.2109794318675995  0.9895685315132141  0.6987480521202087  1.0000
  Sm  Sm4       1.0  0.5024818181991577  0.4672592282295227  0.033933233469724655  1.0000
  Sm  Sm5       1.0  0.9704703092575073  0.2751697301864624  0.029555151239037517  1.0000
  Sm  Sm6       1.0  0.3029644787311554  0.5276340246200562  0.16855034232139587  1.0000
  Sm  Sm7       1.0  0.971066415309906  0.7728875875473022  0.02517031691968441  1.0000
