data_image0
_chemical_formula_structural       Ga2Ge5Sm8
_chemical_formula_sum              "Ga2 Ge5 Sm8"
_cell_length_a       5.930148167069003
_cell_length_b       6.172864776550349
_cell_length_c       11.426268577575684
_cell_angle_alpha    89.76215881238625
_cell_angle_beta     90.38316207158898
_cell_angle_gamma    114.9503191887796

_space_group_name_H-M_alt    "P 1"
_space_group_IT_number       1

loop_
  _space_group_symop_operation_xyz
  'x, y, z'

loop_
  _atom_site_type_symbol
  _atom_site_label
  _atom_site_symmetry_multiplicity
  _atom_site_fract_x
  _atom_site_fract_y
  _atom_site_fract_z
  _atom_site_occupancy
  Ga  Ga1       1.0  0.542118489742279  0.6410801410675049  0.6551774144172668  1.0000
  Ga  Ga2       1.0  0.3320518732070923  0.35499122738838196  0.6435808539390564  1.0000
  Ge  Ge1       1.0  0.7480742335319519  0.7698894739151001  0.3377940356731415  1.0000
  Ge  Ge2       1.0  0.8498871922492981  0.06759324669837952  0.9343892931938171  1.0000
  Ge  Ge3       1.0  0.05268501862883568  0.3413061499595642  0.9110202193260193  1.0000
  Ge  Ge4       1.0  0.21891315281391144  0.36349862813949585  0.8888894319534302  1.0000
  Ge  Ge5       1.0  0.07653005421161652  0.5446642637252808  0.5529862642288208  1.0000
  Sm  Sm1       1.0  0.07823321968317032  0.07440581172704697  0.5676985383033752  1.0000
  Sm  Sm2       1.0  0.565831959247589  0.9020112752914428  0.8093560338020325  1.0000
  Sm  Sm3       1.0  0.5822482109069824  0.13910110294818878  0.3394458293914795  1.0000
  Sm  Sm4       1.0  0.5767086744308472  0.1306469738483429  0.8762339353561401  1.0000
  Sm  Sm5       1.0  0.06897265464067459  0.6074320077896118  0.4209606349468231  1.0000
  Sm  Sm6       1.0  0.07075811177492135  0.896931231021881  0.12373195588588716  1.0000
  Sm  Sm7       1.0  0.5655946135520935  0.800640881061554  0.13094183802604675  1.0000
  Sm  Sm8       1.0  0.07832786440849304  0.560800313949585  0.16533374786376953  1.0000
