data_image0
_chemical_formula_structural       CoGa2GeSm11
_chemical_formula_sum              "Co1 Ga2 Ge1 Sm11"
_cell_length_a       4.802075622740042
_cell_length_b       5.1420823884644795
_cell_length_c       11.919633865356445
_cell_angle_alpha    102.48759484629353
_cell_angle_beta     101.99038918219475
_cell_angle_gamma    87.72065675559108

_space_group_name_H-M_alt    "P 1"
_space_group_IT_number       1

loop_
  _space_group_symop_operation_xyz
  'x, y, z'

loop_
  _atom_site_type_symbol
  _atom_site_label
  _atom_site_symmetry_multiplicity
  _atom_site_fract_x
  _atom_site_fract_y
  _atom_site_fract_z
  _atom_site_occupancy
  Co  Co1       1.0  0.8660728335380554  0.5634145736694336  0.8507819771766663  1.0000
  Ga  Ga1       1.0  0.9413541555404663  0.5621502995491028  0.4412384033203125  1.0000
  Ga  Ga2       1.0  0.4820137321949005  0.8215416073799133  0.5186623334884644  1.0000
  Ge  Ge1       1.0  0.5975799560546875  0.06371691823005676  0.8340288996696472  1.0000
  Sm  Sm1       1.0  0.735406219959259  0.07556849718093872  0.20487596094608307  1.0000
  Sm  Sm2       1.0  0.2651630938053131  0.2847161293029785  0.032556548714637756  1.0000
  Sm  Sm3       1.0  0.9991438984870911  0.4044409692287445  0.5112094879150391  1.0000
  Sm  Sm4       1.0  0.24307912588119507  0.07064907252788544  0.01010438147932291  1.0000
  Sm  Sm5       1.0  0.4457484483718872  0.5606499314308167  0.37385573983192444  1.0000
  Sm  Sm6       1.0  0.5314632058143616  0.5747244358062744  0.621491014957428  1.0000
  Sm  Sm7       1.0  0.7986169457435608  0.7677916288375854  0.06703905761241913  1.0000
  Sm  Sm8       1.0  0.7761828899383545  0.7642590999603271  0.06169194355607033  1.0000
  Sm  Sm9       1.0  0.5784607529640198  0.07080651819705963  0.5710564255714417  1.0000
  Sm  Sm10      1.0  0.2843429148197174  0.7812055945396423  0.06796292215585709  1.0000
  Sm  Sm11      1.0  0.8246467709541321  0.3923615515232086  0.7921369671821594  1.0000
