data_image0
_chemical_formula_structural       Ge2NaNi2Sm10
_chemical_formula_sum              "Ge2 Na1 Ni2 Sm10"
_cell_length_a       5.372778008660444
_cell_length_b       5.978921620404064
_cell_length_c       11.810473442077637
_cell_angle_alpha    103.3731351704327
_cell_angle_beta     99.62612784780644
_cell_angle_gamma    89.97784653279889

_space_group_name_H-M_alt    "P 1"
_space_group_IT_number       1

loop_
  _space_group_symop_operation_xyz
  'x, y, z'

loop_
  _atom_site_type_symbol
  _atom_site_label
  _atom_site_symmetry_multiplicity
  _atom_site_fract_x
  _atom_site_fract_y
  _atom_site_fract_z
  _atom_site_occupancy
  Ge  Ge1       1.0  0.05948110297322273  0.5237999558448792  0.5684816837310791  1.0000
  Ge  Ge2       1.0  0.6677228212356567  0.6987515687942505  0.9140164256095887  1.0000
  Na  Na1       1.0  0.7381988763809204  0.15275825560092926  0.8734702467918397  1.0000
  Ni  Ni1       1.0  0.14223524928092957  0.7082921862602234  0.3718768656253815  1.0000
  Ni  Ni2       1.0  0.7592065930366516  0.14813680946826935  0.5771253705024719  1.0000
  Sm  Sm1       1.0  0.6915359497070312  0.6674100756645203  0.8555176258087159  1.0000
  Sm  Sm2       1.0  0.5369758009910583  0.21390090882778168  0.3846908807754517  1.0000
  Sm  Sm3       1.0  0.8942397236824036  0.7370665669441223  0.47562810778617864  1.0000
  Sm  Sm4       1.0  0.5552054643630981  0.9035405516624451  0.010955250822007639  1.0000
  Sm  Sm5       1.0  0.22522513568401337  0.15800347924232483  0.8815030455589296  1.0000
  Sm  Sm6       1.0  0.424221396446228  0.4569627344608307  0.31541314721107483  1.0000
  Sm  Sm7       1.0  0.03265516459941864  0.45462557673454285  0.04378604143857956  1.0000
  Sm  Sm8       1.0  0.5469325184822083  0.2821558713912964  0.0642557218670845  1.0000
  Sm  Sm9       1.0  0.18401966989040375  0.2208014875650406  0.7538140416145326  1.0000
  Sm  Sm10      1.0  0.16260375082492828  0.7132365107536316  0.8815082907676698  1.0000
