data_image0
_chemical_formula_structural       Ga2Ge3SiSm9
_chemical_formula_sum              "Ga2 Ge3 Si1 Sm9"
_cell_length_a       6.124315270110311
_cell_length_b       6.322958059340788
_cell_length_c       9.62288761138916
_cell_angle_alpha    88.8251964793224
_cell_angle_beta     90.50759585421052
_cell_angle_gamma    115.47289196286525

_space_group_name_H-M_alt    "P 1"
_space_group_IT_number       1

loop_
  _space_group_symop_operation_xyz
  'x, y, z'

loop_
  _atom_site_type_symbol
  _atom_site_label
  _atom_site_symmetry_multiplicity
  _atom_site_fract_x
  _atom_site_fract_y
  _atom_site_fract_z
  _atom_site_occupancy
  Ga  Ga1       1.0  0.12561047077178955  0.9232667684555054  0.325121134519577  1.0000
  Ga  Ga2       1.0  0.6372012495994568  0.4307255148887634  0.953241229057312  1.0000
  Ge  Ge1       1.0  0.10118791460990906  0.12290018796920776  0.9469208121299744  1.0000
  Ge  Ge2       1.0  0.966661036014557  0.7232490181922913  0.9002329111099243  1.0000
  Ge  Ge3       1.0  0.3386242389678955  0.4402996301651001  0.03592720255255699  1.0000
  Si  Si1       1.0  0.7451012134552002  0.6733328700065613  0.5684099197387695  1.0000
  Sm  Sm1       1.0  0.7450075745582581  0.1390679031610489  0.17328587174415588  1.0000
  Sm  Sm2       1.0  0.26086917519569397  0.5516559481620789  0.6839110851287842  1.0000
  Sm  Sm3       1.0  0.24412119388580325  0.11939864605665207  0.9444985389709473  1.0000
  Sm  Sm4       1.0  0.5381588339805603  0.7675250172615051  0.3338979482650757  1.0000
  Sm  Sm5       1.0  0.5380837917327881  0.7659648656845093  0.44140106439590454  1.0000
  Sm  Sm6       1.0  0.9892593622207643  0.2713439166545868  0.6624568700790405  1.0000
  Sm  Sm7       1.0  0.5050576329231262  0.7571247220039368  0.8082307577133179  1.0000
  Sm  Sm8       1.0  0.4409677088260651  0.11723808944225311  0.3108280897140503  1.0000
  Sm  Sm9       1.0  0.2688315212726593  0.5625793933868408  0.6913483142852783  1.0000
