data_image0
_chemical_formula_structural       CGe2Ni3RuSm8
_chemical_formula_sum              "C1 Ge2 Ni3 Ru1 Sm8"
_cell_length_a       5.872725594151063
_cell_length_b       6.360985416627982
_cell_length_c       10.29301643371582
_cell_angle_alpha    91.57285877927063
_cell_angle_beta     89.97444294744233
_cell_angle_gamma    116.66520138734676

_space_group_name_H-M_alt    "P 1"
_space_group_IT_number       1

loop_
  _space_group_symop_operation_xyz
  'x, y, z'

loop_
  _atom_site_type_symbol
  _atom_site_label
  _atom_site_symmetry_multiplicity
  _atom_site_fract_x
  _atom_site_fract_y
  _atom_site_fract_z
  _atom_site_occupancy
  C   C1        1.0  0.5128433704376221  0.4382203221321106  0.042803604155778885  1.0000
  Ge  Ge1       1.0  0.07392806559801102  0.8579367995262146  0.8237866759300232  1.0000
  Ge  Ge2       1.0  0.3895443379878998  0.7032745480537415  0.27644965052604675  1.0000
  Ni  Ni1       1.0  0.7706331610679626  0.43146243691444397  0.044139258563518524  1.0000
  Ni  Ni2       1.0  0.477300763130188  0.6038632392883301  0.5532194375991821  1.0000
  Ni  Ni3       1.0  0.7683106660842896  0.9225806593894958  0.0410134457051754  1.0000
  Ru  Ru1       1.0  0.3968619108200073  0.6993200778961182  0.39703187346458435  1.0000
  Sm  Sm1       1.0  0.5734938979148865  0.8681564927101135  0.08054888248443604  1.0000
  Sm  Sm2       1.0  0.4044944941997528  0.7049537897109985  0.8091890215873718  1.0000
  Sm  Sm3       1.0  0.5240548253059387  0.44558560848236084  0.29361405968666077  1.0000
  Sm  Sm4       1.0  0.042999934405088425  0.2273457944393158  0.038423802703619  1.0000
  Sm  Sm5       1.0  0.8572964668273926  0.2159692943096161  0.2907513976097107  1.0000
  Sm  Sm6       1.0  0.8900675177574158  0.7084553241729736  0.278774231672287  1.0000
  Sm  Sm7       1.0  0.39821237325668335  0.20351654291152954  0.839151620864868  1.0000
  Sm  Sm8       1.0  0.04049716889858246  0.9530901908874512  0.6433743834495544  1.0000
