data_image0
_chemical_formula_structural       O7SnSr5Te
_chemical_formula_sum              "O7 Sn1 Sr5 Te1"
_cell_length_a       7.173112923865947
_cell_length_b       7.4280146308847685
_cell_length_c       7.5252227783203125
_cell_angle_alpha    103.75740948659701
_cell_angle_beta     109.88016169838662
_cell_angle_gamma    114.13679762281052

_space_group_name_H-M_alt    "P 1"
_space_group_IT_number       1

loop_
  _space_group_symop_operation_xyz
  'x, y, z'

loop_
  _atom_site_type_symbol
  _atom_site_label
  _atom_site_symmetry_multiplicity
  _atom_site_fract_x
  _atom_site_fract_y
  _atom_site_fract_z
  _atom_site_occupancy
  O   O1        1.0  0.6286935210227965  0.35681626200675964  0.09432739019393922  1.0000
  O   O2        1.0  0.5773208141326904  0.3663213551044464  0.09436836093664171  1.0000
  O   O3        1.0  0.1498854011297226  0.7131446003913879  0.315048098564148  1.0000
  O   O4        1.0  0.9803733229637145  0.8572866320610046  0.6615431904792787  1.0000
  O   O5        1.0  0.0909416303038597  0.8593792915344238  0.5260795950889587  1.0000
  O   O6        1.0  0.20129883289337155  0.3932943046092987  0.7602044939994813  1.0000
  O   O7        1.0  0.5830867886543274  0.8527885675430298  0.7482388615608216  1.0000
  Sn  Sn1       1.0  0.3582287430763244  0.15996979176998138  0.5141157507896423  1.0000
  Sr  Sr1       1.0  0.3801040351390838  0.9100949764251709  0.797459363937378  1.0000
  Sr  Sr2       1.0  0.5779024958610535  0.7778123617172241  0.21465086936950686  1.0000
  Sr  Sr3       1.0  0.8873412609100341  0.19377709925174713  0.4701498448848725  1.0000
  Sr  Sr4       1.0  0.0523650050163269  0.894382655620575  0.021750401705503526  1.0000
  Sr  Sr5       1.0  0.5544602274894714  0.420139878988266  0.9597597122192384  1.0000
  Te  Te1       1.0  0.09288293868303298  0.2622356414794922  0.36116969585418707  1.0000
