data_image0
_chemical_formula_structural       IrO8Sr5
_chemical_formula_sum              "Ir1 O8 Sr5"
_cell_length_a       7.65421366825578
_cell_length_b       7.514077802869993
_cell_length_c       7.663071632385254
_cell_angle_alpha    105.80304152853806
_cell_angle_beta     107.2297960966968
_cell_angle_gamma    115.11788132043493

_space_group_name_H-M_alt    "P 1"
_space_group_IT_number       1

loop_
  _space_group_symop_operation_xyz
  'x, y, z'

loop_
  _atom_site_type_symbol
  _atom_site_label
  _atom_site_symmetry_multiplicity
  _atom_site_fract_x
  _atom_site_fract_y
  _atom_site_fract_z
  _atom_site_occupancy
  Ir  Ir1       1.0  0.8011595010757447  0.5155617594718933  0.027649756520986557  1.0000
  O   O1        1.0  0.5309276580810547  0.522767961025238  0.22799476981163025  1.0000
  O   O2        1.0  0.30835288763046265  0.29067668318748474  0.20131608843803406  1.0000
  O   O3        1.0  0.38175070285797125  0.011052208021283148  0.45194944739341736  1.0000
  O   O4        1.0  0.04995491355657578  0.5248290300369263  0.5851835608482361  1.0000
  O   O5        1.0  0.7188193202018739  0.7776249051094054  0.08350507915019983  1.0000
  O   O6        1.0  0.29184156656265253  0.9974535703659057  0.8633174300193787  1.0000
  O   O7        1.0  0.03648310527205467  0.013211136683821676  0.5820847749710083  1.0000
  O   O8        1.0  0.8029266595840455  0.2792353928089142  0.28629598021507263  1.0000
  Sr  Sr1       1.0  0.794897496700287  0.03887593373656273  0.6969598531723022  1.0000
  Sr  Sr2       1.0  0.43944373726844793  0.3040991425514221  0.2907823920249939  1.0000
  Sr  Sr3       1.0  0.5613731741905212  0.7556102275848388  0.9391893148422241  1.0000
  Sr  Sr4       1.0  0.9379907250404359  0.28557461500167847  0.8451425433158875  1.0000
  Sr  Sr5       1.0  0.3042263090610504  0.6359315514564514  0.6292135715484619  1.0000
