data_image0
_chemical_formula_structural       Ir4O8Sr2
_chemical_formula_sum              "Ir4 O8 Sr2"
_cell_length_a       6.501233055456572
_cell_length_b       6.702269426477311
_cell_length_c       6.520033836364746
_cell_angle_alpha    107.76379382472473
_cell_angle_beta     108.95760545765924
_cell_angle_gamma    113.03765930613903

_space_group_name_H-M_alt    "P 1"
_space_group_IT_number       1

loop_
  _space_group_symop_operation_xyz
  'x, y, z'

loop_
  _atom_site_type_symbol
  _atom_site_label
  _atom_site_symmetry_multiplicity
  _atom_site_fract_x
  _atom_site_fract_y
  _atom_site_fract_z
  _atom_site_occupancy
  Ir  Ir1       1.0  0.8068479895591737  0.010006782598793507  0.8362575769424438  1.0000
  Ir  Ir2       1.0  0.09799766540527345  0.27927055954933167  0.3099212050437927  1.0000
  Ir  Ir3       1.0  0.16919668018817902  0.27502715587615967  0.6561334133148193  1.0000
  Ir  Ir4       1.0  0.5963205695152283  0.7073885798454285  0.3228452503681183  1.0000
  O   O1        1.0  0.5832532644271851  0.6475157141685486  0.581199586391449  1.0000
  O   O2        1.0  0.13025495409965515  0.5542718172073364  0.0929446741938591  1.0000
  O   O3        1.0  0.8493903279304506  0.005822192411869764  0.29908657073974615  1.0000
  O   O4        1.0  0.6592805981636047  0.37740078568458557  0.5524125099182129  1.0000
  O   O5        1.0  0.292420893907547  0.7215258479118347  0.8312438726425171  1.0000
  O   O6        1.0  0.6823301315307617  0.0492747537791729  0.8648678660392761  1.0000
  O   O7        1.0  0.3825604617595673  0.0518447607755661  0.591629683971405  1.0000
  O   O8        1.0  0.578095018863678  0.8608928322792053  0.02586706168949604  1.0000
  Sr  Sr1       1.0  0.8783711791038514  0.3886445462703705  0.8231949806213379  1.0000
  Sr  Sr2       1.0  0.11737527698278429  0.004531056620180607  0.6693945527076721  1.0000
