data_image0
_chemical_formula_structural       Ir2O9Sr3
_chemical_formula_sum              "Ir2 O9 Sr3"
_cell_length_a       7.1401675131794535
_cell_length_b       7.354083663863042
_cell_length_c       7.280788898468018
_cell_angle_alpha    108.59316476047816
_cell_angle_beta     110.53814012777609
_cell_angle_gamma    111.00777625819843

_space_group_name_H-M_alt    "P 1"
_space_group_IT_number       1

loop_
  _space_group_symop_operation_xyz
  'x, y, z'

loop_
  _atom_site_type_symbol
  _atom_site_label
  _atom_site_symmetry_multiplicity
  _atom_site_fract_x
  _atom_site_fract_y
  _atom_site_fract_z
  _atom_site_occupancy
  Ir  Ir1       1.0  0.37332835793495184  0.8632475137710571  0.44597789645195013  1.0000
  Ir  Ir2       1.0  0.14394024014472961  0.4756419062614441  0.5841448903083801  1.0000
  O   O1        1.0  0.06582989543676376  0.9169105887413025  0.7685081958770753  1.0000
  O   O2        1.0  0.3874695301055909  0.04472935199737549  0.9745368957519532  1.0000
  O   O3        1.0  0.7220962643623353  0.48169460892677307  0.8890708088874818  1.0000
  O   O4        1.0  0.4834079742431641  0.1847812533378601  0.09436767548322682  1.0000
  O   O5        1.0  0.8572512865066529  0.8094434142112732  0.17537075281143202  1.0000
  O   O6        1.0  0.24734233319759372  0.8567396402359009  0.16767349839210513  1.0000
  O   O7        1.0  0.8766748309135438  0.6322731375694275  0.9513944983482363  1.0000
  O   O8        1.0  0.6614124774932862  0.49490952491760254  0.9372345805168153  1.0000
  O   O9        1.0  0.8604175448417665  0.23981408774852753  0.7541769742965699  1.0000
  Sr  Sr1       1.0  0.40322369337081915  0.35786059498786926  0.2656186521053314  1.0000
  Sr  Sr2       1.0  0.6245651245117188  0.06600658595561981  0.5959843397140504  1.0000
  Sr  Sr3       1.0  0.3756622672080994  0.8312022686004639  0.42300960421562206  1.0000
