data_image0
_chemical_formula_structural       CeIr4O6Sr3
_chemical_formula_sum              "Ce1 Ir4 O6 Sr3"
_cell_length_a       7.136803505556143
_cell_length_b       7.12039325675725
_cell_length_c       7.046533584594727
_cell_angle_alpha    107.1371715407403
_cell_angle_beta     110.76100663517052
_cell_angle_gamma    112.54549936136786

_space_group_name_H-M_alt    "P 1"
_space_group_IT_number       1

loop_
  _space_group_symop_operation_xyz
  'x, y, z'

loop_
  _atom_site_type_symbol
  _atom_site_label
  _atom_site_symmetry_multiplicity
  _atom_site_fract_x
  _atom_site_fract_y
  _atom_site_fract_z
  _atom_site_occupancy
  Ce  Ce1       1.0  0.7135763764381409  0.6211833357810974  0.47718679904937744  1.0000
  Ir  Ir1       1.0  0.7348316311836243  0.5942411422729492  0.7510684728622437  1.0000
  Ir  Ir2       1.0  0.4340030550956726  0.30376267433166504  0.5190834999084473  1.0000
  Ir  Ir3       1.0  0.9990764856338501  0.30329835414886475  0.4725196957588196  1.0000
  Ir  Ir4       1.0  0.7453325986862183  0.5408743023872375  0.03889196738600731  1.0000
  O   O1        1.0  0.012348612770438194  0.5702645182609558  0.11068510264158249  1.0000
  O   O2        1.0  0.031497761607170105  0.9151685833930969  0.8679294586181641  1.0000
  O   O3        1.0  0.2766171991825104  0.21566246449947357  0.8318988680839539  1.0000
  O   O4        1.0  0.7249009609222412  0.9239576458930969  0.7618796229362488  1.0000
  O   O5        1.0  0.724038302898407  0.8736147284507751  0.46251434087753296  1.0000
  O   O6        1.0  0.47427380084991455  0.8712394833564758  0.015292373485863209  1.0000
  Sr  Sr1       1.0  0.9973811507225037  0.4263755679130554  0.8117141723632812  1.0000
  Sr  Sr2       1.0  0.4551258385181427  0.30386170744895935  0.021011877804994583  1.0000
  Sr  Sr3       1.0  0.025434577837586403  0.9113351106643677  0.706540048122406  1.0000
