data_image0
_chemical_formula_structural       Ir3O7Sr4
_chemical_formula_sum              "Ir3 O7 Sr4"
_cell_length_a       6.425628997937152
_cell_length_b       6.670054853436818
_cell_length_c       6.627877235412598
_cell_angle_alpha    107.04872368336548
_cell_angle_beta     110.23456234829418
_cell_angle_gamma    114.73703224415313

_space_group_name_H-M_alt    "P 1"
_space_group_IT_number       1

loop_
  _space_group_symop_operation_xyz
  'x, y, z'

loop_
  _atom_site_type_symbol
  _atom_site_label
  _atom_site_symmetry_multiplicity
  _atom_site_fract_x
  _atom_site_fract_y
  _atom_site_fract_z
  _atom_site_occupancy
  Ir  Ir1       1.0  0.7349788546562195  0.8825505971908569  0.3065862953662871  1.0000
  Ir  Ir2       1.0  0.1868518590927124  0.6936656832695007  0.5916799902915955  1.0000
  Ir  Ir3       1.0  0.27142074704170227  0.8841736316680908  0.0916668027639389  1.0000
  O   O1        1.0  0.9688431620597839  0.18432903289794922  0.10164844989776604  1.0000
  O   O2        1.0  0.44364023208618164  0.9104049801826477  0.787525713443756  1.0000
  O   O3        1.0  0.8938571214675903  0.6504008769989014  0.43870475888252247  1.0000
  O   O4        1.0  0.11522156745195389  0.18846581876277924  0.2418684363365173  1.0000
  O   O5        1.0  0.27492764592170715  0.38892677426338196  0.08656436949968338  1.0000
  O   O6        1.0  0.3987617492675781  0.3883497714996338  0.8010842204093932  1.0000
  O   O7        1.0  0.37450602650642395  0.8022530674934387  0.7505894899368285  1.0000
  Sr  Sr1       1.0  0.8123285174369812  0.3778970539569855  0.8337851166725158  1.0000
  Sr  Sr2       1.0  0.8524356484413147  0.38336482644081116  0.7042570114135742  1.0000
  Sr  Sr3       1.0  0.29521042108535767  0.8785673379898071  0.34160712361335743  1.0000
  Sr  Sr4       1.0  0.7862923741340637  0.1407558023929596  0.6825718879699707  1.0000
