data_image0
_chemical_formula_structural       ClInNPb2PtThZr2
_chemical_formula_sum              "Cl1 In1 N1 Pb2 Pt1 Th1 Zr2"
_cell_length_a       6.968311971922097
_cell_length_b       7.515132209906979
_cell_length_c       7.716394901275635
_cell_angle_alpha    86.21968595434248
_cell_angle_beta     70.94283030711243
_cell_angle_gamma    68.87014541715516

_space_group_name_H-M_alt    "P 1"
_space_group_IT_number       1

loop_
  _space_group_symop_operation_xyz
  'x, y, z'

loop_
  _atom_site_type_symbol
  _atom_site_label
  _atom_site_symmetry_multiplicity
  _atom_site_fract_x
  _atom_site_fract_y
  _atom_site_fract_z
  _atom_site_occupancy
  Cl  Cl1       1.0  0.16890814900398254  0.4356691241264343  0.9684687852859498  1.0000
  In  In1       1.0  0.414186030626297  0.23072104156017303  0.9500891566276551  1.0000
  N   N1        1.0  0.6758129000663757  0.7590473890304565  0.6271788477897644  1.0000
  Pb  Pb1       1.0  0.15534208714962006  0.02674003317952156  0.6443148851394653  1.0000
  Pb  Pb2       1.0  0.6655121445655823  0.7692614197731018  0.9440549015998841  1.0000
  Pt  Pt1       1.0  0.31950968503952026  0.7605730295181274  0.007750746328383685  1.0000
  Th  Th1       1.0  0.6559528112411499  0.635119616985321  0.17304763197898865  1.0000
  Zr  Zr1       1.0  0.8872423768043518  0.15281951427459717  0.871973752975464  1.0000
  Zr  Zr2       1.0  0.13320034742355347  0.5528938174247742  0.7099740505218506  1.0000
