data_image0
_chemical_formula_structural       Cl2CoGeIIrKNPb
_chemical_formula_sum              "Cl2 Co1 Ge1 I1 Ir1 K1 N1 Pb1"
_cell_length_a       6.4540594935171764
_cell_length_b       6.979720286869922
_cell_length_c       7.705681324005127
_cell_angle_alpha    115.92085495989119
_cell_angle_beta     107.8904816488731
_cell_angle_gamma    91.15156261646312

_space_group_name_H-M_alt    "P 1"
_space_group_IT_number       1

loop_
  _space_group_symop_operation_xyz
  'x, y, z'

loop_
  _atom_site_type_symbol
  _atom_site_label
  _atom_site_symmetry_multiplicity
  _atom_site_fract_x
  _atom_site_fract_y
  _atom_site_fract_z
  _atom_site_occupancy
  Cl  Cl1       1.0  0.310647577047348  0.903018057346344  0.36109182238578796  1.0000
  Cl  Cl2       1.0  0.07814636081457138  0.6939195990562439  0.9641609191894532  1.0000
  Co  Co1       1.0  0.7958080768585205  0.38133570551872253  0.24100543558597567  1.0000
  Ge  Ge1       1.0  0.30155619978904724  0.8530000448226929  0.3837830722332001  1.0000
  I   I1        1.0  0.7011463046073914  0.42408815026283264  0.8642854690551759  1.0000
  Ir  Ir1       1.0  0.655407726764679  0.8701378107070923  0.6283966302871704  1.0000
  K   K1        1.0  0.3276481032371521  0.5807064771652222  0.2637023329734802  1.0000
  N   N1        1.0  0.1363019496202469  0.3569129407405853  0.7187706232070923  1.0000
  Pb  Pb1       1.0  0.31553900241851807  0.8148019313812256  0.7324016690254211  1.0000
