data_image0
_chemical_formula_structural       ClHg8
_chemical_formula_sum              "Cl1 Hg8"
_cell_length_a       5.098596529807577
_cell_length_b       7.076411650361686
_cell_length_c       7.067972183227539
_cell_angle_alpha    129.26717379788536
_cell_angle_beta     82.01927714938086
_cell_angle_gamma    99.3674722344935

_space_group_name_H-M_alt    "P 1"
_space_group_IT_number       1

loop_
  _space_group_symop_operation_xyz
  'x, y, z'

loop_
  _atom_site_type_symbol
  _atom_site_label
  _atom_site_symmetry_multiplicity
  _atom_site_fract_x
  _atom_site_fract_y
  _atom_site_fract_z
  _atom_site_occupancy
  Cl  Cl1       1.0  0.2970762550830841  0.14014075696468353  0.259845107793808  1.0000
  Hg  Hg1       1.0  0.7978490591049194  0.9692867994308472  0.06624536216259003  1.0000
  Hg  Hg2       1.0  0.7923521995544434  0.28381311893463135  0.9103478193283082  1.0000
  Hg  Hg3       1.0  0.2890035808086395  0.19961951673030853  0.8959361910820008  1.0000
  Hg  Hg4       1.0  0.7891255617141724  0.6183937788009644  0.6827126741409303  1.0000
  Hg  Hg5       1.0  0.7968027591705322  0.7779998779296875  0.8210413455963136  1.0000
  Hg  Hg6       1.0  0.7949696183204651  0.1474485844373703  0.6227086186408997  1.0000
  Hg  Hg7       1.0  0.29249095916748047  0.24907653033733368  0.6380613446235657  1.0000
  Hg  Hg8       1.0  0.2871095836162567  0.2623611390590668  0.48781111836433416  1.0000
