data_image0
_chemical_formula_structural       Cl2Hg7
_chemical_formula_sum              "Cl2 Hg7"
_cell_length_a       5.811295080275691
_cell_length_b       4.993367863601584
_cell_length_c       10.342181205749512
_cell_angle_alpha    114.83606706809107
_cell_angle_beta     97.68661391892601
_cell_angle_gamma    117.4640077619388

_space_group_name_H-M_alt    "P 1"
_space_group_IT_number       1

loop_
  _space_group_symop_operation_xyz
  'x, y, z'

loop_
  _atom_site_type_symbol
  _atom_site_label
  _atom_site_symmetry_multiplicity
  _atom_site_fract_x
  _atom_site_fract_y
  _atom_site_fract_z
  _atom_site_occupancy
  Cl  Cl1       1.0  0.3637990355491638  0.4109812676906585  0.3562849760055542  1.0000
  Cl  Cl2       1.0  0.3646818995475769  0.6337321400642394  0.6476924419403076  1.0000
  Hg  Hg1       1.0  0.053165897727012634  0.05181007087230682  0.6116669774055481  1.0000
  Hg  Hg2       1.0  0.5415265560150146  0.7285367250442504  0.10683678835630413  1.0000
  Hg  Hg3       1.0  0.8466799855232239  0.8506080508232116  0.7578495144844055  1.0000
  Hg  Hg4       1.0  0.8753586411476134  0.9970273971557616  0.6563433408737183  1.0000
  Hg  Hg5       1.0  0.09025704115629188  0.8758105635643004  0.9161641001701356  1.0000
  Hg  Hg6       1.0  0.8943323493003844  0.46011883020400995  0.8090270757675172  1.0000
  Hg  Hg7       1.0  0.34791183471679676  0.8333382606506347  0.783064603805542  1.0000
