data_image0
_chemical_formula_structural       AlAs2GaGeHgKSY2
_chemical_formula_sum              "Al1 As2 Ga1 Ge1 Hg1 K1 S1 Y2"
_cell_length_a       5.310899261117431
_cell_length_b       6.495195145660048
_cell_length_c       7.998904228210449
_cell_angle_alpha    81.78578016918834
_cell_angle_beta     69.70273321778795
_cell_angle_gamma    66.9369313652945

_space_group_name_H-M_alt    "P 1"
_space_group_IT_number       1

loop_
  _space_group_symop_operation_xyz
  'x, y, z'

loop_
  _atom_site_type_symbol
  _atom_site_label
  _atom_site_symmetry_multiplicity
  _atom_site_fract_x
  _atom_site_fract_y
  _atom_site_fract_z
  _atom_site_occupancy
  Al  Al1       1.0  0.0982847660779952  0.9422094225883485  0.9438933134078981  1.0000
  As  As1       1.0  0.5007653832435608  0.44500976800918585  0.9506245851516725  1.0000
  As  As2       1.0  0.9571557641029358  0.7703319191932678  0.9113374948501588  1.0000
  Ga  Ga1       1.0  0.3831656873226166  0.5004103779792786  0.4204415678977967  1.0000
  Ge  Ge1       1.0  0.13502557575702667  0.17153802514076233  0.5655495524406433  1.0000
  Hg  Hg1       1.0  0.37932324409484863  0.5073005557060242  0.9505144953727723  1.0000
  K   K1        1.0  0.18416479229927063  0.7588205337524414  0.6629137396812439  1.0000
  S   S1        1.0  0.589568018913269  0.02058030664920807  0.4379225373268128  1.0000
  Y   Y1        1.0  0.9060218334197998  0.10570319741964342  0.2056427896022797  1.0000
  Y   Y2        1.0  0.3905639052391052  0.010549190454185009  0.20653735101222992  1.0000
