data_image0
_chemical_formula_structural       As4Ge2KPbY2
_chemical_formula_sum              "As4 Ge2 K1 Pb1 Y2"
_cell_length_a       6.9165446310898595
_cell_length_b       7.055326422007179
_cell_length_c       7.366522312164307
_cell_angle_alpha    105.16896400282079
_cell_angle_beta     108.06308996673673
_cell_angle_gamma    111.3338253388178

_space_group_name_H-M_alt    "P 1"
_space_group_IT_number       1

loop_
  _space_group_symop_operation_xyz
  'x, y, z'

loop_
  _atom_site_type_symbol
  _atom_site_label
  _atom_site_symmetry_multiplicity
  _atom_site_fract_x
  _atom_site_fract_y
  _atom_site_fract_z
  _atom_site_occupancy
  As  As1       1.0  0.8423945307731628  0.07345285266637802  0.7914237380027771  1.0000
  As  As2       1.0  0.34706029295921326  0.09933886677026747  0.3061307370662689  1.0000
  As  As3       1.0  0.9940453767776489  0.8017138242721557  0.15603484213352203  1.0000
  As  As4       1.0  0.4398019611835479  0.8076382875442504  0.25176075100898737  1.0000
  Ge  Ge1       1.0  0.6424670219421387  0.3185512125492096  0.5494245886802673  1.0000
  Ge  Ge2       1.0  0.8379814624786377  0.7869419455528258  0.27611112594604487  1.0000
  K   K1        1.0  0.6313391923904419  0.6882343292236327  0.911152720451355  1.0000
  Pb  Pb1       1.0  0.03160960599780083  0.3175922930240631  0.4167097210884094  1.0000
  Y   Y1        1.0  0.7049339413642883  0.2994082570075989  0.15473628044128418  1.0000
  Y   Y2        1.0  0.02710028551518914  0.4589588046073913  0.7954546809196472  1.0000
