data_image0
_chemical_formula_structural       Al2As3GeK4
_chemical_formula_sum              "Al2 As3 Ge1 K4"
_cell_length_a       6.873120284301822
_cell_length_b       7.346993356513337
_cell_length_c       7.854754447937012
_cell_angle_alpha    111.88095630687941
_cell_angle_beta     105.28908015708276
_cell_angle_gamma    105.85893690056736

_space_group_name_H-M_alt    "P 1"
_space_group_IT_number       1

loop_
  _space_group_symop_operation_xyz
  'x, y, z'

loop_
  _atom_site_type_symbol
  _atom_site_label
  _atom_site_symmetry_multiplicity
  _atom_site_fract_x
  _atom_site_fract_y
  _atom_site_fract_z
  _atom_site_occupancy
  Al  Al1       1.0  0.34412041306495667  0.23241350054740909  0.2688712775707245  1.0000
  Al  Al2       1.0  0.9927890300750732  0.586281955242157  0.14171861112117767  1.0000
  As  As1       1.0  0.48889926075935364  0.5404614210128784  0.6418892741203308  1.0000
  As  As2       1.0  0.773310661315918  0.08381501585245132  0.14081861078739163  1.0000
  As  As3       1.0  0.4791112542152405  0.083768829703331  0.12508876621723172  1.0000
  Ge  Ge1       1.0  0.9697667360305786  0.5828102827072144  0.1360534280538559  1.0000
  K   K1        1.0  0.5528161525726318  0.8389469385147096  0.282536894083023  1.0000
  K   K2        1.0  0.8450844883918762  0.5505164265632629  0.3619563579559326  1.0000
  K   K3        1.0  0.24822580814361575  0.3960928618907929  0.7951528429985045  1.0000
  K   K4        1.0  0.25934478640556335  0.06108387187123299  0.852698266506195  1.0000
