data_image0
_chemical_formula_structural       As5Ge2K3
_chemical_formula_sum              "As5 Ge2 K3"
_cell_length_a       6.818608226352103
_cell_length_b       6.924268722743065
_cell_length_c       7.123547554016113
_cell_angle_alpha    111.58701095277057
_cell_angle_beta     98.89430252359423
_cell_angle_gamma    109.07708971048108

_space_group_name_H-M_alt    "P 1"
_space_group_IT_number       1

loop_
  _space_group_symop_operation_xyz
  'x, y, z'

loop_
  _atom_site_type_symbol
  _atom_site_label
  _atom_site_symmetry_multiplicity
  _atom_site_fract_x
  _atom_site_fract_y
  _atom_site_fract_z
  _atom_site_occupancy
  As  As1       1.0  0.17184291779994967  0.6472137570381165  0.2589782774448395  1.0000
  As  As2       1.0  0.8750429749488832  0.31266525387763977  0.8469167351722717  1.0000
  As  As3       1.0  0.703974485397339  0.9878779649734497  0.755404531955719  1.0000
  As  As4       1.0  0.2010711580514908  0.9906409382820129  0.05967401713132852  1.0000
  As  As5       1.0  0.5233116149902344  0.2897822856903076  0.01906209997832775  1.0000
  Ge  Ge1       1.0  0.5070338249206543  0.6431588530540466  0.780144453048706  1.0000
  Ge  Ge2       1.0  0.1408110111951828  0.6455669403076172  0.3064534664154053  1.0000
  K   K1        1.0  0.696484923362732  0.989099383354187  0.3442759215831756  1.0000
  K   K2        1.0  0.20485323667526248  0.9871936440467834  0.5550485253334045  1.0000
  K   K3        1.0  0.20134498178958896  0.3025107681751251  0.02673405408859253  1.0000
