data_image0
_chemical_formula_structural       As4Ge4K2
_chemical_formula_sum              "As4 Ge4 K2"
_cell_length_a       6.150123623961435
_cell_length_b       6.346511182793929
_cell_length_c       7.864146709442139
_cell_angle_alpha    93.17219339151966
_cell_angle_beta     88.61224473923808
_cell_angle_gamma    111.21493323943663

_space_group_name_H-M_alt    "P 1"
_space_group_IT_number       1

loop_
  _space_group_symop_operation_xyz
  'x, y, z'

loop_
  _atom_site_type_symbol
  _atom_site_label
  _atom_site_symmetry_multiplicity
  _atom_site_fract_x
  _atom_site_fract_y
  _atom_site_fract_z
  _atom_site_occupancy
  As  As1       1.0  0.5267436504364014  0.16399726271629333  0.7917132377624511  1.0000
  As  As2       1.0  0.8738927245140076  0.6700724363327026  0.7749030590057372  1.0000
  As  As3       1.0  0.23195837438106534  0.15087725222110748  0.7409703731536864  1.0000
  As  As4       1.0  0.24962173402309415  0.6444789171218872  0.47839564085006714  1.0000
  Ge  Ge1       1.0  0.5109729766845703  0.7627912163734436  0.5183941721916199  1.0000
  Ge  Ge2       1.0  0.11030513793230057  0.45967596769332886  0.7185740470886229  1.0000
  Ge  Ge3       1.0  0.5212066769599915  0.9399080872535706  0.05370602384209633  1.0000
  Ge  Ge4       1.0  0.8241405487060547  0.9491733312606812  0.06096504628658294  1.0000
  K   K1        1.0  0.7575008273124695  0.32211509346961975  0.7385140061378478  1.0000
  K   K2        1.0  0.8688893914222717  0.16135700047016144  0.9851531386375427  1.0000
