data_image0
_chemical_formula_structural       Al2As2GaGe2K3
_chemical_formula_sum              "Al2 As2 Ga1 Ge2 K3"
_cell_length_a       5.625584126535964
_cell_length_b       6.299790852382091
_cell_length_c       8.836295127868652
_cell_angle_alpha    106.71208741416419
_cell_angle_beta     88.33016642350238
_cell_angle_gamma    109.20957988921258

_space_group_name_H-M_alt    "P 1"
_space_group_IT_number       1

loop_
  _space_group_symop_operation_xyz
  'x, y, z'

loop_
  _atom_site_type_symbol
  _atom_site_label
  _atom_site_symmetry_multiplicity
  _atom_site_fract_x
  _atom_site_fract_y
  _atom_site_fract_z
  _atom_site_occupancy
  Al  Al1       1.0  0.4954589903354645  0.5694738626480103  0.3477248251438141  1.0000
  Al  Al2       1.0  0.8798047304153442  0.9447090029716492  0.14142462611198425  1.0000
  As  As1       1.0  0.3354065418243408  0.9128705859184265  0.26612263917922974  1.0000
  As  As2       1.0  0.8261834979057312  0.9467540383338928  0.02038438990712166  1.0000
  Ga  Ga1       1.0  0.3105658292770386  0.6292120814323425  0.5361817479133606  1.0000
  Ge  Ge1       1.0  0.5352394580841064  0.4385223388671875  0.030239202082157135  1.0000
  Ge  Ge2       1.0  0.9888502955436707  0.5636093616485596  0.4076661765575409  1.0000
  K   K1        1.0  0.5459839701652527  0.06611758470535278  0.6474421620368958  1.0000
  K   K2        1.0  0.0561368465423584  0.8969472050666809  0.8428962826728821  1.0000
  K   K3        1.0  0.06285595893859863  0.21730223298072815  0.5684879422187805  1.0000
