data_image0
_chemical_formula_structural       P2Sc4
_chemical_formula_sum              "P2 Sc4"
_cell_length_a       4.362617480330671
_cell_length_b       3.9911596588783476
_cell_length_c       6.037473678588867
_cell_angle_alpha    127.66760532221002
_cell_angle_beta     89.65280701034695
_cell_angle_gamma    96.9955786864342

_space_group_name_H-M_alt    "P 1"
_space_group_IT_number       1

loop_
  _space_group_symop_operation_xyz
  'x, y, z'

loop_
  _atom_site_type_symbol
  _atom_site_label
  _atom_site_symmetry_multiplicity
  _atom_site_fract_x
  _atom_site_fract_y
  _atom_site_fract_z
  _atom_site_occupancy
  P   P1        1.0  0.6549080610275269  0.407378226518631  0.25499698519706726  1.0000
  P   P2        1.0  0.08209879696369171  0.4850911796092987  0.2223789393901825  1.0000
  Sc  Sc1       1.0  0.10679126530885696  0.20673292875289917  0.9602747559547424  1.0000
  Sc  Sc2       1.0  0.6180516481399536  0.5540163516998291  0.29907199740409857  1.0000
  Sc  Sc3       1.0  0.3693464696407318  0.3618602752685547  0.44196388125419617  1.0000
  Sc  Sc4       1.0  0.3580946624279022  0.06993496417999268  0.9245250821113586  1.0000
