data_image0
_chemical_formula_structural       BiErIPPbSeTb
_chemical_formula_sum              "Bi1 Er1 I1 P1 Pb1 Se1 Tb1"
_cell_length_a       5.486982321255018
_cell_length_b       7.096399232558429
_cell_length_c       7.338449954986572
_cell_angle_alpha    116.51865031013381
_cell_angle_beta     92.05421902608491
_cell_angle_gamma    90.43276962217878

_space_group_name_H-M_alt    "P 1"
_space_group_IT_number       1

loop_
  _space_group_symop_operation_xyz
  'x, y, z'

loop_
  _atom_site_type_symbol
  _atom_site_label
  _atom_site_symmetry_multiplicity
  _atom_site_fract_x
  _atom_site_fract_y
  _atom_site_fract_z
  _atom_site_occupancy
  Bi  Bi1       1.0  0.7683852910995483  0.39691710472106934  0.03516320139169693  1.0000
  Er  Er1       1.0  0.26828598976135254  0.8656026721000671  0.9752307534217833  1.0000
  I   I1        1.0  0.7883214354515076  0.1050863191485405  0.20712123811244962  1.0000
  P   P1        1.0  0.7732512354850769  0.6516477465629578  0.9437484741210936  1.0000
  Pb  Pb1       1.0  0.2839353680610657  0.8067372441291809  0.43676030635833735  1.0000
  Se  Se1       1.0  0.8131252527236938  0.13290999829769135  0.2509816884994507  1.0000
  Tb  Tb1       1.0  0.26985225081443787  0.12103866040706636  0.987512707710266  1.0000
