data_image0
_chemical_formula_structural       Er5Se2
_chemical_formula_sum              "Er5 Se2"
_cell_length_a       4.852688408941702
_cell_length_b       7.190042989390442
_cell_length_c       7.267989635467529
_cell_angle_alpha    119.60529993297669
_cell_angle_beta     90.6160229365397
_cell_angle_gamma    91.32030954351461

_space_group_name_H-M_alt    "P 1"
_space_group_IT_number       1

loop_
  _space_group_symop_operation_xyz
  'x, y, z'

loop_
  _atom_site_type_symbol
  _atom_site_label
  _atom_site_symmetry_multiplicity
  _atom_site_fract_x
  _atom_site_fract_y
  _atom_site_fract_z
  _atom_site_occupancy
  Er  Er1       1.0  0.4528280198574066  0.34028446674346924  0.22654496133327484  1.0000
  Er  Er2       1.0  0.9495975971221924  0.21893183887004852  0.48015692830085754  1.0000
  Er  Er3       1.0  0.47055843472480774  0.378729909658432  0.049010828137397766  1.0000
  Er  Er4       1.0  0.4689968228340149  0.3272310793399811  0.29799628257751465  1.0000
  Er  Er5       1.0  0.948164701461792  0.7160398364067078  0.7352338433265686  1.0000
  Se  Se1       1.0  0.9522712230682373  0.24885377287864685  0.31750214099884033  1.0000
  Se  Se2       1.0  0.45482388138771057  0.7124783396720886  0.09385701268911362  1.0000
