data_image0
_chemical_formula_structural       HINiP2Zr2
_chemical_formula_sum              "H1 I1 Ni1 P2 Zr2"
_cell_length_a       4.731671777625984
_cell_length_b       5.536364665900172
_cell_length_c       6.755695343017578
_cell_angle_alpha    118.13769905341962
_cell_angle_beta     102.53592037287325
_cell_angle_gamma    94.35833777394774

_space_group_name_H-M_alt    "P 1"
_space_group_IT_number       1

loop_
  _space_group_symop_operation_xyz
  'x, y, z'

loop_
  _atom_site_type_symbol
  _atom_site_label
  _atom_site_symmetry_multiplicity
  _atom_site_fract_x
  _atom_site_fract_y
  _atom_site_fract_z
  _atom_site_occupancy
  H   H1        1.0  0.6880372166633606  0.09946668893098831  0.22736893594264984  1.0000
  I   I1        1.0  0.691874623298645  0.08286059647798538  0.17799656093120575  1.0000
  Ni  Ni1       1.0  0.6944764256477356  0.34330564737319946  0.5571721196174622  1.0000
  P   P1        1.0  0.19690366089344025  0.3786725699901581  0.08127285540103912  1.0000
  P   P2        1.0  0.19668449461460114  0.805487334728241  0.7777347564697266  1.0000
  Zr  Zr1       1.0  0.6864708065986633  0.33017322421073914  0.4038916826248169  1.0000
  Zr  Zr2       1.0  0.18912413716316223  0.7468891739845276  0.9686217308044434  1.0000
