data_image0
_chemical_formula_structural       La3O4Se2Si5
_chemical_formula_sum              "La3 O4 Se2 Si5"
_cell_length_a       6.011269143600693
_cell_length_b       8.273685345912854
_cell_length_c       8.556053161621094
_cell_angle_alpha    113.47305389709304
_cell_angle_beta     105.64247150185362
_cell_angle_gamma    93.8525966638

_space_group_name_H-M_alt    "P 1"
_space_group_IT_number       1

loop_
  _space_group_symop_operation_xyz
  'x, y, z'

loop_
  _atom_site_type_symbol
  _atom_site_label
  _atom_site_symmetry_multiplicity
  _atom_site_fract_x
  _atom_site_fract_y
  _atom_site_fract_z
  _atom_site_occupancy
  La  La1       1.0  0.695999026298523  0.7553750276565552  0.25666704773902893  1.0000
  La  La2       1.0  0.9748055934906006  0.0812540128827095  0.6387820839881897  1.0000
  La  La3       1.0  0.3107355535030365  0.4288128912448883  0.5935831665992737  1.0000
  O   O1        1.0  0.18508855998516083  0.7683407664299011  0.2522317469120026  1.0000
  O   O2        1.0  0.9298725128173828  0.16001173853874207  0.8353104591369629  1.0000
  O   O3        1.0  0.8703824877738953  0.08927173167467117  0.1060650572180748  1.0000
  O   O4        1.0  0.7427908778190613  0.6682171821594238  0.07861895859241486  1.0000
  Se  Se1       1.0  0.17742572724819183  0.7546359300613403  0.025884583592414856  1.0000
  Se  Se2       1.0  0.548588752746582  0.7863083481788635  0.6193655729293823  1.0000
  Si  Si1       1.0  0.9610227942466736  0.25056636333465576  0.5753186941146851  1.0000
  Si  Si2       1.0  0.44716182351112366  0.6101052165031433  0.45700716972351074  1.0000
  Si  Si3       1.0  0.04696257412433624  0.13451161980628967  0.3568556606769562  1.0000
  Si  Si4       1.0  0.8106774687767029  0.43190157413482666  0.3672679662704468  1.0000
  Si  Si5       1.0  0.6801036596298218  0.285747766494751  0.09911435842514038  1.0000
