data_image0
_chemical_formula_structural       La6NiO5Se2
_chemical_formula_sum              "La6 Ni1 O5 Se2"
_cell_length_a       5.630211060204285
_cell_length_b       7.213798392296833
_cell_length_c       8.046544075012207
_cell_angle_alpha    110.97476695868131
_cell_angle_beta     103.65771321354228
_cell_angle_gamma    88.10257299701125

_space_group_name_H-M_alt    "P 1"
_space_group_IT_number       1

loop_
  _space_group_symop_operation_xyz
  'x, y, z'

loop_
  _atom_site_type_symbol
  _atom_site_label
  _atom_site_symmetry_multiplicity
  _atom_site_fract_x
  _atom_site_fract_y
  _atom_site_fract_z
  _atom_site_occupancy
  La  La1       1.0  0.876693844795227  0.7333160638809203  0.4302045404911041  1.0000
  La  La2       1.0  0.3782922923564911  0.786684215068817  0.22053325176239014  1.0000
  La  La3       1.0  0.8498983979225159  0.11437878757715224  0.9797126054763794  1.0000
  La  La4       1.0  0.3552592098712921  0.4297878146171569  0.6199738383293152  1.0000
  La  La5       1.0  0.8550386428833008  0.25737497210502625  0.23737382888793945  1.0000
  La  La6       1.0  0.35750335454940796  0.46449255943298334  0.8599837422370911  1.0000
  Ni  Ni1       1.0  0.9451062083244324  0.7105947732925415  0.33256882429122925  1.0000
  O   O1        1.0  0.46710461378097534  0.1929984539747238  0.9846533536911011  1.0000
  O   O2        1.0  0.9554014801979065  0.052354399114847176  0.1076245978474617  1.0000
  O   O3        1.0  0.13950611650943756  0.2854268550872803  0.48163852095603943  1.0000
  O   O4        1.0  0.8514476418495178  0.5913965702056885  0.6955955028533936  1.0000
  O   O5        1.0  0.7947103977203369  0.26359429955482483  0.8223668932914734  1.0000
  Se  Se1       1.0  0.9355567097663879  0.6427390575408936  0.40653300285339355  1.0000
  Se  Se2       1.0  0.6989973783493042  0.7825984954833983  0.967978298664093  1.0000
