data_image0
_chemical_formula_structural       La3O3Se2Si6
_chemical_formula_sum              "La3 O3 Se2 Si6"
_cell_length_a       5.913110734035149
_cell_length_b       7.374778912281449
_cell_length_c       8.934229850769043
_cell_angle_alpha    112.21473998049254
_cell_angle_beta     100.44425953901509
_cell_angle_gamma    90.04405188750104

_space_group_name_H-M_alt    "P 1"
_space_group_IT_number       1

loop_
  _space_group_symop_operation_xyz
  'x, y, z'

loop_
  _atom_site_type_symbol
  _atom_site_label
  _atom_site_symmetry_multiplicity
  _atom_site_fract_x
  _atom_site_fract_y
  _atom_site_fract_z
  _atom_site_occupancy
  La  La1       1.0  0.3593172729015351  0.9883457422256471  0.9618109464645387  1.0000
  La  La2       1.0  0.1667984127998352  0.9319522976875306  0.5988091826438904  1.0000
  La  La3       1.0  0.7775244116783143  0.8136535882949829  0.8916405439376831  1.0000
  O   O1        1.0  0.17498852312564853  0.5094460248947144  0.8809694647789001  1.0000
  O   O2        1.0  0.6644918918609619  0.008347531780600548  0.3268548846244812  1.0000
  O   O3        1.0  0.32622677087783813  0.7811025381088257  0.7182275652885437  1.0000
  Se  Se1       1.0  0.07138650864362717  0.2944160997867584  0.47745165228843695  1.0000
  Se  Se2       1.0  0.6536321043968201  0.43373778462409973  0.6062430143356323  1.0000
  Si  Si1       1.0  0.33590853214263916  0.7028005719184875  0.9571910500526429  1.0000
  Si  Si2       1.0  0.804395616054535  0.5674778819084167  0.40362265706062317  1.0000
  Si  Si3       1.0  0.5524893999099731  0.2778353691101074  0.01023956760764122  1.0000
  Si  Si4       1.0  0.8033336997032167  0.30369120836257935  0.4622289538383484  1.0000
  Si  Si5       1.0  0.2888990044593811  0.307088166475296  0.2150087207555771  1.0000
  Si  Si6       1.0  0.8420567512512208  0.4493919312953949  0.945386826992035  1.0000
