data_image0
_chemical_formula_structural       La4O2Se3Si5
_chemical_formula_sum              "La4 O2 Se3 Si5"
_cell_length_a       6.223420735276294
_cell_length_b       7.407765905073504
_cell_length_c       7.779294490814209
_cell_angle_alpha    114.5513705816626
_cell_angle_beta     109.63976410555597
_cell_angle_gamma    89.18701123425556

_space_group_name_H-M_alt    "P 1"
_space_group_IT_number       1

loop_
  _space_group_symop_operation_xyz
  'x, y, z'

loop_
  _atom_site_type_symbol
  _atom_site_label
  _atom_site_symmetry_multiplicity
  _atom_site_fract_x
  _atom_site_fract_y
  _atom_site_fract_z
  _atom_site_occupancy
  La  La1       1.0  0.6111161708831787  0.711959183216095  0.39986485242843633  1.0000
  La  La2       1.0  0.32943156361579895  0.8382209539413452  0.42038848996162415  1.0000
  La  La3       1.0  0.8654630780220032  0.3481917977333069  0.5918440222740173  1.0000
  La  La4       1.0  0.8490771651268005  0.8913822174072266  0.03897331655025482  1.0000
  O   O1        1.0  0.18102885782718658  0.07829061150550842  0.6303659677505493  1.0000
  O   O2        1.0  0.6757199168205261  0.4041995108127594  0.789655089378357  1.0000
  Se  Se1       1.0  0.5933123230934143  0.5365158319473267  0.8112498521804811  1.0000
  Se  Se2       1.0  0.0920211672782898  0.7341538667678833  0.3001212775707245  1.0000
  Se  Se3       1.0  0.3359646499156952  0.9091430306434631  0.07150322943925858  1.0000
  Si  Si1       1.0  0.15868201851844788  0.05195578560233116  0.5251128673553467  1.0000
  Si  Si2       1.0  0.16760750114917755  0.41308584809303284  0.07978859543800354  1.0000
  Si  Si3       1.0  0.36556705832481384  0.04292100667953491  0.7766858935356141  1.0000
  Si  Si4       1.0  0.8655577898025513  0.5062658190727234  0.7831661701202394  1.0000
  Si  Si5       1.0  0.8273494243621826  0.04575240612030029  0.20074950158596042  1.0000
