data_image0
_chemical_formula_structural       La6O3Se2Si3
_chemical_formula_sum              "La6 O3 Se2 Si3"
_cell_length_a       5.698078031544484
_cell_length_b       8.01305168436826
_cell_length_c       8.894896507263184
_cell_angle_alpha    112.52895951852382
_cell_angle_beta     103.1788730332991
_cell_angle_gamma    89.44369525859258

_space_group_name_H-M_alt    "P 1"
_space_group_IT_number       1

loop_
  _space_group_symop_operation_xyz
  'x, y, z'

loop_
  _atom_site_type_symbol
  _atom_site_label
  _atom_site_symmetry_multiplicity
  _atom_site_fract_x
  _atom_site_fract_y
  _atom_site_fract_z
  _atom_site_occupancy
  La  La1       1.0  0.685592532157898  0.8238637447357179  0.6553677916526794  1.0000
  La  La2       1.0  0.42207714915275574  0.07289450615644455  0.9480969309806824  1.0000
  La  La3       1.0  0.1838536262512207  0.29533877968788147  0.6859177947044373  1.0000
  La  La4       1.0  0.7221450805664062  0.6778166890144348  0.795785129070282  1.0000
  La  La5       1.0  0.4103771150112152  0.20612485706806186  0.16484637558460236  1.0000
  La  La6       1.0  0.9564561247825623  0.429664433002472  0.3788345456123352  1.0000
  O   O1        1.0  0.2115984559059143  0.7578756809234619  0.3127340078353882  1.0000
  O   O2        1.0  0.9775470495223999  0.9013886451721193  0.0361468680202961  1.0000
  O   O3        1.0  0.7065979242324829  0.12870554625988007  0.0447005033493042  1.0000
  Se  Se1       1.0  0.9913990497589111  0.4974758923053742  0.30926522612571716  1.0000
  Se  Se2       1.0  0.4795410633087158  0.282635897397995  0.3574133515357971  1.0000
  Si  Si1       1.0  0.9165579676628113  0.3615141212940216  0.5998710989952087  1.0000
  Si  Si2       1.0  0.4878866672515869  0.8007941246032716  0.8234137892723083  1.0000
  Si  Si3       1.0  0.4538087844848633  0.622559130191803  0.09143972396850586  1.0000
