data_image0
_chemical_formula_structural       La5O2Se4Si3
_chemical_formula_sum              "La5 O2 Se4 Si3"
_cell_length_a       6.501740952842459
_cell_length_b       8.855920680239825
_cell_length_c       8.81765079498291
_cell_angle_alpha    119.96237559185586
_cell_angle_beta     89.54388711076359
_cell_angle_gamma    88.99007157673972

_space_group_name_H-M_alt    "P 1"
_space_group_IT_number       1

loop_
  _space_group_symop_operation_xyz
  'x, y, z'

loop_
  _atom_site_type_symbol
  _atom_site_label
  _atom_site_symmetry_multiplicity
  _atom_site_fract_x
  _atom_site_fract_y
  _atom_site_fract_z
  _atom_site_occupancy
  La  La1       1.0  0.37636148929595953  0.6988096833229065  0.10885914415121074  1.0000
  La  La2       1.0  0.37647551298141485  0.23803366720676422  0.6293550729751587  1.0000
  La  La3       1.0  0.37157744169235235  0.23211050033569336  0.3075198531150818  1.0000
  La  La4       1.0  0.37787276506423956  0.4810260534286499  0.23976860940456385  1.0000
  La  La5       1.0  0.8784497976303102  0.203844353556633  0.2568419277667999  1.0000
  O   O1        1.0  0.848901927471161  0.6560232639312744  0.523152768611908  1.0000
  O   O2        1.0  0.30248892307281494  0.9084057211875916  0.6921384930610657  1.0000
  Se  Se1       1.0  0.36498248577117925  0.9406390190124512  0.17723613977432243  1.0000
  Se  Se2       1.0  0.8458460569381715  0.5219719409942627  0.01287782471626992  1.0000
  Se  Se3       1.0  0.15315040946006778  0.07979803532361984  0.9812635183334351  1.0000
  Se  Se4       1.0  0.15201352536678314  0.48711633682250977  0.9221978783607483  1.0000
  Si  Si1       1.0  0.6542645692825317  0.09627457708120346  0.7154975533485413  1.0000
  Si  Si2       1.0  0.8901551365852357  0.8441323637962341  0.8894649147987366  1.0000
  Si  Si3       1.0  0.3924816250801087  0.20244845747947693  0.5917266607284546  1.0000
