data_image0
_chemical_formula_structural       Cd2Cl3Ru4
_chemical_formula_sum              "Cd2 Cl3 Ru4"
_cell_length_a       4.563302988434073
_cell_length_b       5.501121614922014
_cell_length_c       8.544731140136719
_cell_angle_alpha    90.34541232295157
_cell_angle_beta     89.94149659950509
_cell_angle_gamma    88.73090689942289

_space_group_name_H-M_alt    "P 1"
_space_group_IT_number       1

loop_
  _space_group_symop_operation_xyz
  'x, y, z'

loop_
  _atom_site_type_symbol
  _atom_site_label
  _atom_site_symmetry_multiplicity
  _atom_site_fract_x
  _atom_site_fract_y
  _atom_site_fract_z
  _atom_site_occupancy
  Cd  Cd1       1.0  0.10388771444559097  0.7715284824371338  0.0402316153049469  1.0000
  Cd  Cd2       1.0  0.08945997059345245  0.2640228569507599  0.6596258878707886  1.0000
  Cl  Cl1       1.0  0.08972637355327606  0.76594477891922  0.46083924174308777  1.0000
  Cl  Cl2       1.0  0.6446823477745056  0.48521819710731506  0.5843461751937866  1.0000
  Cl  Cl3       1.0  0.6011011004447937  0.7307699918746948  0.9829670786857605  1.0000
  Ru  Ru1       1.0  0.1376868039369583  0.441512793302536  0.15424741804599762  1.0000
  Ru  Ru2       1.0  0.650385856628418  0.22720257937908173  0.6868024468421936  1.0000
  Ru  Ru3       1.0  0.15487195551395416  0.24169498682022095  0.20149877667427063  1.0000
  Ru  Ru4       1.0  0.6048981547355652  0.7698858976364136  0.17764335870742798  1.0000
