data_image0
_chemical_formula_structural       CdCl4Ru3U
_chemical_formula_sum              "Cd1 Cl4 Ru3 U1"
_cell_length_a       4.744413789902206
_cell_length_b       5.431106323697116
_cell_length_c       7.862938404083252
_cell_angle_alpha    92.31810139774764
_cell_angle_beta     87.21095791556554
_cell_angle_gamma    111.12091415333569

_space_group_name_H-M_alt    "P 1"
_space_group_IT_number       1

loop_
  _space_group_symop_operation_xyz
  'x, y, z'

loop_
  _atom_site_type_symbol
  _atom_site_label
  _atom_site_symmetry_multiplicity
  _atom_site_fract_x
  _atom_site_fract_y
  _atom_site_fract_z
  _atom_site_occupancy
  Cd  Cd1       1.0  0.5795077681541443  0.8038356304168701  0.27658310532569885  1.0000
  Cl  Cl1       1.0  0.6065295934677124  0.8026281595230103  0.9813152551651001  1.0000
  Cl  Cl2       1.0  0.2886735796928406  0.9470690488815308  0.9738898277282715  1.0000
  Cl  Cl3       1.0  0.9993147253990173  0.8126286268234253  0.25252437591552734  1.0000
  Cl  Cl4       1.0  0.17566350102424622  0.29153716564178467  0.09630802273750305  1.0000
  Ru  Ru1       1.0  0.3116343319416046  0.1296689808368683  0.4864899814128876  1.0000
  Ru  Ru2       1.0  0.1699637472629547  0.28888824582099915  0.09842774271965027  1.0000
  Ru  Ru3       1.0  0.806584358215332  0.6003134846687317  0.5634462833404541  1.0000
  U   U1        1.0  0.6591804027557373  0.33285078406333923  0.9898958802223204  1.0000
