data_image0
_chemical_formula_structural       BiCd2Cl2Ru4
_chemical_formula_sum              "Bi1 Cd2 Cl2 Ru4"
_cell_length_a       5.183601761818197
_cell_length_b       5.744977019175668
_cell_length_c       7.31261682510376
_cell_angle_alpha    89.59014015738717
_cell_angle_beta     91.36477284104106
_cell_angle_gamma    88.98641991637501

_space_group_name_H-M_alt    "P 1"
_space_group_IT_number       1

loop_
  _space_group_symop_operation_xyz
  'x, y, z'

loop_
  _atom_site_type_symbol
  _atom_site_label
  _atom_site_symmetry_multiplicity
  _atom_site_fract_x
  _atom_site_fract_y
  _atom_site_fract_z
  _atom_site_occupancy
  Bi  Bi1       1.0  0.9986035227775574  0.21097303926944733  0.5576907396316528  1.0000
  Cd  Cd1       1.0  0.74284827709198  0.9646041989326477  0.8908292055130005  1.0000
  Cd  Cd2       1.0  0.7229777574539185  0.4629133641719818  0.707974910736084  1.0000
  Cl  Cl1       1.0  0.37927913665771484  0.494742214679718  0.4569665789604187  1.0000
  Cl  Cl2       1.0  0.07134810090065002  0.7571014761924744  0.19831843674182892  1.0000
  Ru  Ru1       1.0  0.7161949872970581  0.7471798658370972  0.04871486499905586  1.0000
  Ru  Ru2       1.0  0.7327420115470886  0.9661468863487244  0.31368112564086914  1.0000
  Ru  Ru3       1.0  0.49857115745544434  0.2264428287744522  0.468366414308548  1.0000
  Ru  Ru4       1.0  0.9897403717041016  0.46704840660095215  0.8150098919868469  1.0000
