data_image0
_chemical_formula_structural       BaBiCdClRu5
_chemical_formula_sum              "Ba1 Bi1 Cd1 Cl1 Ru5"
_cell_length_a       5.036727545052943
_cell_length_b       5.320376226959531
_cell_length_c       6.956204891204834
_cell_angle_alpha    89.34976267006012
_cell_angle_beta     89.69644433570284
_cell_angle_gamma    90.29573938323423

_space_group_name_H-M_alt    "P 1"
_space_group_IT_number       1

loop_
  _space_group_symop_operation_xyz
  'x, y, z'

loop_
  _atom_site_type_symbol
  _atom_site_label
  _atom_site_symmetry_multiplicity
  _atom_site_fract_x
  _atom_site_fract_y
  _atom_site_fract_z
  _atom_site_occupancy
  Ba  Ba1       1.0  0.26831039786338806  0.477678894996643  0.8141050934791566  1.0000
  Bi  Bi1       1.0  0.7636852860450745  0.004021211992949247  0.6746921539306641  1.0000
  Cd  Cd1       1.0  0.17245548963546753  0.33556658029556274  0.2633557617664337  1.0000
  Cl  Cl1       1.0  0.44110357761383057  0.49662297964096064  0.3164364993572235  1.0000
  Ru  Ru1       1.0  0.4983863532543182  0.13965103030204773  0.2965259552001953  1.0000
  Ru  Ru2       1.0  0.9943130016326903  0.138980895280838  0.19268029928207397  1.0000
  Ru  Ru3       1.0  0.25001007318496704  0.6330674290657043  0.5191935300827026  1.0000
  Ru  Ru4       1.0  0.25085511803627014  0.06477107852697372  0.989978849887848  1.0000
  Ru  Ru5       1.0  0.7613014578819275  0.0038602128624916072  0.8545063734054567  1.0000
