data_image0
_chemical_formula_structural       BaBiCl3Ru4
_chemical_formula_sum              "Ba1 Bi1 Cl3 Ru4"
_cell_length_a       5.8918107004705496
_cell_length_b       5.932032222694561
_cell_length_c       7.350301265716553
_cell_angle_alpha    67.5914002217445
_cell_angle_beta     67.84921732888583
_cell_angle_gamma    68.92757965475917

_space_group_name_H-M_alt    "P 1"
_space_group_IT_number       1

loop_
  _space_group_symop_operation_xyz
  'x, y, z'

loop_
  _atom_site_type_symbol
  _atom_site_label
  _atom_site_symmetry_multiplicity
  _atom_site_fract_x
  _atom_site_fract_y
  _atom_site_fract_z
  _atom_site_occupancy
  Ba  Ba1       1.0  0.5972864031791687  0.0013825319474563003  0.8153798580169678  1.0000
  Bi  Bi1       1.0  0.6038532853126526  0.0012467566411942244  0.2053787261247635  1.0000
  Cl  Cl1       1.0  0.08877435326576233  0.9938792586326599  0.557101845741272  1.0000
  Cl  Cl2       1.0  0.2404177486896515  0.28551411628723145  0.1798318326473236  1.0000
  Cl  Cl3       1.0  0.7825794219970703  0.5123288035392761  0.6525512337684631  1.0000
  Ru  Ru1       1.0  0.8895489573478699  0.3136061429977417  0.3090636432170868  1.0000
  Ru  Ru2       1.0  0.23381531238555908  0.14588668942451477  0.8103989362716675  1.0000
  Ru  Ru3       1.0  0.9009885191917419  0.8107995390892029  0.3103235065937042  1.0000
  Ru  Ru4       1.0  0.24336612224578857  0.7750554084777832  0.7391760945320129  1.0000
