data_image0
_chemical_formula_structural       BRu7
_chemical_formula_sum              "B1 Ru7"
_cell_length_a       4.964281765982426
_cell_length_b       5.153677737663539
_cell_length_c       5.0304951667785645
_cell_angle_alpha    63.51048899450139
_cell_angle_beta     64.46542817150461
_cell_angle_gamma    63.38298469387244

_space_group_name_H-M_alt    "P 1"
_space_group_IT_number       1

loop_
  _space_group_symop_operation_xyz
  'x, y, z'

loop_
  _atom_site_type_symbol
  _atom_site_label
  _atom_site_symmetry_multiplicity
  _atom_site_fract_x
  _atom_site_fract_y
  _atom_site_fract_z
  _atom_site_occupancy
  B   B1        1.0  0.8482205867767334  0.511606752872467  0.6511054039001465  1.0000
  Ru  Ru1       1.0  0.5927514433860779  0.012994247488677502  0.6334807276725769  1.0000
  Ru  Ru2       1.0  0.09269236028194427  0.979508101940155  0.31774598360061646  1.0000
  Ru  Ru3       1.0  0.21892820298671722  0.2746104598045349  0.16948147118091583  1.0000
  Ru  Ru4       1.0  0.25653982162475586  0.8316065669059753  0.8660659193992615  1.0000
  Ru  Ru5       1.0  0.7351230978965759  0.8252540826797485  0.908740758895874  1.0000
  Ru  Ru6       1.0  0.7688685655593872  0.30620047450065613  0.9126299023628235  1.0000
  Ru  Ru7       1.0  0.11308659613132477  0.5220791697502136  0.9477551579475403  1.0000
