data_image0
_chemical_formula_structural       B2Ru6
_chemical_formula_sum              "B2 Ru6"
_cell_length_a       3.617915034707212
_cell_length_b       6.0533771667604865
_cell_length_c       5.8703389167785645
_cell_angle_alpha    117.9192841023069
_cell_angle_beta     88.72882970396398
_cell_angle_gamma    95.12242193003253

_space_group_name_H-M_alt    "P 1"
_space_group_IT_number       1

loop_
  _space_group_symop_operation_xyz
  'x, y, z'

loop_
  _atom_site_type_symbol
  _atom_site_label
  _atom_site_symmetry_multiplicity
  _atom_site_fract_x
  _atom_site_fract_y
  _atom_site_fract_z
  _atom_site_occupancy
  B   B1        1.0  0.9194973707199098  0.5804038643836975  0.5664858818054199  1.0000
  B   B2        1.0  0.3995944261550904  0.26594623923301697  0.5987122058868408  1.0000
  Ru  Ru1       1.0  0.41527158021926885  0.9499904513359069  0.889177441596985  1.0000
  Ru  Ru2       1.0  0.912716031074524  0.9087330102920531  0.8889485001564027  1.0000
  Ru  Ru3       1.0  0.9094370603561402  0.2654592990875244  0.8942474126815797  1.0000
  Ru  Ru4       1.0  0.4205076396465302  0.5979860424995422  0.052935793995857204  1.0000
  Ru  Ru5       1.0  0.9147978425025941  0.4341335594654083  0.39007008075714117  1.0000
  Ru  Ru6       1.0  0.4139126837253571  0.9803908467292785  0.3258044719696045  1.0000
