data_image0
_chemical_formula_structural       B3MoRu4
_chemical_formula_sum              "B3 Mo1 Ru4"
_cell_length_a       3.8427635866187275
_cell_length_b       4.831254457139857
_cell_length_c       4.901996612548828
_cell_angle_alpha    111.1968676800037
_cell_angle_beta     112.6782727593798
_cell_angle_gamma    91.42303303661035

_space_group_name_H-M_alt    "P 1"
_space_group_IT_number       1

loop_
  _space_group_symop_operation_xyz
  'x, y, z'

loop_
  _atom_site_type_symbol
  _atom_site_label
  _atom_site_symmetry_multiplicity
  _atom_site_fract_x
  _atom_site_fract_y
  _atom_site_fract_z
  _atom_site_occupancy
  B   B1        1.0  0.010051568038761616  0.8079668283462524  0.6372639536857605  1.0000
  B   B2        1.0  0.331380158662796  0.3067070245742798  0.35692286491394043  1.0000
  B   B3        1.0  0.3552713096141815  0.411726176738739  0.282162070274353  1.0000
  Mo  Mo1       1.0  0.8097015023231506  0.6432134509086609  0.05362744629383087  1.0000
  Ru  Ru1       1.0  0.35729020833969116  0.04766916483640671  0.9171065092086792  1.0000
  Ru  Ru2       1.0  0.8028362393379211  0.03007202036678791  0.9143215417861938  1.0000
  Ru  Ru3       1.0  0.8932004570960999  0.5223025679588318  0.2868732810020447  1.0000
  Ru  Ru4       1.0  0.6131554841995239  0.03267248347401619  0.1780509054660797  1.0000
