data_image0
_chemical_formula_structural       Ru8
_chemical_formula_sum              "Ru8"
_cell_length_a       4.186622497069513
_cell_length_b       6.211876393444426
_cell_length_c       6.093417167663574
_cell_angle_alpha    118.51227713828408
_cell_angle_beta     91.03292675544076
_cell_angle_gamma    89.188436256053

_space_group_name_H-M_alt    "P 1"
_space_group_IT_number       1

loop_
  _space_group_symop_operation_xyz
  'x, y, z'

loop_
  _atom_site_type_symbol
  _atom_site_label
  _atom_site_symmetry_multiplicity
  _atom_site_fract_x
  _atom_site_fract_y
  _atom_site_fract_z
  _atom_site_occupancy
  Ru  Ru1       1.0  0.03782660514116287  0.09470216929912567  0.5673491358757019  1.0000
  Ru  Ru2       1.0  0.03751721978187561  0.8684253692626953  0.062229499220848014  1.0000
  Ru  Ru3       1.0  0.5364533066749573  0.37827545404434204  0.06945384293794632  1.0000
  Ru  Ru4       1.0  0.03606221824884415  0.3620624244213104  0.5658779144287109  1.0000
  Ru  Ru5       1.0  0.5404515862464905  0.36132705211639404  0.06971379369497299  1.0000
  Ru  Ru6       1.0  0.5368621945381165  0.10565413534641266  0.5662731528282166  1.0000
  Ru  Ru7       1.0  0.5391128659248352  0.8620003461837769  0.5680323839187622  1.0000
  Ru  Ru8       1.0  0.5335167050361633  0.5999818444252014  0.5709436535835266  1.0000
