data_image0
_chemical_formula_structural       Al4Dy2IPt2ScZn
_chemical_formula_sum              "Al4 Dy2 I1 Pt2 Sc1 Zn1"
_cell_length_a       5.4987448720729075
_cell_length_b       7.353564154559842
_cell_length_c       8.220942497253418
_cell_angle_alpha    114.63668246589381
_cell_angle_beta     90.06224945115665
_cell_angle_gamma    91.00953181798918

_space_group_name_H-M_alt    "P 1"
_space_group_IT_number       1

loop_
  _space_group_symop_operation_xyz
  'x, y, z'

loop_
  _atom_site_type_symbol
  _atom_site_label
  _atom_site_symmetry_multiplicity
  _atom_site_fract_x
  _atom_site_fract_y
  _atom_site_fract_z
  _atom_site_occupancy
  Al  Al1       1.0  0.890574872493744  0.5390608906745911  0.19170619547367096  1.0000
  Al  Al2       1.0  0.3951517343521118  0.7121828198432922  0.8648844361305237  1.0000
  Al  Al3       1.0  0.3927804231643677  0.49770253896713257  0.9079352021217346  1.0000
  Al  Al4       1.0  0.3902522027492523  0.7469217777252197  0.4512260854244232  1.0000
  Dy  Dy1       1.0  0.1337875872850418  0.9772142767906189  0.30269718170166016  1.0000
  Dy  Dy2       1.0  0.4008716344833374  0.6514084935188293  0.08310899138450623  1.0000
  I   I1        1.0  0.3908633589744568  0.5146934986114502  0.8037346601486206  1.0000
  Pt  Pt1       1.0  0.4005342125892639  0.22085875272750854  0.6020914316177368  1.0000
  Pt  Pt2       1.0  0.8958477973937989  0.43278804421424866  0.09411116689443588  1.0000
  Sc  Sc1       1.0  0.3966093063354492  0.40762344002723694  0.6703999042510986  1.0000
  Zn  Zn1       1.0  0.8972591161727906  0.70067298412323  0.14765620231628418  1.0000
