data_image0
_chemical_formula_structural       Al3GaHI3IrPt2
_chemical_formula_sum              "Al3 Ga1 H1 I3 Ir1 Pt2"
_cell_length_a       6.090584079773731
_cell_length_b       6.019287040688971
_cell_length_c       8.361971855163574
_cell_angle_alpha    94.02113163932688
_cell_angle_beta     91.48009915246666
_cell_angle_gamma    115.48813152471776

_space_group_name_H-M_alt    "P 1"
_space_group_IT_number       1

loop_
  _space_group_symop_operation_xyz
  'x, y, z'

loop_
  _atom_site_type_symbol
  _atom_site_label
  _atom_site_symmetry_multiplicity
  _atom_site_fract_x
  _atom_site_fract_y
  _atom_site_fract_z
  _atom_site_occupancy
  Al  Al1       1.0  0.9752190709114075  0.012763841077685356  0.8898057341575623  1.0000
  Al  Al2       1.0  0.5024279952049255  0.24657905101776123  0.23559284210205078  1.0000
  Al  Al3       1.0  0.46234098076820374  0.0389968641102314  0.16948729753494263  1.0000
  Ga  Ga1       1.0  0.49537426233291626  0.38754579424858093  0.3131610155105591  1.0000
  H   H1        1.0  0.01937880553305149  0.6457301378250122  0.030860813334584236  1.0000
  I   I1        1.0  0.9774092435836792  0.30928871035575867  0.7764838933944702  1.0000
  I   I2        1.0  0.4708694517612457  0.5634472370147705  0.5384162664413452  1.0000
  I   I3        1.0  0.4959575831890106  0.5267497897148132  0.2501143515110016  1.0000
  Ir  Ir1       1.0  0.9776468276977539  0.9652317762374878  0.47924184799194336  1.0000
  Pt  Pt1       1.0  0.5980790853500366  0.3945304751396179  0.07405366748571396  1.0000
  Pt  Pt2       1.0  0.4502047896385193  0.9740781784057617  0.6342578530311584  1.0000
