data_image0
_chemical_formula_structural       Al4AsIInNd2ScU
_chemical_formula_sum              "Al4 As1 I1 In1 Nd2 Sc1 U1"
_cell_length_a       6.510326367595006
_cell_length_b       6.540740681751461
_cell_length_c       7.667256832122803
_cell_angle_alpha    105.7996076510756
_cell_angle_beta     90.9548632694643
_cell_angle_gamma    114.95943145022231

_space_group_name_H-M_alt    "P 1"
_space_group_IT_number       1

loop_
  _space_group_symop_operation_xyz
  'x, y, z'

loop_
  _atom_site_type_symbol
  _atom_site_label
  _atom_site_symmetry_multiplicity
  _atom_site_fract_x
  _atom_site_fract_y
  _atom_site_fract_z
  _atom_site_occupancy
  Al  Al1       1.0  0.5963871479034424  0.93312269449234  0.16440325975418088  1.0000
  Al  Al2       1.0  0.09088964015245432  0.8363717198371886  0.7546928524971008  1.0000
  Al  Al3       1.0  0.06864122301340096  0.8543159365653991  0.38183656334877014  1.0000
  Al  Al4       1.0  0.047399446368217406  0.8673457503318786  0.3361757695674896  1.0000
  As  As1       1.0  0.5170703530311584  0.8204886317253112  0.5784745812416077  1.0000
  I   I1        1.0  0.8439629077911378  0.9580006003379821  0.9807702898979187  1.0000
  In  In1       1.0  0.35484030842781067  0.35610973834991455  0.3548487424850464  1.0000
  Nd  Nd1       1.0  0.5600783824920654  0.9775720834732055  0.05791083723306656  1.0000
  Nd  Nd2       1.0  0.5783432722091675  0.12268535047769545  0.3899785280227661  1.0000
  Sc  Sc1       1.0  0.003727520583197475  0.7192345857620239  0.5033678412437439  1.0000
  U   U1        1.0  0.2792485654354095  0.7837927937507628  0.03570433333516121  1.0000
