data_image0
_chemical_formula_structural       Al4Au2BiNd4
_chemical_formula_sum              "Al4 Au2 Bi1 Nd4"
_cell_length_a       5.228427867693908
_cell_length_b       7.439905563816963
_cell_length_c       7.262308597564697
_cell_angle_alpha    116.72193413294202
_cell_angle_beta     90.51443422610316
_cell_angle_gamma    91.32207765512781

_space_group_name_H-M_alt    "P 1"
_space_group_IT_number       1

loop_
  _space_group_symop_operation_xyz
  'x, y, z'

loop_
  _atom_site_type_symbol
  _atom_site_label
  _atom_site_symmetry_multiplicity
  _atom_site_fract_x
  _atom_site_fract_y
  _atom_site_fract_z
  _atom_site_occupancy
  Al  Al1       1.0  0.6990765929222107  0.6419458389282227  0.020761163905262947  1.0000
  Al  Al2       1.0  0.6995753049850464  0.5740023851394653  0.5775061845779419  1.0000
  Al  Al3       1.0  0.2056315839290619  0.19395984709262848  0.32670319080352783  1.0000
  Al  Al4       1.0  0.7009982466697693  0.4242393672466278  0.694279134273529  1.0000
  Au  Au1       1.0  0.1958319991827011  0.2541995346546173  0.22098283469676974  1.0000
  Au  Au2       1.0  0.19188077747821808  0.8298707008361816  0.4586037397384644  1.0000
  Bi  Bi1       1.0  0.20004379749298096  0.20482414960861206  0.2011121511459351  1.0000
  Nd  Nd1       1.0  0.19756779074668884  0.822687029838562  0.9459278583526612  1.0000
  Nd  Nd2       1.0  0.1969129890203476  0.7162756323814392  0.2186899185180665  1.0000
  Nd  Nd3       1.0  0.19867518544197083  0.8033348917961121  0.6881763339042664  1.0000
  Nd  Nd4       1.0  0.6982662677764893  0.5482783317565918  0.7384580373764038  1.0000
