data_image0
_chemical_formula_structural       Al3GaHNd6
_chemical_formula_sum              "Al3 Ga1 H1 Nd6"
_cell_length_a       6.002714496923259
_cell_length_b       6.384121560704303
_cell_length_c       7.372974872589111
_cell_angle_alpha    89.05114778472999
_cell_angle_beta     89.27719143319095
_cell_angle_gamma    112.51664152925491

_space_group_name_H-M_alt    "P 1"
_space_group_IT_number       1

loop_
  _space_group_symop_operation_xyz
  'x, y, z'

loop_
  _atom_site_type_symbol
  _atom_site_label
  _atom_site_symmetry_multiplicity
  _atom_site_fract_x
  _atom_site_fract_y
  _atom_site_fract_z
  _atom_site_occupancy
  Al  Al1       1.0  0.07020656019449234  0.1438693404197693  0.8235354423522949  1.0000
  Al  Al2       1.0  0.2672134041786194  0.4609808921813965  0.6318128705024719  1.0000
  Al  Al3       1.0  0.4486484229564667  0.7274789810180664  0.6807392239570618  1.0000
  Ga  Ga1       1.0  0.5206457376480103  0.9432770013809204  0.2385234236717224  1.0000
  H   H1        1.0  0.5130866765975952  0.04200693219900131  0.18334680795669556  1.0000
  Nd  Nd1       1.0  0.9882778525352478  0.7625670433044434  0.14944951236248016  1.0000
  Nd  Nd2       1.0  0.49223047494888306  0.051489997655153275  0.8432615995407104  1.0000
  Nd  Nd3       1.0  0.992746889591217  0.0981309786438942  0.4607140123844147  1.0000
  Nd  Nd4       1.0  0.9880620837211609  0.9369624257087708  0.18885216116905212  1.0000
  Nd  Nd5       1.0  0.9873453378677368  0.9292896389961243  0.16975408792495728  1.0000
  Nd  Nd6       1.0  0.9989246129989624  0.06047839671373367  0.9478651285171509  1.0000
