data_image0
_chemical_formula_structural       Al4AuNd6
_chemical_formula_sum              "Al4 Au1 Nd6"
_cell_length_a       5.640619807937025
_cell_length_b       5.967622324038271
_cell_length_c       6.106697082519531
_cell_angle_alpha    110.18080401554602
_cell_angle_beta     97.24799494041446
_cell_angle_gamma    91.7627140327354

_space_group_name_H-M_alt    "P 1"
_space_group_IT_number       1

loop_
  _space_group_symop_operation_xyz
  'x, y, z'

loop_
  _atom_site_type_symbol
  _atom_site_label
  _atom_site_symmetry_multiplicity
  _atom_site_fract_x
  _atom_site_fract_y
  _atom_site_fract_z
  _atom_site_occupancy
  Al  Al1       1.0  0.42839348316192627  0.045155372470617294  0.4636998176574707  1.0000
  Al  Al2       1.0  0.45961740612983704  0.964919924736023  0.5461838245391846  1.0000
  Al  Al3       1.0  0.45514407753944397  0.7838507890701294  0.10845329612493515  1.0000
  Al  Al4       1.0  0.46978646516799927  0.11334086209535599  0.8805181384086609  1.0000
  Au  Au1       1.0  0.9534873366355896  0.35223978757858276  0.25905710458755493  1.0000
  Nd  Nd1       1.0  0.45156633853912354  0.7913969159126282  0.7442401051521301  1.0000
  Nd  Nd2       1.0  0.4517376720905304  0.44678932428359985  0.38287779688835144  1.0000
  Nd  Nd3       1.0  0.9501611590385437  0.019337885081768036  0.7522137761116028  1.0000
  Nd  Nd4       1.0  0.9514510035514832  0.4008805751800537  0.6558713912963867  1.0000
  Nd  Nd5       1.0  0.4504830539226532  0.7469940781593323  0.9719839096069336  1.0000
  Nd  Nd6       1.0  0.9630961418151855  0.5738539099693298  0.8823436498641968  1.0000
