data_image0
_chemical_formula_structural       CeGe2Ni4Sc3Se
_chemical_formula_sum              "Ce1 Ge2 Ni4 Sc3 Se1"
_cell_length_a       4.199178796412332
_cell_length_b       6.881309773518954
_cell_length_c       7.410768508911133
_cell_angle_alpha    90.56704210726674
_cell_angle_beta     89.05759022563916
_cell_angle_gamma    90.16866939482703

_space_group_name_H-M_alt    "P 1"
_space_group_IT_number       1

loop_
  _space_group_symop_operation_xyz
  'x, y, z'

loop_
  _atom_site_type_symbol
  _atom_site_label
  _atom_site_symmetry_multiplicity
  _atom_site_fract_x
  _atom_site_fract_y
  _atom_site_fract_z
  _atom_site_occupancy
  Ce  Ce1       1.0  0.46989452838897705  0.26059797406196594  0.2210186719894409  1.0000
  Ge  Ge1       1.0  0.965563952922821  0.9390746355056764  0.43289083242416376  1.0000
  Ge  Ge2       1.0  0.4831119179725647  0.27577152848243713  0.8303404450416564  1.0000
  Ni  Ni1       1.0  0.48192232847213756  0.051662750542163856  0.7892791628837584  1.0000
  Ni  Ni2       1.0  0.4677594304084778  0.5597327947616577  0.5249348878860474  1.0000
  Ni  Ni3       1.0  0.4994879961013794  0.5605655908584595  0.0500747226178646  1.0000
  Ni  Ni4       1.0  0.4819835126399995  0.05702111870050431  0.8121523857116698  1.0000
  Sc  Sc1       1.0  0.4772433340549469  0.28096896409988403  0.5319162607192992  1.0000
  Sc  Sc2       1.0  0.9857531189918518  0.7849578857421875  0.03080164641141891  1.0000
  Sc  Sc3       1.0  0.9790236353874207  0.056531708687543876  0.5451967120170593  1.0000
  Se  Se1       1.0  0.9779183268547058  0.5690162777900696  0.020852837711572644  1.0000
