data_image0
_chemical_formula_structural       CeGe3Ni4Sc3
_chemical_formula_sum              "Ce1 Ge3 Ni4 Sc3"
_cell_length_a       4.3344889201424115
_cell_length_b       5.585167350040586
_cell_length_c       8.637593269348145
_cell_angle_alpha    89.34548988778394
_cell_angle_beta     92.36276804091162
_cell_angle_gamma    90.86787636506327

_space_group_name_H-M_alt    "P 1"
_space_group_IT_number       1

loop_
  _space_group_symop_operation_xyz
  'x, y, z'

loop_
  _atom_site_type_symbol
  _atom_site_label
  _atom_site_symmetry_multiplicity
  _atom_site_fract_x
  _atom_site_fract_y
  _atom_site_fract_z
  _atom_site_occupancy
  Ce  Ce1       1.0  0.7209754586219788  0.04445032402873039  0.7108519077301025  1.0000
  Ge  Ge1       1.0  0.8922761082649231  0.4117763638496399  0.5530103445053101  1.0000
  Ge  Ge2       1.0  0.2094944715499878  0.9222056269645691  0.8675628304481506  1.0000
  Ge  Ge3       1.0  0.7115656137466431  0.05076294392347336  0.7559750080108643  1.0000
  Ni  Ni1       1.0  0.21738176047801971  0.02917177975177765  0.8033180832862854  1.0000
  Ni  Ni2       1.0  0.28098779916763306  0.6825923919677734  0.2828385829925537  1.0000
  Ni  Ni3       1.0  0.765801191329956  0.19161830842494965  0.05313309282064438  1.0000
  Ni  Ni4       1.0  0.27145591378211975  0.687568187713623  0.8051578402519226  1.0000
  Sc  Sc1       1.0  0.25001072883605957  0.5617357492446899  0.5141994953155518  1.0000
  Sc  Sc2       1.0  0.9455562829971313  0.28751707077026367  0.5474706888198853  1.0000
  Sc  Sc3       1.0  0.6950766444206238  0.7805929183959961  0.35956111550331116  1.0000
