data_image0
_chemical_formula_structural       Ce3Ge5Ni3
_chemical_formula_sum              "Ce3 Ge5 Ni3"
_cell_length_a       5.324639722946099
_cell_length_b       5.804064115618052
_cell_length_c       6.643243789672852
_cell_angle_alpha    88.81890699248417
_cell_angle_beta     88.27152950026417
_cell_angle_gamma    103.79273898080272

_space_group_name_H-M_alt    "P 1"
_space_group_IT_number       1

loop_
  _space_group_symop_operation_xyz
  'x, y, z'

loop_
  _atom_site_type_symbol
  _atom_site_label
  _atom_site_symmetry_multiplicity
  _atom_site_fract_x
  _atom_site_fract_y
  _atom_site_fract_z
  _atom_site_occupancy
  Ce  Ce1       1.0  0.273982435464859  0.07839833945035934  0.908653438091278  1.0000
  Ce  Ce2       1.0  0.2874659299850464  0.21015411615371704  0.91052508354187  1.0000
  Ce  Ce3       1.0  0.6029935479164124  0.11155509948730469  0.5971699357032776  1.0000
  Ge  Ge1       1.0  0.9061486124992371  0.8103664517402649  0.5684396028518677  1.0000
  Ge  Ge2       1.0  0.14899006485939026  0.5205059051513672  0.3527894020080566  1.0000
  Ge  Ge3       1.0  0.25781917572021484  0.7840249538421631  0.8583667278289794  1.0000
  Ge  Ge4       1.0  0.6315752267837524  0.8175941705703735  0.39312720298767084  1.0000
  Ge  Ge5       1.0  0.1648445576429367  0.5321687459945679  0.35698565840721125  1.0000
  Ni  Ni1       1.0  0.7336386442184448  0.05213893577456474  0.1240846738219261  1.0000
  Ni  Ni2       1.0  0.198578879237175  0.5575201511383057  0.4186455905437469  1.0000
  Ni  Ni3       1.0  0.6374627351760864  0.5203696489334106  0.8584742546081542  1.0000
