data_image0
_chemical_formula_structural       CeGe3Ni5Sc2
_chemical_formula_sum              "Ce1 Ge3 Ni5 Sc2"
_cell_length_a       3.7498539372166224
_cell_length_b       6.059036413350814
_cell_length_c       7.641496658325195
_cell_angle_alpha    90.55389306530961
_cell_angle_beta     94.51886289053863
_cell_angle_gamma    91.1909933265082

_space_group_name_H-M_alt    "P 1"
_space_group_IT_number       1

loop_
  _space_group_symop_operation_xyz
  'x, y, z'

loop_
  _atom_site_type_symbol
  _atom_site_label
  _atom_site_symmetry_multiplicity
  _atom_site_fract_x
  _atom_site_fract_y
  _atom_site_fract_z
  _atom_site_occupancy
  Ce  Ce1       1.0  0.9420408010482788  0.6489038467407227  0.8372524976730347  1.0000
  Ge  Ge1       1.0  0.42698314785957336  0.6315317153930664  0.7556809186935425  1.0000
  Ge  Ge2       1.0  0.9453197121620178  0.9328197240829468  0.7842381596565247  1.0000
  Ge  Ge3       1.0  0.941108226776123  0.22592081129550934  0.07715405523777008  1.0000
  Ni  Ni1       1.0  0.42471909523010254  0.9105808734893799  0.056156549602746964  1.0000
  Ni  Ni2       1.0  0.9204431176185608  0.4046461284160614  0.34865790605545044  1.0000
  Ni  Ni3       1.0  0.9486796855926514  0.5208145380020142  0.21334366500377655  1.0000
  Ni  Ni4       1.0  0.43766409158706665  0.359996497631073  0.6967809796333313  1.0000
  Ni  Ni5       1.0  0.4492422938346863  0.9880275130271912  0.29445680975914  1.0000
  Sc  Sc1       1.0  0.4134708642959595  0.8930508494377136  0.7999014258384705  1.0000
  Sc  Sc2       1.0  0.41125044226646423  0.8633955121040344  0.8631615042686462  1.0000
