data_image0
_chemical_formula_structural       Ge2Ni5Sc4
_chemical_formula_sum              "Ge2 Ni5 Sc4"
_cell_length_a       3.9434974589603904
_cell_length_b       6.384055484297241
_cell_length_c       7.237989902496338
_cell_angle_alpha    89.19515569947052
_cell_angle_beta     90.73073144570368
_cell_angle_gamma    89.54801228861673

_space_group_name_H-M_alt    "P 1"
_space_group_IT_number       1

loop_
  _space_group_symop_operation_xyz
  'x, y, z'

loop_
  _atom_site_type_symbol
  _atom_site_label
  _atom_site_symmetry_multiplicity
  _atom_site_fract_x
  _atom_site_fract_y
  _atom_site_fract_z
  _atom_site_occupancy
  Ge  Ge1       1.0  0.7839720249176025  0.2124003767967224  0.9158443808555604  1.0000
  Ge  Ge2       1.0  0.28558972477912903  0.5067566633224487  0.1348390281200409  1.0000
  Ni  Ni1       1.0  0.7821513414382935  0.20531761646270752  0.42663452029228216  1.0000
  Ni  Ni2       1.0  0.27388906478881836  0.5122157335281372  0.7761569619178773  1.0000
  Ni  Ni3       1.0  0.27084067463874817  0.9897089004516603  0.02885493822395802  1.0000
  Ni  Ni4       1.0  0.7927178740501404  0.21018700301647186  0.9125877022743226  1.0000
  Ni  Ni5       1.0  0.7796536684036255  0.49361696839332586  0.5275445580482483  1.0000
  Sc  Sc1       1.0  0.7933887839317322  0.4450561106204987  0.9172955155372621  1.0000
  Sc  Sc2       1.0  0.29043418169021606  0.18393278121948242  0.32622444629669195  1.0000
  Sc  Sc3       1.0  0.2879565954208374  0.7030953764915466  0.5295016169548035  1.0000
  Sc  Sc4       1.0  0.7886446118354797  0.9676802158355714  0.34376659989357  1.0000
