data_image0
_chemical_formula_structural       Ce2Ge5Ni3Se
_chemical_formula_sum              "Ce2 Ge5 Ni3 Se1"
_cell_length_a       5.241146031272727
_cell_length_b       6.307164973742921
_cell_length_c       6.743803977966309
_cell_angle_alpha    92.98622992267475
_cell_angle_beta     89.1120645241697
_cell_angle_gamma    90.18593887363721

_space_group_name_H-M_alt    "P 1"
_space_group_IT_number       1

loop_
  _space_group_symop_operation_xyz
  'x, y, z'

loop_
  _atom_site_type_symbol
  _atom_site_label
  _atom_site_symmetry_multiplicity
  _atom_site_fract_x
  _atom_site_fract_y
  _atom_site_fract_z
  _atom_site_occupancy
  Ce  Ce1       1.0  0.10881665349006653  0.21162444353103638  0.4279278516769409  1.0000
  Ce  Ce2       1.0  0.10229746997356415  0.6831915378570557  0.2072312980890274  1.0000
  Ge  Ge1       1.0  0.10185225307941437  0.42787685990333557  0.040923696011304855  1.0000
  Ge  Ge2       1.0  0.0985819399356842  0.9130780696868896  0.3118767738342285  1.0000
  Ge  Ge3       1.0  0.6516557931900024  0.2401943802833557  0.7372392416000366  1.0000
  Ge  Ge4       1.0  0.6102559566497803  0.5877350568771362  0.8176597952842712  1.0000
  Ge  Ge5       1.0  0.09450176358222961  0.6702912449836731  0.36326053738594055  1.0000
  Ni  Ni1       1.0  0.5995575189590454  0.08834648877382278  0.6171730756759644  1.0000
  Ni  Ni2       1.0  0.5831946730613708  0.938022255897522  0.8786621689796448  1.0000
  Ni  Ni3       1.0  0.591396152973175  0.9277416467666626  0.9370647072792053  1.0000
  Se  Se1       1.0  0.594288170337677  0.5951082706451416  0.1737310290336609  1.0000
