data_image0
_chemical_formula_structural       FFe2GeLiO5P3
_chemical_formula_sum              "F1 Fe2 Ge1 Li1 O5 P3"
_cell_length_a       3.534585981858083
_cell_length_b       5.3552743823740805
_cell_length_c       6.01102876663208
_cell_angle_alpha    119.31030614824
_cell_angle_beta     88.47715372104716
_cell_angle_gamma    87.84343318868582

_space_group_name_H-M_alt    "P 1"
_space_group_IT_number       1

loop_
  _space_group_symop_operation_xyz
  'x, y, z'

loop_
  _atom_site_type_symbol
  _atom_site_label
  _atom_site_symmetry_multiplicity
  _atom_site_fract_x
  _atom_site_fract_y
  _atom_site_fract_z
  _atom_site_occupancy
  F   F1        1.0  0.6390809416770935  0.9753882884979247  0.191051185131073  1.0000
  Fe  Fe1       1.0  0.593280553817749  0.47373622655868525  0.6922202110290527  1.0000
  Fe  Fe2       1.0  0.6139125823974609  0.9618652462959288  0.4443603456020355  1.0000
  Ge  Ge1       1.0  0.10297588258981706  0.9564896225929259  0.29606685042381287  1.0000
  Li  Li1       1.0  0.07346366345882416  0.6650426387786865  0.12056129425764084  1.0000
  O   O1        1.0  0.12221219390630722  0.811427116394043  0.02073558419942863  1.0000
  O   O2        1.0  0.12083883583545685  0.8533658981323242  0.3834027349948883  1.0000
  O   O3        1.0  0.5918583869934082  0.30500149726867676  0.14310885965824127  1.0000
  O   O4        1.0  0.6167788505554199  0.3581933379173279  0.6283929944038391  1.0000
  O   O5        1.0  0.4378627836704254  0.6917905807495117  0.3786173462867737  1.0000
  P   P1        1.0  0.09969595819711685  0.6332049369812012  0.29460829496383667  1.0000
  P   P2        1.0  0.6241911053657532  0.3942570090293884  0.417868435382843  1.0000
  P   P3        1.0  0.10897939652204514  0.6130310893058777  0.5661147832870483  1.0000
