data_image0
_chemical_formula_structural       GaI2MoOP8
_chemical_formula_sum              "Ga1 I2 Mo1 O1 P8"
_cell_length_a       5.907992466157615
_cell_length_b       7.774578579523902
_cell_length_c       8.341795921325684
_cell_angle_alpha    75.15414963499828
_cell_angle_beta     70.82128973771785
_cell_angle_gamma    69.28528548178802

_space_group_name_H-M_alt    "P 1"
_space_group_IT_number       1

loop_
  _space_group_symop_operation_xyz
  'x, y, z'

loop_
  _atom_site_type_symbol
  _atom_site_label
  _atom_site_symmetry_multiplicity
  _atom_site_fract_x
  _atom_site_fract_y
  _atom_site_fract_z
  _atom_site_occupancy
  Ga  Ga1       1.0  0.4827018976211548  0.580482542514801  0.42167237401008606  1.0000
  I   I1        1.0  0.4542187750339508  0.48418259620666504  0.8212506771087646  1.0000
  I   I2        1.0  0.3755093812942505  0.1769731491804123  0.9359979033470154  1.0000
  Mo  Mo1       1.0  0.019139079377055168  0.9032512307167053  0.5476794838905334  1.0000
  O   O1        1.0  0.9791219830513  0.08304281532764435  0.2138357311487198  1.0000
  P   P1        1.0  0.3652922809123993  0.3361107110977173  0.4209166169166565  1.0000
  P   P2        1.0  0.9432753324508667  0.28585609793663025  0.08047886192798615  1.0000
  P   P3        1.0  0.46267929673194885  0.6092607975006104  0.6427419781684875  1.0000
  P   P4        1.0  0.9275131821632385  0.8409932255744934  0.4116882085800171  1.0000
  P   P5        1.0  0.9794278740882874  0.1401834785938263  0.10671653598546987  1.0000
  P   P6        1.0  0.4519241452217102  0.9937583804130554  0.2819720208644867  1.0000
  P   P7        1.0  0.9622294902801514  0.2506338953971863  0.22103621065616608  1.0000
  P   P8        1.0  0.4069662392139435  0.24171318113803864  0.3813757300376892  1.0000
