data_image0
_chemical_formula_structural       CuFe5O5P2
_chemical_formula_sum              "Cu1 Fe5 O5 P2"
_cell_length_a       3.6848147910422773
_cell_length_b       5.760610263499571
_cell_length_c       7.2892866134643555
_cell_angle_alpha    111.83167028039935
_cell_angle_beta     102.24793554262584
_cell_angle_gamma    90.71832282778477

_space_group_name_H-M_alt    "P 1"
_space_group_IT_number       1

loop_
  _space_group_symop_operation_xyz
  'x, y, z'

loop_
  _atom_site_type_symbol
  _atom_site_label
  _atom_site_symmetry_multiplicity
  _atom_site_fract_x
  _atom_site_fract_y
  _atom_site_fract_z
  _atom_site_occupancy
  Cu  Cu1       1.0  0.07045043259859085  0.1242308095097542  0.6399976015090943  1.0000
  Fe  Fe1       1.0  0.08431784808635712  0.7648159265518188  0.1497744619846344  1.0000
  Fe  Fe2       1.0  0.5514123439788818  0.17274214327335358  0.5257285237312317  1.0000
  Fe  Fe3       1.0  0.5751672983169556  0.8749594092369081  0.3606410324573518  1.0000
  Fe  Fe4       1.0  0.57999187707901  0.9907013177871705  0.1880717724561692  1.0000
  Fe  Fe5       1.0  0.05881550535559654  0.5894781351089478  0.35614755749702454  1.0000
  O   O1        1.0  0.5501782894134521  0.20249386131763458  0.643903911113739  1.0000
  O   O2        1.0  0.5286938548088074  0.30156955122947693  0.06841617822647095  1.0000
  O   O3        1.0  0.5574188232421875  0.984498679637909  0.9298660159111024  1.0000
  O   O4        1.0  0.07246563583612442  0.39338648319244385  0.08264902979135516  1.0000
  O   O5        1.0  0.5409911274909973  0.6999176144599915  0.00899703148752451  1.0000
  P   P1        1.0  0.5816016793251038  0.06952588260173798  0.8374804854393006  1.0000
  P   P2        1.0  0.08760570734739304  0.10187382251024246  0.6392257213592529  1.0000
