data_image0
_chemical_formula_structural       Bi4Fe6O3
_chemical_formula_sum              "Bi4 Fe6 O3"
_cell_length_a       3.7592253416094876
_cell_length_b       4.581175166590248
_cell_length_c       7.53559684753418
_cell_angle_alpha    97.66209290903774
_cell_angle_beta     94.04926132941914
_cell_angle_gamma    87.96581562777719

_space_group_name_H-M_alt    "P 1"
_space_group_IT_number       1

loop_
  _space_group_symop_operation_xyz
  'x, y, z'

loop_
  _atom_site_type_symbol
  _atom_site_label
  _atom_site_symmetry_multiplicity
  _atom_site_fract_x
  _atom_site_fract_y
  _atom_site_fract_z
  _atom_site_occupancy
  Bi  Bi1       1.0  0.9040790796279908  0.3161849081516266  0.6061444282531738  1.0000
  Bi  Bi2       1.0  0.3895487785339356  0.25380754470825195  0.15934138000011444  1.0000
  Bi  Bi3       1.0  0.5748228430747986  0.8147738575935364  0.4368114173412323  1.0000
  Bi  Bi4       1.0  0.9147121310234071  0.8283361792564392  0.0743640661239624  1.0000
  Fe  Fe1       1.0  0.7033381462097169  0.3965616822242737  0.46211928129196167  1.0000
  Fe  Fe2       1.0  0.10676003992557527  0.21975257992744446  0.7308480143547058  1.0000
  Fe  Fe3       1.0  0.3951110243797303  0.29033735394477844  0.17013326287269592  1.0000
  Fe  Fe4       1.0  0.3700892329216004  0.5880066752433777  0.9344652891159058  1.0000
  Fe  Fe5       1.0  0.9041167497634889  0.20236900448799133  0.043616045266389854  1.0000
  Fe  Fe6       1.0  0.8849470019340516  0.16793358325958252  0.566148042678833  1.0000
  O   O1        1.0  0.5587045550346375  0.4412652552127838  0.7536040544509888  1.0000
  O   O2        1.0  0.16192375123500824  0.28737494349479675  0.7348923683166504  1.0000
  O   O3        1.0  0.15464739501476288  0.8222655057907104  0.8030025362968445  1.0000
