data_image0
_chemical_formula_structural       Fe2I2O4P5
_chemical_formula_sum              "Fe2 I2 O4 P5"
_cell_length_a       4.44111660028063
_cell_length_b       4.875997281773046
_cell_length_c       12.412614822387695
_cell_angle_alpha    92.33221653835626
_cell_angle_beta     92.48315827382277
_cell_angle_gamma    94.28765486654116

_space_group_name_H-M_alt    "P 1"
_space_group_IT_number       1

loop_
  _space_group_symop_operation_xyz
  'x, y, z'

loop_
  _atom_site_type_symbol
  _atom_site_label
  _atom_site_symmetry_multiplicity
  _atom_site_fract_x
  _atom_site_fract_y
  _atom_site_fract_z
  _atom_site_occupancy
  Fe  Fe1       1.0  0.2842702865600586  0.7980275750160217  0.9442246556282043  1.0000
  Fe  Fe2       1.0  0.2758980393409729  0.08341217786073685  0.7847989797592163  1.0000
  I   I1        1.0  0.7816736698150635  0.2598644495010376  0.05144774168729782  1.0000
  I   I2        1.0  0.7651541829109192  0.5130904316902161  0.9334914684295654  1.0000
  O   O1        1.0  0.8788954615592957  0.5880826115608215  0.3655880093574524  1.0000
  O   O2        1.0  0.8130242228507996  0.06037330999970436  0.9879271388053894  1.0000
  O   O3        1.0  0.8918500542640686  0.49954646825790405  0.14507223665714264  1.0000
  O   O4        1.0  0.2576013207435608  0.8439785242080688  0.6390874981880188  1.0000
  P   P1        1.0  0.7814993858337402  0.3670336604118347  0.49534371495246887  1.0000
  P   P2        1.0  0.30614641308784485  0.3337011933326721  0.34631338715553284  1.0000
  P   P3        1.0  0.7741579413414001  0.9582265019416809  0.5468264818191528  1.0000
  P   P4        1.0  0.42759183049201965  0.1936781406402588  0.6506837010383606  1.0000
  P   P5        1.0  0.3865523040294647  0.21317599713802338  0.8947942852973938  1.0000
