data_image0
_chemical_formula_structural       FeIO5P5Tb
_chemical_formula_sum              "Fe1 I1 O5 P5 Tb1"
_cell_length_a       4.383605783761535
_cell_length_b       5.289615961667935
_cell_length_c       9.142200469970703
_cell_angle_alpha    90.2111181975244
_cell_angle_beta     92.16028049083717
_cell_angle_gamma    93.08078059014645

_space_group_name_H-M_alt    "P 1"
_space_group_IT_number       1

loop_
  _space_group_symop_operation_xyz
  'x, y, z'

loop_
  _atom_site_type_symbol
  _atom_site_label
  _atom_site_symmetry_multiplicity
  _atom_site_fract_x
  _atom_site_fract_y
  _atom_site_fract_z
  _atom_site_occupancy
  Fe  Fe1       1.0  0.9172459244728088  0.6093198657035828  0.9309385418891907  1.0000
  I   I1        1.0  0.9104248285293579  0.7665989995002747  0.33063003420829773  1.0000
  O   O1        1.0  0.28797125816345215  0.7933603525161743  0.07327939569950104  1.0000
  O   O2        1.0  0.7928911447525024  0.22109319269657135  0.6819121837615967  1.0000
  O   O3        1.0  0.9511756300926208  0.8710150718688965  0.5108805894851685  1.0000
  O   O4        1.0  0.1551220864057541  0.9187776446342468  0.7299901247024536  1.0000
  O   O5        1.0  0.4277048707008362  0.23237328231334686  0.27701452374458313  1.0000
  P   P1        1.0  0.9406619071960449  0.29468294978141785  0.14263369143009186  1.0000
  P   P2        1.0  0.4312378764152527  0.22876879572868347  0.3490646779537201  1.0000
  P   P3        1.0  0.9418631196022034  0.547360360622406  0.09365767985582352  1.0000
  P   P4        1.0  0.3921554386615753  0.5471574664115906  0.6724073886871338  1.0000
  P   P5        1.0  0.392322301864624  0.2640570104122162  0.4537646472454071  1.0000
  Tb  Tb1       1.0  0.9079089760780334  0.7658402919769287  0.6269301176071167  1.0000
