data_image0
_chemical_formula_structural       BiGaN2Sb2
_chemical_formula_sum              "Bi1 Ga1 N2 Sb2"
_cell_length_a       4.110878791176236
_cell_length_b       4.12039093138793
_cell_length_c       10.521781921386719
_cell_angle_alpha    78.73658776394596
_cell_angle_beta     78.78183031064201
_cell_angle_gamma    60.04523617693326

_space_group_name_H-M_alt    "P 1"
_space_group_IT_number       1

loop_
  _space_group_symop_operation_xyz
  'x, y, z'

loop_
  _atom_site_type_symbol
  _atom_site_label
  _atom_site_symmetry_multiplicity
  _atom_site_fract_x
  _atom_site_fract_y
  _atom_site_fract_z
  _atom_site_occupancy
  Bi  Bi1       1.0  0.5465558767318726  0.3172434866428375  0.6000559329986572  1.0000
  Ga  Ga1       1.0  0.11155414581298828  0.8859851956367493  0.905759871006012  1.0000
  N   N1        1.0  0.19382764399051666  0.9557778239250183  0.6888376474380494  1.0000
  N   N2        1.0  0.9588066339492798  0.7104209661483765  0.4260479211807251  1.0000
  Sb  Sb1       1.0  0.6580480337142944  0.4241132438182831  0.29806485772132874  1.0000
  Sb  Sb2       1.0  0.39430201053619385  0.15757286548614502  0.08562055975198747  1.0000
