data_image0
_chemical_formula_structural       Bi3Sb3
_chemical_formula_sum              "Bi3 Sb3"
_cell_length_a       4.382829801000606
_cell_length_b       4.389794795699352
_cell_length_c       13.361194610595703
_cell_angle_alpha    80.37369803620149
_cell_angle_beta     80.46727534078529
_cell_angle_gamma    60.14264414461137

_space_group_name_H-M_alt    "P 1"
_space_group_IT_number       1

loop_
  _space_group_symop_operation_xyz
  'x, y, z'

loop_
  _atom_site_type_symbol
  _atom_site_label
  _atom_site_symmetry_multiplicity
  _atom_site_fract_x
  _atom_site_fract_y
  _atom_site_fract_z
  _atom_site_occupancy
  Bi  Bi1       1.0  0.523225724697113  0.32668936252593994  0.826168417930603  1.0000
  Bi  Bi2       1.0  0.969403088092804  0.7876257300376892  0.4398086369037628  1.0000
  Bi  Bi3       1.0  0.8901822566986084  0.7036377191543579  0.6729578971862793  1.0000
  Sb  Sb1       1.0  0.13362210988998413  0.9415671229362488  0.9929994344711304  1.0000
  Sb  Sb2       1.0  0.735402524471283  0.5490106344223022  0.1569063663482666  1.0000
  Sb  Sb3       1.0  0.3581497371196747  0.16413715481758118  0.28501462936401367  1.0000
