data_image0
_chemical_formula_structural       BrPPr7RuS
_chemical_formula_sum              "Br1 P1 Pr7 Ru1 S1"
_cell_length_a       5.391939362708074
_cell_length_b       8.13802145306593
_cell_length_c       8.52209186553955
_cell_angle_alpha    108.64518616659795
_cell_angle_beta     109.3499845259575
_cell_angle_gamma    90.56532770374626

_space_group_name_H-M_alt    "P 1"
_space_group_IT_number       1

loop_
  _space_group_symop_operation_xyz
  'x, y, z'

loop_
  _atom_site_type_symbol
  _atom_site_label
  _atom_site_symmetry_multiplicity
  _atom_site_fract_x
  _atom_site_fract_y
  _atom_site_fract_z
  _atom_site_occupancy
  Br  Br1       1.0  0.3844294548034668  0.7887053489685059  0.5354614853858948  1.0000
  P   P1        1.0  0.7049171924591064  0.8946381211280823  0.7591034770011902  1.0000
  Pr  Pr1       1.0  0.5848868489265442  0.9083600640296936  0.7933474183082581  1.0000
  Pr  Pr2       1.0  0.18055611848831177  0.16300068795681  0.1742551624774933  1.0000
  Pr  Pr3       1.0  0.7968449592590332  0.3020974397659302  0.33681371808052063  1.0000
  Pr  Pr4       1.0  0.690331220626831  0.4551919996738434  0.3000788986682892  1.0000
  Pr  Pr5       1.0  0.6942088007926941  0.891770601272583  0.234495609998703  1.0000
  Pr  Pr6       1.0  0.2182384729385376  0.38297200202941895  0.978895902633667  1.0000
  Pr  Pr7       1.0  0.15343864262104034  0.9900299310684204  0.9782562255859375  1.0000
  Ru  Ru1       1.0  0.21345476806163788  0.3989754319190979  0.2852180302143097  1.0000
  S   S1        1.0  0.8360394239425659  0.8977314829826355  0.27571749687194824  1.0000
