data_image0
_chemical_formula_structural       BrP2Pr6RuSc
_chemical_formula_sum              "Br1 P2 Pr6 Ru1 Sc1"
_cell_length_a       5.999575783742449
_cell_length_b       7.2031690684890926
_cell_length_c       7.710705280303955
_cell_angle_alpha    111.93669620731451
_cell_angle_beta     109.66372954367534
_cell_angle_gamma    96.82189194572658

_space_group_name_H-M_alt    "P 1"
_space_group_IT_number       1

loop_
  _space_group_symop_operation_xyz
  'x, y, z'

loop_
  _atom_site_type_symbol
  _atom_site_label
  _atom_site_symmetry_multiplicity
  _atom_site_fract_x
  _atom_site_fract_y
  _atom_site_fract_z
  _atom_site_occupancy
  Br  Br1       1.0  0.31243079900741577  0.6488954424858093  0.9606964588165282  1.0000
  P   P1        1.0  0.7962805032730103  0.648867130279541  0.5720681548118591  1.0000
  P   P2        1.0  0.7946179509162903  0.27205032110214233  0.9916089177131652  1.0000
  Pr  Pr1       1.0  0.7924724817276001  0.15111897885799408  0.9499109983444213  1.0000
  Pr  Pr2       1.0  0.27276062965393066  0.48105937242507935  0.37348899245262146  1.0000
  Pr  Pr3       1.0  0.30548059940338135  0.3949458599090576  0.2766440212726593  1.0000
  Pr  Pr4       1.0  0.7999267578125  0.5466079115867615  0.4990839064121246  1.0000
  Pr  Pr5       1.0  0.022298751398921013  0.795215904712677  0.1506369709968567  1.0000
  Pr  Pr6       1.0  0.6829953193664551  0.034667760133743286  0.5704410076141357  1.0000
  Ru  Ru1       1.0  0.30399006605148315  0.15877462923526764  0.8686657547950744  1.0000
  Sc  Sc1       1.0  0.28561726212501526  0.9244142770767212  0.5056818127632141  1.0000
