data_image0
_chemical_formula_structural       BrIr6Pr2RuSn
_chemical_formula_sum              "Br1 Ir6 Pr2 Ru1 Sn1"
_cell_length_a       4.1599370773391335
_cell_length_b       7.694740594874242
_cell_length_c       7.531283378601074
_cell_angle_alpha    115.55161423601862
_cell_angle_beta     90.05729319248852
_cell_angle_gamma    89.71880332676365

_space_group_name_H-M_alt    "P 1"
_space_group_IT_number       1

loop_
  _space_group_symop_operation_xyz
  'x, y, z'

loop_
  _atom_site_type_symbol
  _atom_site_label
  _atom_site_symmetry_multiplicity
  _atom_site_fract_x
  _atom_site_fract_y
  _atom_site_fract_z
  _atom_site_occupancy
  Br  Br1       1.0  0.7361453175544739  0.007957014255225658  0.09769283980131149  1.0000
  Ir  Ir1       1.0  0.24504630267620087  0.7261816859245299  0.2666106224060058  1.0000
  Ir  Ir2       1.0  0.2524558901786804  0.3435961306095123  0.9710216522216797  1.0000
  Ir  Ir3       1.0  0.24052861332893372  0.7648771405220031  0.8439182043075562  1.0000
  Ir  Ir4       1.0  0.7398550510406494  0.4073412418365478  0.4119749665260315  1.0000
  Ir  Ir5       1.0  0.24664291739463806  0.7401864528656005  0.08582989871501923  1.0000
  Ir  Ir6       1.0  0.2540128827095032  0.13519111275672913  0.5052609443664551  1.0000
  Pr  Pr1       1.0  0.7296090126037598  0.20728251338005063  0.9215843677520752  1.0000
  Pr  Pr2       1.0  0.7472344040870667  0.5158484578132629  0.876167356967926  1.0000
  Ru  Ru1       1.0  0.23812994360923767  0.0033615292049944396  0.29064416885375977  1.0000
  Sn  Sn1       1.0  0.7395086884498596  0.09071071445941924  0.5156062841415405  1.0000
