data_image0
_chemical_formula_structural       BrIrPPr7Ru
_chemical_formula_sum              "Br1 Ir1 P1 Pr7 Ru1"
_cell_length_a       4.533433639507153
_cell_length_b       8.35106467073965
_cell_length_c       8.564342498779297
_cell_angle_alpha    112.35077813708291
_cell_angle_beta     88.82315361320894
_cell_angle_gamma    88.39967151133281

_space_group_name_H-M_alt    "P 1"
_space_group_IT_number       1

loop_
  _space_group_symop_operation_xyz
  'x, y, z'

loop_
  _atom_site_type_symbol
  _atom_site_label
  _atom_site_symmetry_multiplicity
  _atom_site_fract_x
  _atom_site_fract_y
  _atom_site_fract_z
  _atom_site_occupancy
  Br  Br1       1.0  0.7609370350837708  0.31624358892440796  0.14823445677757266  1.0000
  Ir  Ir1       1.0  0.7489392757415771  0.24269254505634308  0.579613983631134  1.0000
  P   P1        1.0  0.7345759272575378  0.16213051974773407  0.8163824677467346  1.0000
  Pr  Pr1       1.0  0.7469902038574219  0.2672322690486908  0.08178219944238664  1.0000
  Pr  Pr2       1.0  0.7492069602012634  0.6579830646514893  0.5240225195884705  1.0000
  Pr  Pr3       1.0  0.23690162599086761  0.17368438839912415  0.525376558303833  1.0000
  Pr  Pr4       1.0  0.733117401599884  0.902763307094574  0.12292266637086872  1.0000
  Pr  Pr5       1.0  0.24729619920253754  0.41460439562797546  0.603009045124054  1.0000
  Pr  Pr6       1.0  0.7308495044708252  0.8543722629547119  0.9726976156234741  1.0000
  Pr  Pr7       1.0  0.2586716413497925  0.11041932553052902  0.5940278768539429  1.0000
  Ru  Ru1       1.0  0.7453476190567017  0.6182552576065063  0.9673205018043518  1.0000
