data_image0
_chemical_formula_structural       AgBrPPr7Ru
_chemical_formula_sum              "Ag1 Br1 P1 Pr7 Ru1"
_cell_length_a       4.677711116131766
_cell_length_b       8.92179337081379
_cell_length_c       9.141590118408203
_cell_angle_alpha    114.82285273548369
_cell_angle_beta     90.84594862793861
_cell_angle_gamma    89.86697366053004

_space_group_name_H-M_alt    "P 1"
_space_group_IT_number       1

loop_
  _space_group_symop_operation_xyz
  'x, y, z'

loop_
  _atom_site_type_symbol
  _atom_site_label
  _atom_site_symmetry_multiplicity
  _atom_site_fract_x
  _atom_site_fract_y
  _atom_site_fract_z
  _atom_site_occupancy
  Ag  Ag1       1.0  0.43337538838386536  0.419920414686203  0.6413547396659851  1.0000
  Br  Br1       1.0  0.42729058861732483  0.46103018522262573  0.6546379327774048  1.0000
  P   P1        1.0  0.9225727915763855  0.751703679561615  0.8102274537086487  1.0000
  Pr  Pr1       1.0  0.42419588565826416  0.9675814509391785  0.3907980620861054  1.0000
  Pr  Pr2       1.0  0.42582234740257263  0.03367375582456589  0.5056112408638  1.0000
  Pr  Pr3       1.0  0.9164987206459045  0.36180379986763  0.9095450043678284  1.0000
  Pr  Pr4       1.0  0.9197225570678711  0.21976645290851593  0.1593100130558014  1.0000
  Pr  Pr5       1.0  0.9232296347618103  0.015370767563581467  0.5323628187179565  1.0000
  Pr  Pr6       1.0  0.935257613658905  0.822833240032196  0.12950842082500463  1.0000
  Pr  Pr7       1.0  0.42902225255966187  0.4934905469417572  0.328619122505188  1.0000
  Ru  Ru1       1.0  0.9252349138259888  0.5170572400093079  0.17690078914165497  1.0000
