data_image0
_chemical_formula_structural       Br2Ir7Pr2
_chemical_formula_sum              "Br2 Ir7 Pr2"
_cell_length_a       4.458400917093794
_cell_length_b       8.023092184611407
_cell_length_c       7.907900333404541
_cell_angle_alpha    120.5816348905447
_cell_angle_beta     90.07208609524025
_cell_angle_gamma    89.76392065774289

_space_group_name_H-M_alt    "P 1"
_space_group_IT_number       1

loop_
  _space_group_symop_operation_xyz
  'x, y, z'

loop_
  _atom_site_type_symbol
  _atom_site_label
  _atom_site_symmetry_multiplicity
  _atom_site_fract_x
  _atom_site_fract_y
  _atom_site_fract_z
  _atom_site_occupancy
  Br  Br1       1.0  0.3176698088645935  0.31232476234436035  0.9365660548210144  1.0000
  Br  Br2       1.0  0.31412267684936523  0.6154897212982178  0.5583742260932922  1.0000
  Ir  Ir1       1.0  0.8177961111068726  0.8192138671875001  0.04837854951620102  1.0000
  Ir  Ir2       1.0  0.8054383993148804  0.4648770689964295  0.3496096730232239  1.0000
  Ir  Ir3       1.0  0.30287182331085205  0.4024336934089661  0.8561770915985107  1.0000
  Ir  Ir4       1.0  0.8174239993095398  0.3459627330303192  0.2359901666641235  1.0000
  Ir  Ir5       1.0  0.307922899723053  0.7306272387504578  0.38203936815261835  1.0000
  Ir  Ir6       1.0  0.3150627911090851  0.2907536029815674  0.5856783986091614  1.0000
  Ir  Ir7       1.0  0.8144553899765015  0.6003769040107727  0.05910645052790636  1.0000
  Pr  Pr1       1.0  0.3116685152053833  0.1283354014158249  0.08562383800745009  1.0000
  Pr  Pr2       1.0  0.8082929253578186  0.7756912708282472  0.7326415777206421  1.0000
