data_image0
_chemical_formula_structural       BGeMnSTh4Tl2
_chemical_formula_sum              "B1 Ge1 Mn1 S1 Th4 Tl2"
_cell_length_a       5.463178569497354
_cell_length_b       5.935064432674137
_cell_length_c       8.580348014831543
_cell_angle_alpha    91.0556786768215
_cell_angle_beta     90.22439036480186
_cell_angle_gamma    90.60933404265259

_space_group_name_H-M_alt    "P 1"
_space_group_IT_number       1

loop_
  _space_group_symop_operation_xyz
  'x, y, z'

loop_
  _atom_site_type_symbol
  _atom_site_label
  _atom_site_symmetry_multiplicity
  _atom_site_fract_x
  _atom_site_fract_y
  _atom_site_fract_z
  _atom_site_occupancy
  B   B1        1.0  0.7289179563522339  0.1124979853630066  0.18942731618881226  1.0000
  Ge  Ge1       1.0  0.8048997521400452  0.8917548060417176  0.5774701833724976  1.0000
  Mn  Mn1       1.0  0.49321049451828003  0.620331346988678  0.0601905956864357  1.0000
  S   S1        1.0  0.7212677597999573  0.6227051019668579  0.17026306688785553  1.0000
  Th  Th1       1.0  0.2712453007698059  0.9041171669960023  0.8877326846122742  1.0000
  Th  Th2       1.0  0.2326449155807495  0.4035793244838715  0.20032021403312683  1.0000
  Th  Th3       1.0  0.7503985166549683  0.40886077284812933  0.8640762567520142  1.0000
  Th  Th4       1.0  0.2210099697113037  0.40181720256805425  0.5589255690574646  1.0000
  Tl  Tl1       1.0  0.7483293414115906  0.9144020676612855  0.37937575578689575  1.0000
  Tl  Tl2       1.0  0.7264334559440613  0.11707726866006853  0.182342991232872  1.0000
