data_image0
_chemical_formula_structural       CdO3Se4Th2
_chemical_formula_sum              "Cd1 O3 Se4 Th2"
_cell_length_a       4.353735185862764
_cell_length_b       6.589054814948553
_cell_length_c       6.545953273773193
_cell_angle_alpha    123.15018788285387
_cell_angle_beta     84.27845697005412
_cell_angle_gamma    97.76047710447632

_space_group_name_H-M_alt    "P 1"
_space_group_IT_number       1

loop_
  _space_group_symop_operation_xyz
  'x, y, z'

loop_
  _atom_site_type_symbol
  _atom_site_label
  _atom_site_symmetry_multiplicity
  _atom_site_fract_x
  _atom_site_fract_y
  _atom_site_fract_z
  _atom_site_occupancy
  Cd  Cd1       1.0  0.21185170114040375  0.6705033779144287  0.9191379547119141  1.0000
  O   O1        1.0  0.7037748098373413  0.17099834978580475  0.02119569480419158  1.0000
  O   O2        1.0  0.20649568736553192  0.29757702350616455  0.12129347026348113  1.0000
  O   O3        1.0  0.20958365499973297  0.2860811948776245  0.49502095580101013  1.0000
  Se  Se1       1.0  0.2175625115633011  0.46850261092185974  0.18101987242698667  1.0000
  Se  Se2       1.0  0.20421580970287323  0.7961754202842712  0.6136083602905273  1.0000
  Se  Se3       1.0  0.7021565437316895  0.01073408592492342  0.479532927274704  1.0000
  Se  Se4       1.0  0.21406468749046326  0.36360666155815125  0.9334509372711182  1.0000
  Th  Th1       1.0  0.6997165679931641  0.8944370150566101  0.21050609648227692  1.0000
  Th  Th2       1.0  0.6962091326713562  0.20433665812015533  0.6336219310760498  1.0000
