data_image0
_chemical_formula_structural       CdHO3PtSe4
_chemical_formula_sum              "Cd1 H1 O3 Pt1 Se4"
_cell_length_a       5.656307723351809
_cell_length_b       7.074996332239034
_cell_length_c       7.254905700683594
_cell_angle_alpha    118.65130873075087
_cell_angle_beta     87.96433879361311
_cell_angle_gamma    90.44496625489222

_space_group_name_H-M_alt    "P 1"
_space_group_IT_number       1

loop_
  _space_group_symop_operation_xyz
  'x, y, z'

loop_
  _atom_site_type_symbol
  _atom_site_label
  _atom_site_symmetry_multiplicity
  _atom_site_fract_x
  _atom_site_fract_y
  _atom_site_fract_z
  _atom_site_occupancy
  Cd  Cd1       1.0  0.8190261125564575  0.8912959694862366  0.5591686367988586  1.0000
  H   H1        1.0  0.3111973702907562  0.915347158908844  0.09556551277637487  1.0000
  O   O1        1.0  0.8221473693847656  0.15598246455192566  0.8700722455978394  1.0000
  O   O2        1.0  0.3261222243309021  0.4988403022289276  0.8574379086494446  1.0000
  O   O3        1.0  0.3305884301662445  0.634659469127655  0.58110111951828  1.0000
  Pt  Pt1       1.0  0.30153489112854004  0.14583474397659302  0.8816106915473938  1.0000
  Se  Se1       1.0  0.8201330900192261  0.3704560697078705  0.05753165483474734  1.0000
  Se  Se2       1.0  0.8160325884819031  0.4163529574871063  0.31357038021087646  1.0000
  Se  Se3       1.0  0.3142491579055786  0.020615313202142715  0.10568808019161224  1.0000
  Se  Se4       1.0  0.8062732815742493  0.8680017590522766  0.32564488053321844  1.0000
