data_image0
_chemical_formula_structural       AsGaI4PbV2Zr
_chemical_formula_sum              "As1 Ga1 I4 Pb1 V2 Zr1"
_cell_length_a       6.664390670531837
_cell_length_b       7.059057973205344
_cell_length_c       7.146047592163086
_cell_angle_alpha    134.83536246539938
_cell_angle_beta     89.16301498793523
_cell_angle_gamma    88.82311101302007

_space_group_name_H-M_alt    "P 1"
_space_group_IT_number       1

loop_
  _space_group_symop_operation_xyz
  'x, y, z'

loop_
  _atom_site_type_symbol
  _atom_site_label
  _atom_site_symmetry_multiplicity
  _atom_site_fract_x
  _atom_site_fract_y
  _atom_site_fract_z
  _atom_site_occupancy
  As  As1       1.0  0.875728189945221  0.37991249561309814  0.551840603351593  1.0000
  Ga  Ga1       1.0  0.3882356584072113  0.30197975039482117  0.7856034040451051  1.0000
  I   I1        1.0  0.39573872089385986  0.6185509562492371  0.37331417202949524  1.0000
  I   I2        1.0  0.890196681022644  0.910778820514679  0.0774172618985175  1.0000
  I   I3        1.0  0.5039857625961304  0.7244417071342468  0.6957856416702272  1.0000
  I   I4        1.0  0.8998298048973083  0.5955968499183655  0.9415100812911988  1.0000
  Pb  Pb1       1.0  0.39923185110092163  0.2731793224811554  0.9079712629318237  1.0000
  V   V1        1.0  0.8915373086929321  0.8171302080154419  0.09576537460088724  1.0000
  V   V2        1.0  0.1897403597831726  0.49510657787323  0.5178462862968445  1.0000
  Zr  Zr1       1.0  0.52974933385849  0.642295777797699  0.8879786729812623  1.0000
