data_image0
_chemical_formula_structural       CoGaHfI5MoV
_chemical_formula_sum              "Co1 Ga1 Hf1 I5 Mo1 V1"
_cell_length_a       7.625206523632239
_cell_length_b       9.074576423483224
_cell_length_c       9.656209945678711
_cell_angle_alpha    123.84316227323968
_cell_angle_beta     90.1130204561856
_cell_angle_gamma    89.8707559725941

_space_group_name_H-M_alt    "P 1"
_space_group_IT_number       1

loop_
  _space_group_symop_operation_xyz
  'x, y, z'

loop_
  _atom_site_type_symbol
  _atom_site_label
  _atom_site_symmetry_multiplicity
  _atom_site_fract_x
  _atom_site_fract_y
  _atom_site_fract_z
  _atom_site_occupancy
  Co  Co1       1.0  0.48177364468574524  0.7189731001853943  0.7797133326530457  1.0000
  Ga  Ga1       1.0  0.9978857636451721  0.9006688594818116  0.8871138691902161  1.0000
  Hf  Hf1       1.0  0.993528425693512  0.522151529788971  0.5950052738189697  1.0000
  I   I1        1.0  0.4915873110294342  0.7395845055580139  0.1397016197443009  1.0000
  I   I2        1.0  0.9939446449279784  0.4962683320045472  0.9345179796218872  1.0000
  I   I3        1.0  0.4959712326526642  0.5998654961585999  0.9148966073989868  1.0000
  I   I4        1.0  0.0021392719354480505  0.47301930189132696  0.3818606138229371  1.0000
  I   I5        1.0  0.0001859887270256877  0.7423039674758911  0.8412564992904663  1.0000
  Mo  Mo1       1.0  0.5143179297447205  0.5674932599067688  0.27151250839233404  1.0000
  V   V1        1.0  0.4986308515071869  0.9094972610473634  0.9366124868392944  1.0000
