data_image0
_chemical_formula_structural       CaI6LiPbV
_chemical_formula_sum              "Ca1 I6 Li1 Pb1 V1"
_cell_length_a       9.33376725552606
_cell_length_b       10.746120119621013
_cell_length_c       12.213732719421387
_cell_angle_alpha    125.91311584024919
_cell_angle_beta     91.37626079692096
_cell_angle_gamma    86.57684915905334

_space_group_name_H-M_alt    "P 1"
_space_group_IT_number       1

loop_
  _space_group_symop_operation_xyz
  'x, y, z'

loop_
  _atom_site_type_symbol
  _atom_site_label
  _atom_site_symmetry_multiplicity
  _atom_site_fract_x
  _atom_site_fract_y
  _atom_site_fract_z
  _atom_site_occupancy
  Ca  Ca1       1.0  0.2626541554927826  0.5303369760513306  0.38086822628974915  1.0000
  I   I1        1.0  0.8706073760986328  0.9019640684127808  0.8069804310798645  1.0000
  I   I2        1.0  0.391762375831604  0.4546833336353302  0.18623541295528417  1.0000
  I   I3        1.0  0.7918765544891357  0.46394726634025574  0.18488070368766785  1.0000
  I   I4        1.0  0.9159564971923828  0.31380048394203186  0.12293285876512529  1.0000
  I   I5        1.0  0.26981645822525024  0.2664920687675476  0.22785662114620212  1.0000
  I   I6        1.0  0.2634570896625519  0.4087568521499634  0.0009224073146470301  1.0000
  Li  Li1       1.0  0.2694702744483948  0.42131534218788147  0.4307823479175568  1.0000
  Pb  Pb1       1.0  0.8850407600402832  0.4658355712890625  0.06316318362951279  1.0000
  V   V1        1.0  0.6799168586730957  0.9530748724937439  0.37233972549438477  1.0000
