data_image0
_chemical_formula_structural       Hg10
_chemical_formula_sum              "Hg10"
_cell_length_a       8.731954208437292
_cell_length_b       9.876186974232558
_cell_length_c       12.528964042663574
_cell_angle_alpha    117.90973439586999
_cell_angle_beta     97.5295108364862
_cell_angle_gamma    106.0952854232475

_space_group_name_H-M_alt    "P 1"
_space_group_IT_number       1

loop_
  _space_group_symop_operation_xyz
  'x, y, z'

loop_
  _atom_site_type_symbol
  _atom_site_label
  _atom_site_symmetry_multiplicity
  _atom_site_fract_x
  _atom_site_fract_y
  _atom_site_fract_z
  _atom_site_occupancy
  Hg  Hg1       1.0  0.8427773118019104  0.7988269329071045  0.2487831562757493  1.0000
  Hg  Hg2       1.0  0.9648333787918091  0.40091559290885925  0.035273864865303074  1.0000
  Hg  Hg3       1.0  0.4815162718296051  0.8134583830833435  0.26252180337905884  1.0000
  Hg  Hg4       1.0  0.9575212597846985  0.04638063907623291  0.0029705804772675037  1.0000
  Hg  Hg5       1.0  0.4639701247215271  0.47621700167655945  0.7830910682678223  1.0000
  Hg  Hg6       1.0  0.4580988883972168  0.629328727722168  0.5381314754486084  1.0000
  Hg  Hg7       1.0  0.9763185381889343  0.6875837445259094  0.8527278900146484  1.0000
  Hg  Hg8       1.0  0.8307566046714783  0.9383541941642761  0.04819822311401375  1.0000
  Hg  Hg9       1.0  0.737669050693512  0.10352827608585358  0.8861913084983826  1.0000
  Hg  Hg10      1.0  0.3120633065700531  0.7222711443901062  0.2768266201019287  1.0000
