data_image0
_chemical_formula_structural       Ca2I8
_chemical_formula_sum              "Ca2 I8"
_cell_length_a       8.35654363346771
_cell_length_b       9.199646804281958
_cell_length_c       11.330107688903809
_cell_angle_alpha    120.30373016105081
_cell_angle_beta     94.23664921998008
_cell_angle_gamma    93.9479890512851

_space_group_name_H-M_alt    "P 1"
_space_group_IT_number       1

loop_
  _space_group_symop_operation_xyz
  'x, y, z'

loop_
  _atom_site_type_symbol
  _atom_site_label
  _atom_site_symmetry_multiplicity
  _atom_site_fract_x
  _atom_site_fract_y
  _atom_site_fract_z
  _atom_site_occupancy
  Ca  Ca1       1.0  0.2634188234806061  0.24647894501686093  0.5204899907112122  1.0000
  Ca  Ca2       1.0  0.7592858672142029  0.6921737194061278  0.5244801044464111  1.0000
  I   I1        1.0  0.6886392831802368  0.8683367371559142  0.6757304668426514  1.0000
  I   I2        1.0  0.2207825928926468  0.8996765613555907  0.9446077346801758  1.0000
  I   I3        1.0  0.8333873152732849  0.9798686504364013  0.70688796043396  1.0000
  I   I4        1.0  0.004646154120564457  0.1950515508651733  0.6922218203544617  1.0000
  I   I5        1.0  0.25578293204307556  0.27294799685478205  0.014966024085879307  1.0000
  I   I6        1.0  0.6130918860435486  0.20707078278064725  0.6454480290412903  1.0000
  I   I7        1.0  0.7876359820365906  0.19315958023071286  0.513122022151947  1.0000
  I   I8        1.0  0.2590433657169342  0.4659587740898132  0.9977928400039673  1.0000
