data_image0
_chemical_formula_structural       Hg10
_chemical_formula_sum              "Hg10"
_cell_length_a       6.152410488310667
_cell_length_b       7.933719229965205
_cell_length_c       8.431376457214355
_cell_angle_alpha    124.44527172461753
_cell_angle_beta     88.87231781629549
_cell_angle_gamma    96.23946159454107

_space_group_name_H-M_alt    "P 1"
_space_group_IT_number       1

loop_
  _space_group_symop_operation_xyz
  'x, y, z'

loop_
  _atom_site_type_symbol
  _atom_site_label
  _atom_site_symmetry_multiplicity
  _atom_site_fract_x
  _atom_site_fract_y
  _atom_site_fract_z
  _atom_site_occupancy
  Hg  Hg1       1.0  0.910804808139801  0.3596389889717102  0.3615959584712982  1.0000
  Hg  Hg2       1.0  0.16706062853336334  0.35978421568870544  0.6240674257278442  1.0000
  Hg  Hg3       1.0  0.6005105376243591  0.6242522597312927  0.4601156711578369  1.0000
  Hg  Hg4       1.0  0.12223610281944275  0.945845365524292  0.057026870548725024  1.0000
  Hg  Hg5       1.0  0.38948729634284973  0.7955858707427979  0.34637182950973505  1.0000
  Hg  Hg6       1.0  0.5848499536514282  0.5938183665275574  0.3035780489444732  1.0000
  Hg  Hg7       1.0  0.6122598052024841  0.5892614126205444  0.37949526309967035  1.0000
  Hg  Hg8       1.0  0.12173145264387131  0.1526641994714737  0.409341961145401  1.0000
  Hg  Hg9       1.0  0.12264053523540497  0.5199424624443054  0.38669225573539734  1.0000
  Hg  Hg10      1.0  0.0511917881667614  0.8549695014953613  0.19494144618511194  1.0000
