data_image0
_chemical_formula_structural       AuFGa4KLiVZn
_chemical_formula_sum              "Au1 F1 Ga4 K1 Li1 V1 Zn1"
_cell_length_a       6.553387410231389
_cell_length_b       6.251716762169813
_cell_length_c       7.776788711547852
_cell_angle_alpha    93.65790072935133
_cell_angle_beta     95.45082112322186
_cell_angle_gamma    115.81896335890607

_space_group_name_H-M_alt    "P 1"
_space_group_IT_number       1

loop_
  _space_group_symop_operation_xyz
  'x, y, z'

loop_
  _atom_site_type_symbol
  _atom_site_label
  _atom_site_symmetry_multiplicity
  _atom_site_fract_x
  _atom_site_fract_y
  _atom_site_fract_z
  _atom_site_occupancy
  Au  Au1       1.0  0.9539286494255067  0.1998388171195984  0.3625907301902771  1.0000
  F   F1        1.0  0.5893287658691406  0.00782377552241087  0.5429396033287048  1.0000
  Ga  Ga1       1.0  0.29079127311706543  0.004143795929849148  0.754984438419342  1.0000
  Ga  Ga2       1.0  0.46005204319953924  0.7150943875312805  0.855050265789032  1.0000
  Ga  Ga3       1.0  0.6024473309516907  0.9393050074577332  0.8689910769462585  1.0000
  Ga  Ga4       1.0  0.25750499963760376  0.8171476721763611  0.7773178219795227  1.0000
  K   K1        1.0  0.7491973638534546  0.15850277245044708  0.6345882415771484  1.0000
  Li  Li1       1.0  0.08186561614274979  0.6414279341697693  0.16410808265209198  1.0000
  V   V1        1.0  0.0034052447881549428  0.5757113695144653  0.9105613231658936  1.0000
  Zn  Zn1       1.0  0.24856463074684146  0.48958131670951843  0.21752005815505981  1.0000
