data_image0
_chemical_formula_structural       Au6GaK3
_chemical_formula_sum              "Au6 Ga1 K3"
_cell_length_a       8.33137127043162
_cell_length_b       7.672349830984682
_cell_length_c       8.322103500366211
_cell_angle_alpha    102.62118849830298
_cell_angle_beta     95.92383808824087
_cell_angle_gamma    118.81373887967823

_space_group_name_H-M_alt    "P 1"
_space_group_IT_number       1

loop_
  _space_group_symop_operation_xyz
  'x, y, z'

loop_
  _atom_site_type_symbol
  _atom_site_label
  _atom_site_symmetry_multiplicity
  _atom_site_fract_x
  _atom_site_fract_y
  _atom_site_fract_z
  _atom_site_occupancy
  Au  Au1       1.0  0.9402139186859131  0.5955210328102112  0.2546066641807556  1.0000
  Au  Au2       1.0  0.6938284039497375  0.8866317272186279  0.9480519890785217  1.0000
  Au  Au3       1.0  0.9590262770652771  0.46210992336273193  0.6832830309867859  1.0000
  Au  Au4       1.0  0.1147940382361412  0.0911257416009903  0.9206098914146423  1.0000
  Au  Au5       1.0  0.5464832782745361  0.9425796270370483  0.6981990337371826  1.0000
  Au  Au6       1.0  0.9891242384910583  0.2517976760864258  0.41965818405151367  1.0000
  Ga  Ga1       1.0  0.3810790777206421  0.11260126531124115  0.3526376783847809  1.0000
  K   K1        1.0  0.22108270227909088  0.6094205379486084  0.01898852549493313  1.0000
  K   K2        1.0  0.21170800924301147  0.2925702631473541  0.1848701685667038  1.0000
  K   K3        1.0  0.5878592729568481  0.31532788276672363  0.6996988654136658  1.0000
