data_image0
_chemical_formula_structural       AuGa4K2PtVW
_chemical_formula_sum              "Au1 Ga4 K2 Pt1 V1 W1"
_cell_length_a       5.140969830267457
_cell_length_b       5.168606125472789
_cell_length_c       6.2557525634765625
_cell_angle_alpha    122.76665306465424
_cell_angle_beta     88.48411759831328
_cell_angle_gamma    92.36662045740526

_space_group_name_H-M_alt    "P 1"
_space_group_IT_number       1

loop_
  _space_group_symop_operation_xyz
  'x, y, z'

loop_
  _atom_site_type_symbol
  _atom_site_label
  _atom_site_symmetry_multiplicity
  _atom_site_fract_x
  _atom_site_fract_y
  _atom_site_fract_z
  _atom_site_occupancy
  Au  Au1       1.0  0.8955392837524414  0.45698830485343933  0.45755669474601746  1.0000
  Ga  Ga1       1.0  0.5632648468017578  0.5612788200378418  0.19961199164390564  1.0000
  Ga  Ga2       1.0  0.6461207866668701  0.21123076975345612  0.542246401309967  1.0000
  Ga  Ga3       1.0  0.10529101639986038  0.3671380281448364  0.7638275623321533  1.0000
  Ga  Ga4       1.0  0.9009045362472534  0.691586971282959  0.8906070590019226  1.0000
  K   K1        1.0  0.93180251121521  0.8275758624076843  0.04581158235669136  1.0000
  K   K2        1.0  0.4540674686431885  0.25949376821517944  0.8158711791038513  1.0000
  Pt  Pt1       1.0  0.44919174909591675  0.9019445180892944  0.7207827568054199  1.0000
  V   V1        1.0  0.45697253942489624  0.5583944916725159  0.10006968677043915  1.0000
  W   W1        1.0  0.944732666015625  0.09602787345647812  0.7762699127197266  1.0000
