data_image0
_chemical_formula_structural       Au6K4
_chemical_formula_sum              "Au6 K4"
_cell_length_a       6.691104404110198
_cell_length_b       6.339297942894203
_cell_length_c       6.393032073974609
_cell_angle_alpha    88.7398300177925
_cell_angle_beta     89.4228210165575
_cell_angle_gamma    102.74452109045022

_space_group_name_H-M_alt    "P 1"
_space_group_IT_number       1

loop_
  _space_group_symop_operation_xyz
  'x, y, z'

loop_
  _atom_site_type_symbol
  _atom_site_label
  _atom_site_symmetry_multiplicity
  _atom_site_fract_x
  _atom_site_fract_y
  _atom_site_fract_z
  _atom_site_occupancy
  Au  Au1       1.0  0.7685232758522033  0.3808169960975647  0.0013680090196430683  1.0000
  Au  Au2       1.0  0.535577654838562  0.7192593216896057  0.09079299867153168  1.0000
  Au  Au3       1.0  0.6970369219779967  0.4622937738895416  0.2990269064903259  1.0000
  Au  Au4       1.0  0.27173569798469543  0.8482458591461182  0.1813630759716034  1.0000
  Au  Au5       1.0  0.7858315110206603  0.12892462313175201  0.43381854891777033  1.0000
  Au  Au6       1.0  0.795075237751007  0.7322942614555359  0.4606353342533111  1.0000
  K   K1        1.0  0.7602829337120055  0.9917782545089722  0.7967594861984253  1.0000
  K   K2        1.0  0.767910063266754  0.13871946930885315  0.9753403067588805  1.0000
  K   K3        1.0  0.2665049433708191  0.7090980410575867  0.537328839302063  1.0000
  K   K4        1.0  0.2661259174346924  0.7012497782707214  0.03316875919699669  1.0000
