data_image0
_chemical_formula_structural       AuGa4HKV2Zn
_chemical_formula_sum              "Au1 Ga4 H1 K1 V2 Zn1"
_cell_length_a       5.8482145518200666
_cell_length_b       5.872369670371728
_cell_length_c       4.7509870529174805
_cell_angle_alpha    134.3154272732304
_cell_angle_beta     108.5044518589882
_cell_angle_gamma    116.8459491393714

_space_group_name_H-M_alt    "P 1"
_space_group_IT_number       1

loop_
  _space_group_symop_operation_xyz
  'x, y, z'

loop_
  _atom_site_type_symbol
  _atom_site_label
  _atom_site_symmetry_multiplicity
  _atom_site_fract_x
  _atom_site_fract_y
  _atom_site_fract_z
  _atom_site_occupancy
  Au  Au1       1.0  0.6113887429237366  0.5949636697769165  0.04288414493203155  1.0000
  Ga  Ga1       1.0  0.01468963548541077  0.9367524385452272  0.7522986531257629  1.0000
  Ga  Ga2       1.0  0.12810684740543365  0.39881056547164917  0.8910050988197327  1.0000
  Ga  Ga3       1.0  0.3003284335136414  0.026869380846619644  0.8976342678070068  1.0000
  Ga  Ga4       1.0  0.9377440810203552  0.5960021615028381  0.11360435187816617  1.0000
  H   H1        1.0  0.5535678863525391  0.6209444999694824  0.38111758232116694  1.0000
  K   K1        1.0  0.6199506521224977  0.7209293842315675  0.8062658905982971  1.0000
  V   V1        1.0  0.9992796182632446  0.11677092313766478  0.08120199292898178  1.0000
  V   V2        1.0  0.1555880308151245  0.3580145239830017  0.6837847828865051  1.0000
  Zn  Zn1       1.0  0.13691364228725442  0.8897574543952943  0.39589720964431757  1.0000
