data_image0
_chemical_formula_structural       Ni6P4
_chemical_formula_sum              "Ni6 P4"
_cell_length_a       5.556764297916411
_cell_length_b       5.645871063565435
_cell_length_c       5.768986701965332
_cell_angle_alpha    67.47773994199409
_cell_angle_beta     64.70165760733276
_cell_angle_gamma    64.87470698111804

_space_group_name_H-M_alt    "P 1"
_space_group_IT_number       1

loop_
  _space_group_symop_operation_xyz
  'x, y, z'

loop_
  _atom_site_type_symbol
  _atom_site_label
  _atom_site_symmetry_multiplicity
  _atom_site_fract_x
  _atom_site_fract_y
  _atom_site_fract_z
  _atom_site_occupancy
  Ni  Ni1       1.0  0.8228907585144043  0.009108111262321472  0.6497923135757446  1.0000
  Ni  Ni2       1.0  0.30419236421585083  0.8576760292053223  0.09204506129026413  1.0000
  Ni  Ni3       1.0  0.311285138130188  0.9497979283332825  0.43470868468284607  1.0000
  Ni  Ni4       1.0  0.8035420775413513  0.8213739395141602  0.8129187226295471  1.0000
  Ni  Ni5       1.0  0.3061363697052002  0.9344218969345093  0.6648041605949402  1.0000
  Ni  Ni6       1.0  0.3025442063808441  0.6658645272254944  0.7788634300231934  1.0000
  P   P1        1.0  0.7904744744300842  0.6988134980201721  0.5221582055091858  1.0000
  P   P2        1.0  0.8129619359970093  0.900958776473999  0.21867871284484863  1.0000
  P   P3        1.0  0.31004172563552856  0.9110606908798218  0.5780564546585083  1.0000
  P   P4        1.0  0.8195106983184814  0.538785994052887  0.6680270433425903  1.0000
