data_image0
_chemical_formula_structural       Mo2Ni5P3
_chemical_formula_sum              "Mo2 Ni5 P3"
_cell_length_a       5.264338828112489
_cell_length_b       5.584316370896584
_cell_length_c       5.792262554168701
_cell_angle_alpha    69.99992427716198
_cell_angle_beta     72.58939075258289
_cell_angle_gamma    71.04368187618783

_space_group_name_H-M_alt    "P 1"
_space_group_IT_number       1

loop_
  _space_group_symop_operation_xyz
  'x, y, z'

loop_
  _atom_site_type_symbol
  _atom_site_label
  _atom_site_symmetry_multiplicity
  _atom_site_fract_x
  _atom_site_fract_y
  _atom_site_fract_z
  _atom_site_occupancy
  Mo  Mo1       1.0  0.9413396120071411  0.9685401320457458  0.70765620470047  1.0000
  Mo  Mo2       1.0  0.3982258141040802  0.23912613093852997  0.21637031435966494  1.0000
  Ni  Ni1       1.0  0.41909098625183105  0.38645920157432556  0.16635064780712128  1.0000
  Ni  Ni2       1.0  0.6987972855567932  0.16143052279949188  0.7887991666793823  1.0000
  Ni  Ni3       1.0  0.14286263287067413  0.26795443892478943  0.8671619296073915  1.0000
  Ni  Ni4       1.0  0.9358159899711609  0.47155433893203735  0.8732711076736451  1.0000
  Ni  Ni5       1.0  0.9436220526695251  0.8095794916152954  0.4887630939483643  1.0000
  P   P1        1.0  0.4476914703845978  0.9868102073669434  0.40295407176017767  1.0000
  P   P2        1.0  0.42658960819244385  0.33154425024986267  0.3604809045791626  1.0000
  P   P3        1.0  0.709932267665863  0.3131749629974365  0.18248502910137177  1.0000
