data_image0
_chemical_formula_structural       MoNi5P4
_chemical_formula_sum              "Mo1 Ni5 P4"
_cell_length_a       5.286943135215193
_cell_length_b       5.617934736191394
_cell_length_c       5.811089038848877
_cell_angle_alpha    78.48926574038086
_cell_angle_beta     81.29282618634096
_cell_angle_gamma    75.50385499358765

_space_group_name_H-M_alt    "P 1"
_space_group_IT_number       1

loop_
  _space_group_symop_operation_xyz
  'x, y, z'

loop_
  _atom_site_type_symbol
  _atom_site_label
  _atom_site_symmetry_multiplicity
  _atom_site_fract_x
  _atom_site_fract_y
  _atom_site_fract_z
  _atom_site_occupancy
  Mo  Mo1       1.0  0.9092685580253601  0.584373414516449  0.07389885187149048  1.0000
  Ni  Ni1       1.0  0.39944881200790405  0.6109374761581421  0.7723006010055543  1.0000
  Ni  Ni2       1.0  0.40810444951057434  0.09291166812181473  0.049632526934146895  1.0000
  Ni  Ni3       1.0  0.9128915667533875  0.7147584557533264  0.1860078424215317  1.0000
  Ni  Ni4       1.0  0.9077889323234558  0.958400309085846  0.9261892437934877  1.0000
  Ni  Ni5       1.0  0.4040035009384155  0.9728034734725952  0.03104580380022526  1.0000
  P   P1        1.0  0.40986889600753784  0.5765416026115417  0.04209661856293678  1.0000
  P   P2        1.0  0.9155020117759705  0.24214491248130798  0.6249982118606567  1.0000
  P   P3        1.0  0.8716829419136047  0.28460296988487244  0.874168634414673  1.0000
  P   P4        1.0  0.41764017939567566  0.822003185749054  0.834137260913849  1.0000
