data_image0
_chemical_formula_structural       Ni6P4
_chemical_formula_sum              "Ni6 P4"
_cell_length_a       4.05414714686348
_cell_length_b       3.253733725734996
_cell_length_c       5.254208087921143
_cell_angle_alpha    108.1465459984458
_cell_angle_beta     76.34844755735247
_cell_angle_gamma    74.6036615614101

_space_group_name_H-M_alt    "P 1"
_space_group_IT_number       1

loop_
  _space_group_symop_operation_xyz
  'x, y, z'

loop_
  _atom_site_type_symbol
  _atom_site_label
  _atom_site_symmetry_multiplicity
  _atom_site_fract_x
  _atom_site_fract_y
  _atom_site_fract_z
  _atom_site_occupancy
  Ni  Ni1       1.0  0.3898801505565644  0.8918988108634949  0.7866610288619995  1.0000
  Ni  Ni2       1.0  0.25528064370155334  0.15916037559509277  0.1304166615009308  1.0000
  Ni  Ni3       1.0  0.9682748317718507  0.911374032497406  0.3269161880016327  1.0000
  Ni  Ni4       1.0  0.8279707431793214  0.4382411241531372  0.5438621640205383  1.0000
  Ni  Ni5       1.0  0.9491298198699952  0.6359522938728333  0.9044604301452638  1.0000
  Ni  Ni6       1.0  0.7881564497947694  0.9251909852027893  0.8977122902870179  1.0000
  P   P1        1.0  0.23505620658397677  0.546841025352478  0.9157543182373048  1.0000
  P   P2        1.0  0.24575491249561313  0.41951611638069153  0.3385505974292755  1.0000
  P   P3        1.0  0.43703526258468633  0.9028411507606506  0.24752922356128695  1.0000
  P   P4        1.0  0.45158827304840093  0.5320389866828918  0.4066540896892548  1.0000
