data_image0
_chemical_formula_structural       Ni6P4
_chemical_formula_sum              "Ni6 P4"
_cell_length_a       4.265138860667605
_cell_length_b       4.4004096419310805
_cell_length_c       6.408789157867432
_cell_angle_alpha    88.18538370925725
_cell_angle_beta     77.7581891430081
_cell_angle_gamma    63.89243064405098

_space_group_name_H-M_alt    "P 1"
_space_group_IT_number       1

loop_
  _space_group_symop_operation_xyz
  'x, y, z'

loop_
  _atom_site_type_symbol
  _atom_site_label
  _atom_site_symmetry_multiplicity
  _atom_site_fract_x
  _atom_site_fract_y
  _atom_site_fract_z
  _atom_site_occupancy
  Ni  Ni1       1.0  0.5994362831115723  0.45277947187423706  0.737773597240448  1.0000
  Ni  Ni2       1.0  0.39511439204216003  0.6203861236572266  0.8694237470626832  1.0000
  Ni  Ni3       1.0  0.6110730767250061  0.6913478970527649  0.31649360060691833  1.0000
  Ni  Ni4       1.0  0.06836958229541779  0.3912244737148285  0.43062511086463934  1.0000
  Ni  Ni5       1.0  0.8473100066184998  0.2219192087650299  0.49921387434005743  1.0000
  Ni  Ni6       1.0  0.6172745823860168  0.24072740972042084  0.6872107982635498  1.0000
  P   P1        1.0  0.6010622382164001  0.39654871821403503  0.2840506136417389  1.0000
  P   P2        1.0  0.8792649507522583  0.17928257584571838  0.4933357238769532  1.0000
  P   P3        1.0  0.5534904599189758  0.9222963452339172  0.5575339198112488  1.0000
  P   P4        1.0  0.07004189491271973  0.27626821398735046  0.665854334831238  1.0000
