data_image0
_chemical_formula_structural       MoNi6P3
_chemical_formula_sum              "Mo1 Ni6 P3"
_cell_length_a       4.9050005858856585
_cell_length_b       5.188151333760432
_cell_length_c       5.939548015594482
_cell_angle_alpha    69.0212542983057
_cell_angle_beta     68.51109873394867
_cell_angle_gamma    75.48304248624083

_space_group_name_H-M_alt    "P 1"
_space_group_IT_number       1

loop_
  _space_group_symop_operation_xyz
  'x, y, z'

loop_
  _atom_site_type_symbol
  _atom_site_label
  _atom_site_symmetry_multiplicity
  _atom_site_fract_x
  _atom_site_fract_y
  _atom_site_fract_z
  _atom_site_occupancy
  Mo  Mo1       1.0  0.1538585126399994  0.16878260672092438  0.7657707929611206  1.0000
  Ni  Ni1       1.0  0.7558348178863525  0.17226462066173553  0.6685213446617126  1.0000
  Ni  Ni2       1.0  0.8160428404808044  0.7934006452560425  0.7012290954589844  1.0000
  Ni  Ni3       1.0  0.07456985861063004  0.7748857140541077  0.49641260504722595  1.0000
  Ni  Ni4       1.0  0.5669254660606384  0.35607749223709106  0.48979195952415466  1.0000
  Ni  Ni5       1.0  0.7949244976043701  0.7398297786712646  0.3697948455810547  1.0000
  Ni  Ni6       1.0  0.1380939930677414  0.4155234694480896  0.8598484992980957  1.0000
  P   P1        1.0  0.811083197593689  0.3795884847640991  0.5600312948226929  1.0000
  P   P2        1.0  0.2709279954433441  0.1726546287536621  0.40411990880966187  1.0000
  P   P3        1.0  0.5988306403160095  0.6103881597518921  0.4003908038139343  1.0000
