data_image0
_chemical_formula_structural       GaLiPt4
_chemical_formula_sum              "Ga1 Li1 Pt4"
_cell_length_a       4.488487018973051
_cell_length_b       4.7050101315405275
_cell_length_c       5.8804097175598145
_cell_angle_alpha    113.36777390114732
_cell_angle_beta     89.40560285613628
_cell_angle_gamma    87.32305361392568

_space_group_name_H-M_alt    "P 1"
_space_group_IT_number       1

loop_
  _space_group_symop_operation_xyz
  'x, y, z'

loop_
  _atom_site_type_symbol
  _atom_site_label
  _atom_site_symmetry_multiplicity
  _atom_site_fract_x
  _atom_site_fract_y
  _atom_site_fract_z
  _atom_site_occupancy
  Ga  Ga1       1.0  0.18174205720424652  0.9203399419784546  0.6493667960166931  1.0000
  Li  Li1       1.0  0.6656498908996582  0.13870878517627716  0.8592037558555603  1.0000
  Pt  Pt1       1.0  0.6744405627250671  0.5597159266471863  0.008202972821891308  1.0000
  Pt  Pt2       1.0  0.17093166708946228  0.07442467659711838  0.713071882724762  1.0000
  Pt  Pt3       1.0  0.6713643074035645  0.5753103494644165  0.06295423954725266  1.0000
  Pt  Pt4       1.0  0.17775076627731323  0.09088212251663208  0.2646224796772003  1.0000
