data_image0
_chemical_formula_structural       Au5Pt
_chemical_formula_sum              "Au5 Pt1"
_cell_length_a       4.383752988348712
_cell_length_b       5.376575154092402
_cell_length_c       6.1497321128845215
_cell_angle_alpha    119.02949454503002
_cell_angle_beta     89.9842573508179
_cell_angle_gamma    85.8944227886386

_space_group_name_H-M_alt    "P 1"
_space_group_IT_number       1

loop_
  _space_group_symop_operation_xyz
  'x, y, z'

loop_
  _atom_site_type_symbol
  _atom_site_label
  _atom_site_symmetry_multiplicity
  _atom_site_fract_x
  _atom_site_fract_y
  _atom_site_fract_z
  _atom_site_occupancy
  Au  Au1       1.0  0.9898192882537842  0.9420850276947021  0.34731268882751465  1.0000
  Au  Au2       1.0  0.981447696685791  0.8937103748321533  0.24315102398395547  1.0000
  Au  Au3       1.0  0.49188974499702454  0.6325036883354187  0.12035823613405232  1.0000
  Au  Au4       1.0  0.991876482963562  0.6861127614974976  0.46206313371658325  1.0000
  Au  Au5       1.0  0.4902631938457489  0.9240305423736572  0.9438925981521606  1.0000
  Pt  Pt1       1.0  0.4877241253852844  0.44867274165153503  0.33208009600639343  1.0000
