data_image0
_chemical_formula_structural       Pt5Zr
_chemical_formula_sum              "Pt5 Zr1"
_cell_length_a       4.798534082562004
_cell_length_b       5.428204288227578
_cell_length_c       6.032818794250488
_cell_angle_alpha    127.2578900660531
_cell_angle_beta     91.03326601545427
_cell_angle_gamma    86.23978940586831

_space_group_name_H-M_alt    "P 1"
_space_group_IT_number       1

loop_
  _space_group_symop_operation_xyz
  'x, y, z'

loop_
  _atom_site_type_symbol
  _atom_site_label
  _atom_site_symmetry_multiplicity
  _atom_site_fract_x
  _atom_site_fract_y
  _atom_site_fract_z
  _atom_site_occupancy
  Pt  Pt1       1.0  0.10882057249546051  0.12023492157459259  0.48804962635040283  1.0000
  Pt  Pt2       1.0  0.5513191223144531  0.8283443450927734  0.1807150840759278  1.0000
  Pt  Pt3       1.0  0.5696233510971069  0.8206073641777039  0.9935940504074097  1.0000
  Pt  Pt4       1.0  0.58640056848526  0.7591179609298706  0.490125983953476  1.0000
  Pt  Pt5       1.0  0.7647613286972046  0.520002543926239  0.17879088222980502  1.0000
  Zr  Zr1       1.0  0.08951026946306229  0.5875677466392517  0.5708918571472168  1.0000
