data_image0
_chemical_formula_structural       Al3O4P2
_chemical_formula_sum              "Al3 O4 P2"
_cell_length_a       5.132623414773097
_cell_length_b       6.641452393769175
_cell_length_c       6.970050811767578
_cell_angle_alpha    77.97480694336767
_cell_angle_beta     71.21008004274886
_cell_angle_gamma    70.46211065203202

_space_group_name_H-M_alt    "P 1"
_space_group_IT_number       1

loop_
  _space_group_symop_operation_xyz
  'x, y, z'

loop_
  _atom_site_type_symbol
  _atom_site_label
  _atom_site_symmetry_multiplicity
  _atom_site_fract_x
  _atom_site_fract_y
  _atom_site_fract_z
  _atom_site_occupancy
  Al  Al1       1.0  0.8433315753936768  0.3271033465862274  0.13396340608596802  1.0000
  Al  Al2       1.0  0.9778143763542175  0.1148582398891449  0.5168046951293945  1.0000
  Al  Al3       1.0  0.2324690818786621  0.6693961024284363  0.5569829344749451  1.0000
  O   O1        1.0  0.03291285037994385  0.623805820941925  0.9223979115486146  1.0000
  O   O2        1.0  0.7248345017433167  0.864777684211731  0.907678782939911  1.0000
  O   O3        1.0  0.2449052631855011  0.07624338567256927  0.251643568277359  1.0000
  O   O4        1.0  0.7432975172996521  0.2001515030860901  0.9079536199569703  1.0000
  P   P1        1.0  0.48308417201042175  0.6465288400650024  0.4789013266563416  1.0000
  P   P2        1.0  0.6612203121185303  0.6244437098503113  0.4229873418807984  1.0000
