data_image0
_chemical_formula_structural       O5P4
_chemical_formula_sum              "O5 P4"
_cell_length_a       4.686426709239359
_cell_length_b       6.072228959834251
_cell_length_c       6.386505126953125
_cell_angle_alpha    66.50740328644399
_cell_angle_beta     71.72656515243142
_cell_angle_gamma    66.11329841338892

_space_group_name_H-M_alt    "P 1"
_space_group_IT_number       1

loop_
  _space_group_symop_operation_xyz
  'x, y, z'

loop_
  _atom_site_type_symbol
  _atom_site_label
  _atom_site_symmetry_multiplicity
  _atom_site_fract_x
  _atom_site_fract_y
  _atom_site_fract_z
  _atom_site_occupancy
  O   O1        1.0  0.6972636580467224  0.42693880200386053  0.5694404244422913  1.0000
  O   O2        1.0  0.41189286112785334  0.8809430599212648  0.49396994709968556  1.0000
  O   O3        1.0  0.3920387923717499  0.09783593565225603  0.9588413834571837  1.0000
  O   O4        1.0  0.910557746887207  0.7367496490478516  0.9407291412353515  1.0000
  O   O5        1.0  0.053760599344968796  0.6539895534515381  0.06191882863640781  1.0000
  P   P1        1.0  0.7089461088180542  0.5137852430343628  0.8216500282287597  1.0000
  P   P2        1.0  0.09441853314638138  0.741146445274353  0.06522504240274425  1.0000
  P   P3        1.0  0.6964880228042603  0.15062066912651062  0.20150366425514218  1.0000
  P   P4        1.0  0.1296422928571701  0.02570348419249058  0.7310336232185364  1.0000
