data_image0
_chemical_formula_structural       Al4O3P2
_chemical_formula_sum              "Al4 O3 P2"
_cell_length_a       4.182429169824088
_cell_length_b       4.065210925458538
_cell_length_c       6.994349002838135
_cell_angle_alpha    78.26061519886476
_cell_angle_beta     75.71664963294656
_cell_angle_gamma    61.33962250894245

_space_group_name_H-M_alt    "P 1"
_space_group_IT_number       1

loop_
  _space_group_symop_operation_xyz
  'x, y, z'

loop_
  _atom_site_type_symbol
  _atom_site_label
  _atom_site_symmetry_multiplicity
  _atom_site_fract_x
  _atom_site_fract_y
  _atom_site_fract_z
  _atom_site_occupancy
  Al  Al1       1.0  0.10823193937540054  0.6814333200454712  0.685011625289917  1.0000
  Al  Al2       1.0  0.629532516002655  0.6804436445236206  0.1657010316848755  1.0000
  Al  Al3       1.0  0.5512268543243408  0.35834869742393494  0.028629072010517124  1.0000
  Al  Al4       1.0  0.7007074952125549  0.14776551723480225  0.6744575500488281  1.0000
  O   O1        1.0  0.4494466185569763  0.0662868544459343  0.175794318318367  1.0000
  O   O2        1.0  0.7438335418701172  0.14425978064537048  0.5413666367530823  1.0000
  O   O3        1.0  0.6499807834625244  0.6743209362030029  0.16024768352508545  1.0000
  P   P1        1.0  0.23905077576637268  0.16131582856178284  0.7373078465461731  1.0000
  P   P2        1.0  0.1625030338764191  0.3963830173015594  0.28415894508361816  1.0000
