data_image0
_chemical_formula_structural       Al2O4P3
_chemical_formula_sum              "Al2 O4 P3"
_cell_length_a       4.391281145192107
_cell_length_b       6.608224637318401
_cell_length_c       6.202902317047119
_cell_angle_alpha    70.6446696292022
_cell_angle_beta     66.27816394687818
_cell_angle_gamma    67.58484605653933

_space_group_name_H-M_alt    "P 1"
_space_group_IT_number       1

loop_
  _space_group_symop_operation_xyz
  'x, y, z'

loop_
  _atom_site_type_symbol
  _atom_site_label
  _atom_site_symmetry_multiplicity
  _atom_site_fract_x
  _atom_site_fract_y
  _atom_site_fract_z
  _atom_site_occupancy
  Al  Al1       1.0  0.8326069116592407  0.46093568205833435  0.6654850244522095  1.0000
  Al  Al2       1.0  0.9403488636016846  0.23154474794864655  0.5602976679801941  1.0000
  O   O1        1.0  0.1499783843755722  0.25872865319252014  0.9210283756256104  1.0000
  O   O2        1.0  0.7400488257408142  0.5815029740333557  0.9251190423965454  1.0000
  O   O3        1.0  0.13943228125572205  0.8430086374282837  0.9587793946266174  1.0000
  O   O4        1.0  0.6249258518218994  0.32188886404037476  0.7068261504173279  1.0000
  P   P1        1.0  0.438363254070282  0.5822077989578247  0.9253554344177246  1.0000
  P   P2        1.0  0.5957534909248352  0.9475152492523193  0.5552839636802673  1.0000
  P   P3        1.0  0.9341691732406616  0.23703508079051971  0.8183483481407166  1.0000
