data_image0
_chemical_formula_structural       In3LaSrZn
_chemical_formula_sum              "In3 La1 Sr1 Zn1"
_cell_length_a       4.936332651758287
_cell_length_b       4.6266004839346975
_cell_length_c       6.918057918548584
_cell_angle_alpha    93.79041341549761
_cell_angle_beta     95.54830795807553
_cell_angle_gamma    102.8890307312249

_space_group_name_H-M_alt    "P 1"
_space_group_IT_number       1

loop_
  _space_group_symop_operation_xyz
  'x, y, z'

loop_
  _atom_site_type_symbol
  _atom_site_label
  _atom_site_symmetry_multiplicity
  _atom_site_fract_x
  _atom_site_fract_y
  _atom_site_fract_z
  _atom_site_occupancy
  In  In1       1.0  0.15419521927833557  0.05397957190871239  0.43192219734191895  1.0000
  In  In2       1.0  0.15353915095329285  0.4387170076370239  0.9345877170562744  1.0000
  In  In3       1.0  0.6508151888847351  0.9310150742530823  0.27849453687667847  1.0000
  La  La1       1.0  0.15362116694450378  0.5115959048271179  0.5035171508789062  1.0000
  Sr  Sr1       1.0  0.6511462926864624  0.49344494938850403  0.32623907923698425  1.0000
  Zn  Zn1       1.0  0.7660786509513855  0.08118236809968948  0.024642812088131894  1.0000
