data_image0
_chemical_formula_structural       In2Sr4
_chemical_formula_sum              "In2 Sr4"
_cell_length_a       4.609121919843183
_cell_length_b       3.9948764478975374
_cell_length_c       8.630460739135742
_cell_angle_alpha    90.50818049244657
_cell_angle_beta     89.0873419014919
_cell_angle_gamma    110.07726148566759

_space_group_name_H-M_alt    "P 1"
_space_group_IT_number       1

loop_
  _space_group_symop_operation_xyz
  'x, y, z'

loop_
  _atom_site_type_symbol
  _atom_site_label
  _atom_site_symmetry_multiplicity
  _atom_site_fract_x
  _atom_site_fract_y
  _atom_site_fract_z
  _atom_site_occupancy
  In  In1       1.0  0.7324598431587219  0.05096918344497681  0.5556758642196655  1.0000
  In  In2       1.0  0.23650988936424255  0.04712051525712013  0.39452382922172546  1.0000
  Sr  Sr1       1.0  0.7413692474365234  0.38192686438560486  0.6941503286361694  1.0000
  Sr  Sr2       1.0  0.740391731262207  0.542091965675354  0.7515255808830261  1.0000
  Sr  Sr3       1.0  0.7413130402565002  0.871362566947937  0.007830946706235409  1.0000
  Sr  Sr4       1.0  0.24033302068710327  0.642509400844574  0.9346382021903992  1.0000
