data_image0
_chemical_formula_structural       HIn3LiZn
_chemical_formula_sum              "H1 In3 Li1 Zn1"
_cell_length_a       4.841069569579395
_cell_length_b       4.891453080094608
_cell_length_c       6.310605049133301
_cell_angle_alpha    91.85442808259718
_cell_angle_beta     86.71344978403178
_cell_angle_gamma    118.26446057372988

_space_group_name_H-M_alt    "P 1"
_space_group_IT_number       1

loop_
  _space_group_symop_operation_xyz
  'x, y, z'

loop_
  _atom_site_type_symbol
  _atom_site_label
  _atom_site_symmetry_multiplicity
  _atom_site_fract_x
  _atom_site_fract_y
  _atom_site_fract_z
  _atom_site_occupancy
  H   H1        1.0  0.8590577244758606  0.14604978263378143  0.4581259787082672  1.0000
  In  In1       1.0  0.3778536319732666  0.934341549873352  0.007987328805029394  1.0000
  In  In2       1.0  0.8577330708503723  0.25561633706092834  0.5505683422088623  1.0000
  In  In3       1.0  0.8751147985458374  0.7981500029563904  0.02048807591199875  1.0000
  Li  Li1       1.0  0.8626231551170349  0.24162045121192932  0.8046882748603821  1.0000
  Zn  Zn1       1.0  0.8622269034385681  0.09371718019247055  0.13217790424823764  1.0000
