data_image0
_chemical_formula_structural       In3Sr3
_chemical_formula_sum              "In3 Sr3"
_cell_length_a       4.474491242079699
_cell_length_b       4.159303082408219
_cell_length_c       8.119629859924316
_cell_angle_alpha    90.87133416310279
_cell_angle_beta     90.75850402108973
_cell_angle_gamma    116.08609534767523

_space_group_name_H-M_alt    "P 1"
_space_group_IT_number       1

loop_
  _space_group_symop_operation_xyz
  'x, y, z'

loop_
  _atom_site_type_symbol
  _atom_site_label
  _atom_site_symmetry_multiplicity
  _atom_site_fract_x
  _atom_site_fract_y
  _atom_site_fract_z
  _atom_site_occupancy
  In  In1       1.0  0.225974902510643  0.6536098122596741  0.6475085020065308  1.0000
  In  In2       1.0  0.6094337701797485  0.34238579869270325  0.5380417704582214  1.0000
  In  In3       1.0  0.9524379372596741  0.7591477036476135  0.9899417757987976  1.0000
  Sr  Sr1       1.0  0.27362796664237976  0.5094839334487915  0.4697127640247345  1.0000
  Sr  Sr2       1.0  0.03608843684196472  0.508520781993866  0.054988086223602295  1.0000
  Sr  Sr3       1.0  0.6021583080291748  0.5819497108459473  0.49975723028182983  1.0000
