data_image0
_chemical_formula_structural       In3Li2Ti
_chemical_formula_sum              "In3 Li2 Ti1"
_cell_length_a       6.18197163849447
_cell_length_b       6.496992935694421
_cell_length_c       6.680970191955566
_cell_angle_alpha    64.78121227368585
_cell_angle_beta     62.53402280729023
_cell_angle_gamma    63.64365084767099

_space_group_name_H-M_alt    "P 1"
_space_group_IT_number       1

loop_
  _space_group_symop_operation_xyz
  'x, y, z'

loop_
  _atom_site_type_symbol
  _atom_site_label
  _atom_site_symmetry_multiplicity
  _atom_site_fract_x
  _atom_site_fract_y
  _atom_site_fract_z
  _atom_site_occupancy
  In  In1       1.0  0.9728407263755798  0.7744889259338379  0.044013269245624535  1.0000
  In  In2       1.0  0.9533536434173584  0.6940094828605652  0.5480494499206543  1.0000
  In  In3       1.0  0.49398255348205566  0.5360637307167053  0.398450493812561  1.0000
  Li  Li1       1.0  0.44089236855506897  0.6217217445373535  0.8953400850296019  1.0000
  Li  Li2       1.0  0.9924916625022888  0.6189771294593811  0.3305584788322449  1.0000
  Ti  Ti1       1.0  0.013903212733566761  0.13237489759922028  0.13813070952892303  1.0000
