data_image0
_chemical_formula_structural       CCl4PRb4
_chemical_formula_sum              "C1 Cl4 P1 Rb4"
_cell_length_a       6.807182072266253
_cell_length_b       7.204393334534258
_cell_length_c       10.8796968460083
_cell_angle_alpha    97.13532200527538
_cell_angle_beta     90.28891789226776
_cell_angle_gamma    112.6608140101852

_space_group_name_H-M_alt    "P 1"
_space_group_IT_number       1

loop_
  _space_group_symop_operation_xyz
  'x, y, z'

loop_
  _atom_site_type_symbol
  _atom_site_label
  _atom_site_symmetry_multiplicity
  _atom_site_fract_x
  _atom_site_fract_y
  _atom_site_fract_z
  _atom_site_occupancy
  C   C1        1.0  0.36963093280792236  0.23204183578491214  0.8712975978851318  1.0000
  Cl  Cl1       1.0  0.2393298894166947  0.8575289249420167  0.13635995984077454  1.0000
  Cl  Cl2       1.0  0.8289403319358826  0.6722884774208069  0.37692904472351074  1.0000
  Cl  Cl3       1.0  0.874648928642273  0.5273781418800354  0.627707302570343  1.0000
  Cl  Cl4       1.0  0.4061397612094879  0.02710467576980591  0.6311078667640686  1.0000
  P   P1        1.0  0.12029706686735153  0.5262148976325989  0.6362828016281128  1.0000
  Rb  Rb1       1.0  0.11678155511617662  0.23660853505134585  0.13891278207302094  1.0000
  Rb  Rb2       1.0  0.6667453646659851  0.3507292568683625  0.14153403043746948  1.0000
  Rb  Rb3       1.0  0.13094782829284668  0.09829065203666688  0.13476034998893738  1.0000
  Rb  Rb4       1.0  0.5272215604782104  0.561529278755188  0.13101749122142792  1.0000
