data_image0
_chemical_formula_structural       Cl4Rb5Rh
_chemical_formula_sum              "Cl4 Rb5 Rh1"
_cell_length_a       6.361542936186535
_cell_length_b       6.8391733912660575
_cell_length_c       8.801528930664062
_cell_angle_alpha    90.08104915187332
_cell_angle_beta     89.50123056205058
_cell_angle_gamma    89.76849191371096

_space_group_name_H-M_alt    "P 1"
_space_group_IT_number       1

loop_
  _space_group_symop_operation_xyz
  'x, y, z'

loop_
  _atom_site_type_symbol
  _atom_site_label
  _atom_site_symmetry_multiplicity
  _atom_site_fract_x
  _atom_site_fract_y
  _atom_site_fract_z
  _atom_site_occupancy
  Cl  Cl1       1.0  0.68423992395401  0.14389412105083466  0.03340223804116249  1.0000
  Cl  Cl2       1.0  0.26616010069847107  0.6666606664657593  0.8610314726829529  1.0000
  Cl  Cl3       1.0  0.8983522057533264  0.43431711196899414  0.7829495668411255  1.0000
  Cl  Cl4       1.0  0.28211280703544617  0.940705418586731  0.5911093950271606  1.0000
  Rb  Rb1       1.0  0.7830065488815308  0.9335033893585205  0.8537235856056213  1.0000
  Rb  Rb2       1.0  0.28674009442329407  0.9160905480384827  0.5925658941268921  1.0000
  Rb  Rb3       1.0  0.4700044095516205  0.42804014682769775  0.09679768979549408  1.0000
  Rb  Rb4       1.0  0.9761351346969604  0.44947242736816406  0.5367199182510376  1.0000
  Rb  Rb5       1.0  0.782651424407959  0.9223265647888184  0.9627941250801086  1.0000
  Rh  Rh1       1.0  0.013941362500190735  0.19223076105117798  0.3571968376636505  1.0000
