data_image0
_chemical_formula_structural       Cl4RbRhU4
_chemical_formula_sum              "Cl4 Rb1 Rh1 U4"
_cell_length_a       5.800470582162701
_cell_length_b       5.850725544817609
_cell_length_c       8.04427719116211
_cell_angle_alpha    110.53712134555045
_cell_angle_beta     97.18193936161376
_cell_angle_gamma    117.79427853792593

_space_group_name_H-M_alt    "P 1"
_space_group_IT_number       1

loop_
  _space_group_symop_operation_xyz
  'x, y, z'

loop_
  _atom_site_type_symbol
  _atom_site_label
  _atom_site_symmetry_multiplicity
  _atom_site_fract_x
  _atom_site_fract_y
  _atom_site_fract_z
  _atom_site_occupancy
  Cl  Cl1       1.0  0.10141216963529587  0.48069772124290466  0.04608454555273056  1.0000
  Cl  Cl2       1.0  0.427877277135849  0.8821157813072205  0.5040921568870544  1.0000
  Cl  Cl3       1.0  0.9360274076461792  0.8623218536376953  0.21074405312538147  1.0000
  Cl  Cl4       1.0  0.3785870671272278  0.8309950232505798  0.9960484504699707  1.0000
  Rb  Rb1       1.0  0.4748532474040985  0.1498190015554428  0.4196512997150421  1.0000
  Rh  Rh1       1.0  0.952591598033905  0.9411433935165405  0.9630115628242493  1.0000
  U   U1        1.0  0.9324896931648254  0.34941521286964417  0.844508171081543  1.0000
  U   U2        1.0  0.9686542749404907  0.8351916074752808  0.019987760111689568  1.0000
  U   U3        1.0  0.4673587679862976  0.19979116320610046  0.47201159596443176  1.0000
  U   U4        1.0  0.18518152832984924  0.6761494278907776  0.3646841049194336  1.0000
