data_image0
_chemical_formula_structural       Cl2Rb2U6
_chemical_formula_sum              "Cl2 Rb2 U6"
_cell_length_a       6.412803336705764
_cell_length_b       8.98675827473094
_cell_length_c       9.340822219848633
_cell_angle_alpha    119.14498512775991
_cell_angle_beta     90.6401337961166
_cell_angle_gamma    89.54932224138469

_space_group_name_H-M_alt    "P 1"
_space_group_IT_number       1

loop_
  _space_group_symop_operation_xyz
  'x, y, z'

loop_
  _atom_site_type_symbol
  _atom_site_label
  _atom_site_symmetry_multiplicity
  _atom_site_fract_x
  _atom_site_fract_y
  _atom_site_fract_z
  _atom_site_occupancy
  Cl  Cl1       1.0  0.3476613163948059  0.37229496240615845  0.9477938413619995  1.0000
  Cl  Cl2       1.0  0.8740584850311279  0.42419692873954773  0.6773394346237183  1.0000
  Rb  Rb1       1.0  0.366544634103775  0.37084150314331055  0.8857942819595337  1.0000
  Rb  Rb2       1.0  0.3669969439506531  0.866456925868988  0.9408758878707886  1.0000
  U   U1        1.0  0.36922961473464966  0.3517405390739441  0.5211976766586304  1.0000
  U   U2        1.0  0.8695714473724365  0.6939183473587036  0.7545850872993469  1.0000
  U   U3        1.0  0.3713809847831726  0.07129697501659393  0.5879275798797607  1.0000
  U   U4        1.0  0.855055570602417  0.5949345231056213  0.8918024897575378  1.0000
  U   U5        1.0  0.8702269196510315  0.022674711421132088  0.7985219359397888  1.0000
  U   U6        1.0  0.8606668710708618  0.821520984172821  0.354010671377182  1.0000
