data_image0
_chemical_formula_structural       Cl2Rb2U6
_chemical_formula_sum              "Cl2 Rb2 U6"
_cell_length_a       6.1536065476196935
_cell_length_b       7.828385343232507
_cell_length_c       8.344281196594238
_cell_angle_alpha    118.6865210512335
_cell_angle_beta     92.49791580997196
_cell_angle_gamma    89.45393158576664

_space_group_name_H-M_alt    "P 1"
_space_group_IT_number       1

loop_
  _space_group_symop_operation_xyz
  'x, y, z'

loop_
  _atom_site_type_symbol
  _atom_site_label
  _atom_site_symmetry_multiplicity
  _atom_site_fract_x
  _atom_site_fract_y
  _atom_site_fract_z
  _atom_site_occupancy
  Cl  Cl1       1.0  0.6119225025177002  0.8704836368560792  0.1809293031692505  1.0000
  Cl  Cl2       1.0  0.23724783957004547  0.5639549493789673  0.3334890305995941  1.0000
  Rb  Rb1       1.0  0.24266712367534637  0.21541126072406772  0.8990029692649841  1.0000
  Rb  Rb2       1.0  0.2375398576259613  0.08578444272279741  0.4992641806602478  1.0000
  U   U1        1.0  0.7377341985702515  0.6305304765701294  0.35453012585639954  1.0000
  U   U2        1.0  0.2290828824043274  0.6699816584587098  0.41503453254699707  1.0000
  U   U3        1.0  0.7407984137535095  0.5224851369857788  0.27001476287841797  1.0000
  U   U4        1.0  0.23621349036693573  0.1858550310134888  0.47855451703071594  1.0000
  U   U5        1.0  0.7359766960144043  0.8656962513923646  0.32552993297576904  1.0000
  U   U6        1.0  0.7363309264183044  0.35334655642509466  0.3869742155075073  1.0000
