data_image0
_chemical_formula_structural       Cl3RbU6
_chemical_formula_sum              "Cl3 Rb1 U6"
_cell_length_a       5.679434649543281
_cell_length_b       6.184474909545964
_cell_length_c       8.796243667602539
_cell_angle_alpha    111.15863072862109
_cell_angle_beta     109.07602517961233
_cell_angle_gamma    88.97679643611605

_space_group_name_H-M_alt    "P 1"
_space_group_IT_number       1

loop_
  _space_group_symop_operation_xyz
  'x, y, z'

loop_
  _atom_site_type_symbol
  _atom_site_label
  _atom_site_symmetry_multiplicity
  _atom_site_fract_x
  _atom_site_fract_y
  _atom_site_fract_z
  _atom_site_occupancy
  Cl  Cl1       1.0  0.726631224155426  0.35777345299720764  0.6303216218948364  1.0000
  Cl  Cl2       1.0  0.3335078954696655  0.9742729663848877  0.2762376070022583  1.0000
  Cl  Cl3       1.0  0.040031034499406815  0.4374641478061676  0.640252947807312  1.0000
  Rb  Rb1       1.0  0.8402944207191467  0.7312843799591064  0.34429651498794556  1.0000
  U   U1        1.0  0.83896803855896  0.24304071068763733  0.19608332216739655  1.0000
  U   U2        1.0  0.3143264353275299  0.6655458211898804  0.628437876701355  1.0000
  U   U3        1.0  0.9937297105789185  0.9929423928260803  0.06528850644826889  1.0000
  U   U4        1.0  0.5142565965652466  0.3983071446418762  0.5035091638565063  1.0000
  U   U5        1.0  0.7096494436264038  0.6535098552703857  0.844131588935852  1.0000
  U   U6        1.0  0.3099023103713989  0.9991390109062195  0.05946516990661621  1.0000
