data_image0
_chemical_formula_structural       AlLaLiNb5O
_chemical_formula_sum              "Al1 La1 Li1 Nb5 O1"
_cell_length_a       5.01552424184417
_cell_length_b       5.2529412378150875
_cell_length_c       6.69283390045166
_cell_angle_alpha    69.40004125562318
_cell_angle_beta     67.03397644396925
_cell_angle_gamma    60.95184372124138

_space_group_name_H-M_alt    "P 1"
_space_group_IT_number       1

loop_
  _space_group_symop_operation_xyz
  'x, y, z'

loop_
  _atom_site_type_symbol
  _atom_site_label
  _atom_site_symmetry_multiplicity
  _atom_site_fract_x
  _atom_site_fract_y
  _atom_site_fract_z
  _atom_site_occupancy
  Al  Al1       1.0  0.769333004951477  0.3688299059867859  0.9493002891540527  1.0000
  La  La1       1.0  0.6567537784576416  0.8604809641838074  0.2591501474380493  1.0000
  Li  Li1       1.0  0.1010952964425087  0.08253007382154465  0.03178262710571289  1.0000
  Nb  Nb1       1.0  0.6540262699127197  0.41841715574264526  0.7624543309211731  1.0000
  Nb  Nb2       1.0  0.09570502489805222  0.7550099492073059  0.9420937299728394  1.0000
  Nb  Nb3       1.0  0.6387211680412292  0.10289695113897324  0.17947334051132202  1.0000
  Nb  Nb4       1.0  0.9951035380363464  0.7604090571403503  0.4485069215297699  1.0000
  Nb  Nb5       1.0  0.6080882549285889  0.24292244017124176  0.46277207136154175  1.0000
  O   O1        1.0  0.9626440405845642  0.5139955878257751  0.683468222618103  1.0000
