data_image0
_chemical_formula_structural       Au4FLi2NdSb
_chemical_formula_sum              "Au4 F1 Li2 Nd1 Sb1"
_cell_length_a       5.114789592771316
_cell_length_b       5.436027751663485
_cell_length_c       7.711513996124268
_cell_angle_alpha    111.46528632558419
_cell_angle_beta     110.84244347030523
_cell_angle_gamma    88.48623395877347

_space_group_name_H-M_alt    "P 1"
_space_group_IT_number       1

loop_
  _space_group_symop_operation_xyz
  'x, y, z'

loop_
  _atom_site_type_symbol
  _atom_site_label
  _atom_site_symmetry_multiplicity
  _atom_site_fract_x
  _atom_site_fract_y
  _atom_site_fract_z
  _atom_site_occupancy
  Au  Au1       1.0  0.04245921969413757  0.5057770013809204  0.46072235703468317  1.0000
  Au  Au2       1.0  0.056049894541502  0.27083835005760193  0.4632272124290466  1.0000
  Au  Au3       1.0  0.5929163098335266  0.7025617361068726  0.8035387396812438  1.0000
  Au  Au4       1.0  0.509546160697937  0.6771737337112427  0.9659379720687865  1.0000
  F   F1        1.0  0.7657775282859802  0.7170961499214172  0.48739957809448237  1.0000
  Li  Li1       1.0  0.43124374747276306  0.340181827545166  0.29852294921875  1.0000
  Li  Li2       1.0  0.7968670725822449  0.985724687576294  0.6365193128585815  1.0000
  Nd  Nd1       1.0  0.8665567636489868  0.1267377734184265  0.6909534335136412  1.0000
  Sb  Sb1       1.0  0.18470852077007294  0.9699813723564148  0.9666106700897216  1.0000
