data_image0
_chemical_formula_structural       AlAuBLiNb3PTl
_chemical_formula_sum              "Al1 Au1 B1 Li1 Nb3 P1 Tl1"
_cell_length_a       3.6491784625087917
_cell_length_b       4.862337644016728
_cell_length_c       7.2154645919799805
_cell_angle_alpha    94.5271861067225
_cell_angle_beta     87.35373674403861
_cell_angle_gamma    80.2194173842446

_space_group_name_H-M_alt    "P 1"
_space_group_IT_number       1

loop_
  _space_group_symop_operation_xyz
  'x, y, z'

loop_
  _atom_site_type_symbol
  _atom_site_label
  _atom_site_symmetry_multiplicity
  _atom_site_fract_x
  _atom_site_fract_y
  _atom_site_fract_z
  _atom_site_occupancy
  Al  Al1       1.0  0.3350949883460998  0.40700265765190125  0.7734615802764893  1.0000
  Au  Au1       1.0  0.47017273306846613  0.2640547454357147  0.3646329641342163  1.0000
  B   B1        1.0  0.3455585837364196  0.927962064743042  0.42170608043670654  1.0000
  Li  Li1       1.0  0.33814197778701777  0.601138710975647  0.9053418040275574  1.0000
  Nb  Nb1       1.0  0.8468103408813475  0.3984468877315521  0.7923110127449036  1.0000
  Nb  Nb2       1.0  0.34788754582405085  0.7906593680381775  0.7511496543884276  1.0000
  Nb  Nb3       1.0  0.8384068012237548  0.08017344772815704  0.5831571817398072  1.0000
  P   P1        1.0  0.8510721325874328  0.41866159439086914  0.46620413661003113  1.0000
  Tl  Tl1       1.0  0.8393990397453307  0.9394423365592957  0.9694967269897461  1.0000
