data_image0
_chemical_formula_structural       Au4FLi2Nb2
_chemical_formula_sum              "Au4 F1 Li2 Nb2"
_cell_length_a       4.9467376423277525
_cell_length_b       5.262121334333221
_cell_length_c       6.805747985839844
_cell_angle_alpha    113.79163137211896
_cell_angle_beta     115.28886127438238
_cell_angle_gamma    87.99131317721043

_space_group_name_H-M_alt    "P 1"
_space_group_IT_number       1

loop_
  _space_group_symop_operation_xyz
  'x, y, z'

loop_
  _atom_site_type_symbol
  _atom_site_label
  _atom_site_symmetry_multiplicity
  _atom_site_fract_x
  _atom_site_fract_y
  _atom_site_fract_z
  _atom_site_occupancy
  Au  Au1       1.0  0.3874325752258301  0.5451812148094177  0.5242500305175781  1.0000
  Au  Au2       1.0  0.4881981611251831  0.5572612285614014  0.5735521912574768  1.0000
  Au  Au3       1.0  0.5901007652282715  0.5451867580413818  0.15411324799060822  1.0000
  Au  Au4       1.0  0.5244346261024475  0.7528671026229858  0.5644117593765259  1.0000
  F   F1        1.0  0.08194290846586227  0.5494707822799683  0.16041146218776706  1.0000
  Li  Li1       1.0  0.4764813184738159  0.06316021084785461  0.5305535197257996  1.0000
  Li  Li2       1.0  0.1666180044412613  0.05509195104241371  0.5070939064025879  1.0000
  Nb  Nb1       1.0  0.9458667635917664  0.06376021355390549  0.4562762975692749  1.0000
  Nb  Nb2       1.0  0.6165284514427185  0.05184296891093254  0.20726186037063596  1.0000
