data_image0
_chemical_formula_structural       AuLaNb4O2Ti
_chemical_formula_sum              "Au1 La1 Nb4 O2 Ti1"
_cell_length_a       5.083818308943981
_cell_length_b       5.718079606647851
_cell_length_c       6.599039554595947
_cell_angle_alpha    117.01562591108132
_cell_angle_beta     112.7875103031116
_cell_angle_gamma    90.14753766725002

_space_group_name_H-M_alt    "P 1"
_space_group_IT_number       1

loop_
  _space_group_symop_operation_xyz
  'x, y, z'

loop_
  _atom_site_type_symbol
  _atom_site_label
  _atom_site_symmetry_multiplicity
  _atom_site_fract_x
  _atom_site_fract_y
  _atom_site_fract_z
  _atom_site_occupancy
  Au  Au1       1.0  0.8377367258071899  0.24222035706043243  0.01429774146527052  1.0000
  La  La1       1.0  0.10060733556747437  0.109456866979599  0.8383212685585022  1.0000
  Nb  Nb1       1.0  0.22884349524974823  0.773082435131073  0.11151146888732905  1.0000
  Nb  Nb2       1.0  0.738835334777832  0.6389646530151367  0.6509671807289124  1.0000
  Nb  Nb3       1.0  0.0025291917845606804  0.06612466275691986  0.16627925634384155  1.0000
  Nb  Nb4       1.0  0.7340319156646729  0.15328732132911682  0.4660536050796509  1.0000
  O   O1        1.0  0.2258218675851822  0.6591504216194153  0.6539602875709534  1.0000
  O   O2        1.0  0.25821053981781006  0.949285626411438  0.662593424320221  1.0000
  Ti  Ti1       1.0  0.50522780418396  0.5709832906723022  0.18292388319969177  1.0000
