data_image0
_chemical_formula_structural       C2Cl2Gd3Ge2Pt
_chemical_formula_sum              "C2 Cl2 Gd3 Ge2 Pt1"
_cell_length_a       5.990628210110755
_cell_length_b       6.838429465759075
_cell_length_c       6.926845073699951
_cell_angle_alpha    91.30186027052348
_cell_angle_beta     91.20967389141403
_cell_angle_gamma    89.98111847562632

_space_group_name_H-M_alt    "P 1"
_space_group_IT_number       1

loop_
  _space_group_symop_operation_xyz
  'x, y, z'

loop_
  _atom_site_type_symbol
  _atom_site_label
  _atom_site_symmetry_multiplicity
  _atom_site_fract_x
  _atom_site_fract_y
  _atom_site_fract_z
  _atom_site_occupancy
  C   C1        1.0  0.05735287815332413  0.1935318559408188  0.21236391365528107  1.0000
  C   C2        1.0  0.5679562091827393  0.3222959339618683  0.48914030194282526  1.0000
  Cl  Cl1       1.0  0.06560683250427246  0.6868640780448914  0.7314767837524414  1.0000
  Cl  Cl2       1.0  0.057575877755880356  0.7449052929878235  0.201113760471344  1.0000
  Gd  Gd1       1.0  0.06463046371936798  0.16928225755691528  0.3595736026763916  1.0000
  Gd  Gd2       1.0  0.5596042275428772  0.9713163375854492  0.21188805997371674  1.0000
  Gd  Gd3       1.0  0.5646901726722717  0.6916200518608093  0.4707945585250854  1.0000
  Ge  Ge1       1.0  0.7552561163902283  0.8955084085464478  0.3309337794780731  1.0000
  Ge  Ge2       1.0  0.06497307866811752  0.8080453872680664  0.10682138800621033  1.0000
  Pt  Pt1       1.0  0.5622826814651489  0.039289578795433044  0.9050143361091614  1.0000
