data_image0
_chemical_formula_structural       CCl2Gd2GeIMgSSc
_chemical_formula_sum              "C1 Cl2 Gd2 Ge1 I1 Mg1 S1 Sc1"
_cell_length_a       5.365938307005791
_cell_length_b       7.706723826086965
_cell_length_c       7.669513702392578
_cell_angle_alpha    122.7593956463201
_cell_angle_beta     89.6633460806264
_cell_angle_gamma    89.17008545821592

_space_group_name_H-M_alt    "P 1"
_space_group_IT_number       1

loop_
  _space_group_symop_operation_xyz
  'x, y, z'

loop_
  _atom_site_type_symbol
  _atom_site_label
  _atom_site_symmetry_multiplicity
  _atom_site_fract_x
  _atom_site_fract_y
  _atom_site_fract_z
  _atom_site_occupancy
  C   C1        1.0  0.28724345564842224  0.515936017036438  0.10145124793052673  1.0000
  Cl  Cl1       1.0  0.7649109959602356  0.7674351930618286  0.5838114023208618  1.0000
  Cl  Cl2       1.0  0.7870133519172668  0.9975749254226685  0.42620500922203053  1.0000
  Gd  Gd1       1.0  0.7899650931358337  0.5671488046646118  0.632079005241394  1.0000
  Gd  Gd2       1.0  0.7848217487335205  0.5176259875297546  0.37830159068107605  1.0000
  Ge  Ge1       1.0  0.7870663404464722  0.030990591272711754  0.9656624197959899  1.0000
  I   I1        1.0  0.27702486515045166  0.4030776023864746  0.06714506447315216  1.0000
  Mg  Mg1       1.0  0.28075891733169556  0.5850304961204529  0.0682564452290535  1.0000
  S   S1        1.0  0.27916914224624634  0.6531943082809448  0.5183051824569701  1.0000
  Sc  Sc1       1.0  0.2842619717121124  0.0493544302880764  0.1582769900560379  1.0000
