data_image0
_chemical_formula_structural       Cl5Gd5
_chemical_formula_sum              "Cl5 Gd5"
_cell_length_a       6.133224568758925
_cell_length_b       7.846625805605364
_cell_length_c       7.97847843170166
_cell_angle_alpha    122.34757797624616
_cell_angle_beta     90.4468508304175
_cell_angle_gamma    87.69970260830769

_space_group_name_H-M_alt    "P 1"
_space_group_IT_number       1

loop_
  _space_group_symop_operation_xyz
  'x, y, z'

loop_
  _atom_site_type_symbol
  _atom_site_label
  _atom_site_symmetry_multiplicity
  _atom_site_fract_x
  _atom_site_fract_y
  _atom_site_fract_z
  _atom_site_occupancy
  Cl  Cl1       1.0  0.9919495582580566  0.8582932949066162  0.018372962251305636  1.0000
  Cl  Cl2       1.0  0.9889479279518127  0.5448136329650879  0.3365399539470672  1.0000
  Cl  Cl3       1.0  0.9963054060935974  0.6005120873451233  0.5253175497055054  1.0000
  Cl  Cl4       1.0  0.9924109578132629  0.8623970746994019  0.2080081254243851  1.0000
  Cl  Cl5       1.0  0.5011146068572998  0.11318279802799225  0.6284117698669434  1.0000
  Gd  Gd1       1.0  0.9992139935493469  0.46600329875946045  0.4999370872974396  1.0000
  Gd  Gd2       1.0  0.4948674738407135  0.3569774627685547  0.6980212330818175  1.0000
  Gd  Gd3       1.0  0.49948886036872864  0.13239973783493042  0.5082723498344421  1.0000
  Gd  Gd4       1.0  0.9981356263160706  0.9337463974952698  0.45101508498191833  1.0000
  Gd  Gd5       1.0  0.4939548671245575  0.7631357908248901  0.24914364516735074  1.0000
