data_image0
_chemical_formula_structural       CCl3Gd6
_chemical_formula_sum              "C1 Cl3 Gd6"
_cell_length_a       6.4663928485509965
_cell_length_b       7.559044182444798
_cell_length_c       7.612696170806885
_cell_angle_alpha    112.73135618459342
_cell_angle_beta     90.9060873021605
_cell_angle_gamma    90.18410786675274

_space_group_name_H-M_alt    "P 1"
_space_group_IT_number       1

loop_
  _space_group_symop_operation_xyz
  'x, y, z'

loop_
  _atom_site_type_symbol
  _atom_site_label
  _atom_site_symmetry_multiplicity
  _atom_site_fract_x
  _atom_site_fract_y
  _atom_site_fract_z
  _atom_site_occupancy
  C   C1        1.0  0.3664501905441285  0.2550744116306305  0.16686536371707916  1.0000
  Cl  Cl1       1.0  0.38265624642372137  0.09197942912578583  0.717225193977356  1.0000
  Cl  Cl2       1.0  0.8571874499320985  0.596782922744751  0.15404453873634338  1.0000
  Cl  Cl3       1.0  0.8694838285446168  0.21119682490825653  0.1813490390777588  1.0000
  Gd  Gd1       1.0  0.8615055084228517  0.4347831904888153  0.42228588461875916  1.0000
  Gd  Gd2       1.0  0.3663677275180817  0.5693426728248596  0.17967423796653748  1.0000
  Gd  Gd3       1.0  0.8666910529136659  0.3806905448436737  0.538874089717865  1.0000
  Gd  Gd4       1.0  0.8673048019409181  0.25915971398353577  0.6559655070304871  1.0000
  Gd  Gd5       1.0  0.367744654417038  0.28931885957717896  0.7127905488014221  1.0000
  Gd  Gd6       1.0  0.3673293590545655  0.27525269985198975  0.7722281813621521  1.0000
