data_image0
_chemical_formula_structural       ClCoMnNbNpSb2Ti2
_chemical_formula_sum              "Cl1 Co1 Mn1 Nb1 Np1 Sb2 Ti2"
_cell_length_a       5.119467092073308
_cell_length_b       2.9814604114900423
_cell_length_c       7.818785190582275
_cell_angle_alpha    61.817665962947295
_cell_angle_beta     66.80919535584717
_cell_angle_gamma    18.369858118730594

_space_group_name_H-M_alt    "P 1"
_space_group_IT_number       1

loop_
  _space_group_symop_operation_xyz
  'x, y, z'

loop_
  _atom_site_type_symbol
  _atom_site_label
  _atom_site_symmetry_multiplicity
  _atom_site_fract_x
  _atom_site_fract_y
  _atom_site_fract_z
  _atom_site_occupancy
  Cl  Cl1       1.0  0.4118812382221222  0.13975659012794495  0.5023874044418335  1.0000
  Co  Co1       1.0  0.9286482334136963  0.8435254096984863  0.8710923790931702  1.0000
  Mn  Mn1       1.0  0.48525723814964294  0.57924884557724  0.2856115400791168  1.0000
  Nb  Nb1       1.0  0.07769104838371277  0.21320898830890656  0.5636720061302185  1.0000
  Np  Np1       1.0  0.43685370683670044  0.6477449536323547  0.39001718163490295  1.0000
  Sb  Sb1       1.0  0.577789843082428  0.9152224063873291  0.22558560967445374  1.0000
  Sb  Sb2       1.0  0.14193007349967957  0.5438733100891113  0.02286357246339321  1.0000
  Ti  Ti1       1.0  0.00667133554816246  0.5904728174209595  0.08344967663288116  1.0000
  Ti  Ti2       1.0  0.7611004710197449  0.3259669244289398  0.46521127223968506  1.0000
