data_image0
_chemical_formula_structural       Ba3ClGeI2MnN
_chemical_formula_sum              "Ba3 Cl1 Ge1 I2 Mn1 N1"
_cell_length_a       6.6688556305759255
_cell_length_b       6.528317800739795
_cell_length_c       7.649248123168945
_cell_angle_alpha    67.65490374609642
_cell_angle_beta     68.59790194302988
_cell_angle_gamma    64.44839413845735

_space_group_name_H-M_alt    "P 1"
_space_group_IT_number       1

loop_
  _space_group_symop_operation_xyz
  'x, y, z'

loop_
  _atom_site_type_symbol
  _atom_site_label
  _atom_site_symmetry_multiplicity
  _atom_site_fract_x
  _atom_site_fract_y
  _atom_site_fract_z
  _atom_site_occupancy
  Ba  Ba1       1.0  0.1738407164812088  0.9768068194389343  0.7480578422546387  1.0000
  Ba  Ba2       1.0  0.18924762308597565  0.5966208577156067  0.288485050201416  1.0000
  Ba  Ba3       1.0  0.6902453899383545  0.1354956477880478  0.6185330748558044  1.0000
  Cl  Cl1       1.0  0.32218700647354126  0.917736828327179  0.9510064125061035  1.0000
  Ge  Ge1       1.0  0.45340681076049805  0.3493865728378296  0.18965996801853177  1.0000
  I   I1        1.0  0.33397775888442993  0.8242644667625427  0.01688883826136589  1.0000
  I   I2        1.0  0.7679800391197205  0.9482235312461853  0.14642997086048115  1.0000
  Mn  Mn1       1.0  0.7109292149543762  0.3594578206539154  0.734743595123291  1.0000
  N   N1        1.0  0.35220396518707275  0.5888285636901855  0.6730403900146484  1.0000
