data_image0
_chemical_formula_structural       AsBa2ClMnNiSbTiZn
_chemical_formula_sum              "As1 Ba2 Cl1 Mn1 Ni1 Sb1 Ti1 Zn1"
_cell_length_a       4.62250969125545
_cell_length_b       5.186904272475213
_cell_length_c       9.651480674743652
_cell_angle_alpha    90.50887060611443
_cell_angle_beta     91.1437524463413
_cell_angle_gamma    80.54404339740113

_space_group_name_H-M_alt    "P 1"
_space_group_IT_number       1

loop_
  _space_group_symop_operation_xyz
  'x, y, z'

loop_
  _atom_site_type_symbol
  _atom_site_label
  _atom_site_symmetry_multiplicity
  _atom_site_fract_x
  _atom_site_fract_y
  _atom_site_fract_z
  _atom_site_occupancy
  As  As1       1.0  0.5796876549720764  0.43603000044822693  0.4326028823852539  1.0000
  Ba  Ba1       1.0  0.08909764885902405  0.7460278272628784  0.9857820272445679  1.0000
  Ba  Ba2       1.0  0.09383263438940048  0.0047041988000273705  0.555205225944519  1.0000
  Cl  Cl1       1.0  0.08577349781990051  0.8742042779922485  0.16432040929794312  1.0000
  Mn  Mn1       1.0  0.06966855376958847  0.5972199440002441  0.41804239153862  1.0000
  Ni  Ni1       1.0  0.5880165696144104  0.35879698395729065  0.8066478967666626  1.0000
  Sb  Sb1       1.0  0.08576112985610962  0.8444905877113342  0.8362457156181335  1.0000
  Ti  Ti1       1.0  0.5860732197761536  0.8604265451431274  0.25154492259025574  1.0000
  Zn  Zn1       1.0  0.5862354040145874  0.3741671144962311  0.5944668650627135  1.0000
