data_image0
_chemical_formula_structural       AgBa3ClNb4
_chemical_formula_sum              "Ag1 Ba3 Cl1 Nb4"
_cell_length_a       5.393797184703741
_cell_length_b       5.47580917792471
_cell_length_c       9.153374671936035
_cell_angle_alpha    98.83625062143648
_cell_angle_beta     101.8009075840294
_cell_angle_gamma    117.16034293044567

_space_group_name_H-M_alt    "P 1"
_space_group_IT_number       1

loop_
  _space_group_symop_operation_xyz
  'x, y, z'

loop_
  _atom_site_type_symbol
  _atom_site_label
  _atom_site_symmetry_multiplicity
  _atom_site_fract_x
  _atom_site_fract_y
  _atom_site_fract_z
  _atom_site_occupancy
  Ag  Ag1       1.0  0.426792174577713  0.38016360998153687  0.8091623187065125  1.0000
  Ba  Ba1       1.0  0.43809688091278076  0.0581287182867527  0.3053240478038788  1.0000
  Ba  Ba2       1.0  0.9196597337722778  0.4228667914867401  0.9744733572006226  1.0000
  Ba  Ba3       1.0  0.9241837859153748  0.5939127206802368  0.25072553753852844  1.0000
  Cl  Cl1       1.0  0.4333655834197998  0.3131512403488159  0.4738398790359497  1.0000
  Nb  Nb1       1.0  0.9287548065185547  0.8618692755699158  0.26454657316207886  1.0000
  Nb  Nb2       1.0  0.43487420678138733  0.781309962272644  0.880931556224823  1.0000
  Nb  Nb3       1.0  0.4330810308456421  0.33260953426361084  0.013605605810880661  1.0000
  Nb  Nb4       1.0  0.9309805631637573  0.4180961847305298  0.9155690670013428  1.0000
