data_image0
_chemical_formula_structural       Ba3GeNb2SbVZn
_chemical_formula_sum              "Ba3 Ge1 Nb2 Sb1 V1 Zn1"
_cell_length_a       4.5808610040855875
_cell_length_b       4.746631958054289
_cell_length_c       10.831931114196777
_cell_angle_alpha    90.67556597779422
_cell_angle_beta     90.56845643127112
_cell_angle_gamma    115.7284289871396

_space_group_name_H-M_alt    "P 1"
_space_group_IT_number       1

loop_
  _space_group_symop_operation_xyz
  'x, y, z'

loop_
  _atom_site_type_symbol
  _atom_site_label
  _atom_site_symmetry_multiplicity
  _atom_site_fract_x
  _atom_site_fract_y
  _atom_site_fract_z
  _atom_site_occupancy
  Ba  Ba1       1.0  0.8145044445991516  0.4412243366241455  0.5183038115501404  1.0000
  Ba  Ba2       1.0  0.8122783303260803  0.7282946705818176  0.32546111941337585  1.0000
  Ba  Ba3       1.0  0.561288595199585  0.338290274143219  0.40789493918418884  1.0000
  Ge  Ge1       1.0  0.5718438029289246  0.5748867988586426  0.10892821103334427  1.0000
  Nb  Nb1       1.0  0.08610794693231583  0.4537152349948883  0.21875163912773132  1.0000
  Nb  Nb2       1.0  0.5537246465682983  0.24151621758937836  0.0587819367647171  1.0000
  Sb  Sb1       1.0  0.3377287983894348  0.822597324848175  0.6318124532699585  1.0000
  V   V1        1.0  0.0700019896030426  0.21210765838623047  0.35504287481307983  1.0000
  Zn  Zn1       1.0  0.07908526062965393  0.9147791862487793  0.8378210067749023  1.0000
