data_image0
_chemical_formula_structural       Eu2I2InOPbTb2Zn
_chemical_formula_sum              "Eu2 I2 In1 O1 Pb1 Tb2 Zn1"
_cell_length_a       6.30225252310524
_cell_length_b       6.259374543081535
_cell_length_c       7.282114028930664
_cell_angle_alpha    113.93870101259394
_cell_angle_beta     110.42375627496807
_cell_angle_gamma    109.22315747786956

_space_group_name_H-M_alt    "P 1"
_space_group_IT_number       1

loop_
  _space_group_symop_operation_xyz
  'x, y, z'

loop_
  _atom_site_type_symbol
  _atom_site_label
  _atom_site_symmetry_multiplicity
  _atom_site_fract_x
  _atom_site_fract_y
  _atom_site_fract_z
  _atom_site_occupancy
  Eu  Eu1       1.0  0.41089919209480286  0.38172388076782227  0.2363859713077545  1.0000
  Eu  Eu2       1.0  0.9401239156723024  0.7699865698814392  0.19892749190330505  1.0000
  I   I1        1.0  0.3319511413574219  0.9744355082511902  0.2896643579006195  1.0000
  I   I2        1.0  0.7671608924865723  0.3108396828174591  0.2392616868019104  1.0000
  In  In1       1.0  0.9049655795097352  0.14225473999977112  0.0917523056268692  1.0000
  O   O1        1.0  0.39658263325691223  0.9987888932228088  0.18880130350589747  1.0000
  Pb  Pb1       1.0  0.4067000448703766  0.31549325585365295  0.280365526676178  1.0000
  Tb  Tb1       1.0  0.408227801322937  0.2402149885892868  0.12710317969322205  1.0000
  Tb  Tb2       1.0  0.855258584022522  0.3375980854034424  0.7991939187049866  1.0000
  Zn  Zn1       1.0  0.4098004698753357  0.74864661693573  0.0687208473682403  1.0000
