data_image0
_chemical_formula_structural       AsGeI3Tb2Zn3
_chemical_formula_sum              "As1 Ge1 I3 Tb2 Zn3"
_cell_length_a       5.290408870516015
_cell_length_b       6.759220500891984
_cell_length_c       10.333101272583008
_cell_angle_alpha    117.96444124229778
_cell_angle_beta     91.67231991234922
_cell_angle_gamma    89.95830089683463

_space_group_name_H-M_alt    "P 1"
_space_group_IT_number       1

loop_
  _space_group_symop_operation_xyz
  'x, y, z'

loop_
  _atom_site_type_symbol
  _atom_site_label
  _atom_site_symmetry_multiplicity
  _atom_site_fract_x
  _atom_site_fract_y
  _atom_site_fract_z
  _atom_site_occupancy
  As  As1       1.0  0.6104046106338501  0.36619359254837036  0.694595992565155  1.0000
  Ge  Ge1       1.0  0.1053750067949295  0.40030795335769653  0.2959117293357849  1.0000
  I   I1        1.0  0.10546772927045822  0.6649207472801208  0.8596661686897278  1.0000
  I   I2        1.0  0.599628210067749  0.010428761132061481  0.018801797181367874  1.0000
  I   I3        1.0  0.10417570918798447  0.12864656746387482  0.7732786536216736  1.0000
  Tb  Tb1       1.0  0.6036153435707092  0.3916690945625305  0.21484573185443878  1.0000
  Tb  Tb2       1.0  0.0993800237774849  0.8296986222267151  0.054332904517650646  1.0000
  Zn  Zn1       1.0  0.10532422363758087  0.7016357779502869  0.23175148665905  1.0000
  Zn  Zn2       1.0  0.6066972613334656  0.6874533295631409  0.2969958186149597  1.0000
  Zn  Zn3       1.0  0.5999264121055603  0.7584851384162903  0.02401688136160378  1.0000
