data_image0
_chemical_formula_structural       Eu2O5Sb2Tb
_chemical_formula_sum              "Eu2 O5 Sb2 Tb1"
_cell_length_a       5.8769285103129185
_cell_length_b       6.561285686452657
_cell_length_c       7.296828269958496
_cell_angle_alpha    119.67847912271786
_cell_angle_beta     100.12287769788465
_cell_angle_gamma    90.80238102983567

_space_group_name_H-M_alt    "P 1"
_space_group_IT_number       1

loop_
  _space_group_symop_operation_xyz
  'x, y, z'

loop_
  _atom_site_type_symbol
  _atom_site_label
  _atom_site_symmetry_multiplicity
  _atom_site_fract_x
  _atom_site_fract_y
  _atom_site_fract_z
  _atom_site_occupancy
  Eu  Eu1       1.0  0.8620576858520508  0.8538108468055725  0.5325450301170349  1.0000
  Eu  Eu2       1.0  0.3666691184043884  0.1750153750181198  0.8646256923675537  1.0000
  O   O1        1.0  0.8614944815635681  0.5217627286911011  0.2498740702867508  1.0000
  O   O2        1.0  0.3601415157318115  0.5505031943321228  0.3797912299633026  1.0000
  O   O3        1.0  0.8595982193946838  0.0709879919886589  0.520366907119751  1.0000
  O   O4        1.0  0.8605189323425293  0.503803551197052  0.19704681634902954  1.0000
  O   O5        1.0  0.35966411232948303  0.42546364665031433  0.08793267607688904  1.0000
  Sb  Sb1       1.0  0.3800838887691498  0.37402600049972534  0.27139559388160706  1.0000
  Sb  Sb2       1.0  0.09749993681907654  0.32134389877319336  0.36149299144744873  1.0000
  Tb  Tb1       1.0  0.863179624080658  0.5349209904670715  0.3177627921104431  1.0000
