data_image0
_chemical_formula_structural       AsEu3FeI2OTb2
_chemical_formula_sum              "As1 Eu3 Fe1 I2 O1 Tb2"
_cell_length_a       5.576561016930628
_cell_length_b       6.157471523078282
_cell_length_c       10.391133308410645
_cell_angle_alpha    89.67356269680025
_cell_angle_beta     89.88863846937537
_cell_angle_gamma    90.79566723395558

_space_group_name_H-M_alt    "P 1"
_space_group_IT_number       1

loop_
  _space_group_symop_operation_xyz
  'x, y, z'

loop_
  _atom_site_type_symbol
  _atom_site_label
  _atom_site_symmetry_multiplicity
  _atom_site_fract_x
  _atom_site_fract_y
  _atom_site_fract_z
  _atom_site_occupancy
  As  As1       1.0  0.8184647560119629  0.9463690519332886  0.7957523465156555  1.0000
  Eu  Eu1       1.0  0.3315519094467163  0.7271352410316467  0.571689248085022  1.0000
  Eu  Eu2       1.0  0.8283392786979675  0.8496144413948059  0.012544263154268265  1.0000
  Eu  Eu3       1.0  0.3301198482513428  0.2378959208726883  0.3525751233100891  1.0000
  Fe  Fe1       1.0  0.8300391435623169  0.7011576294898987  0.36628830432891846  1.0000
  I   I1        1.0  0.6861172318458557  0.23298951983451843  0.2717818319797516  1.0000
  I   I2        1.0  0.1407126486301422  0.20809561014175415  0.37057995796203613  1.0000
  O   O1        1.0  0.7284793853759766  0.912973940372467  0.9955548048019409  1.0000
  Tb  Tb1       1.0  0.3553215265274048  0.7472529411315918  0.30382245779037476  1.0000
  Tb  Tb2       1.0  0.847244381904602  0.0499962717294693  0.48712119460105896  1.0000
