data_image0
_chemical_formula_structural       I2OPb2SbTb2Zn2
_chemical_formula_sum              "I2 O1 Pb2 Sb1 Tb2 Zn2"
_cell_length_a       6.314025438897591
_cell_length_b       6.550182700204774
_cell_length_c       8.22659969329834
_cell_angle_alpha    113.4186355977839
_cell_angle_beta     113.33100653299341
_cell_angle_gamma    94.5592450022068

_space_group_name_H-M_alt    "P 1"
_space_group_IT_number       1

loop_
  _space_group_symop_operation_xyz
  'x, y, z'

loop_
  _atom_site_type_symbol
  _atom_site_label
  _atom_site_symmetry_multiplicity
  _atom_site_fract_x
  _atom_site_fract_y
  _atom_site_fract_z
  _atom_site_occupancy
  I   I1        1.0  0.9989057779312135  0.43343570828437805  0.24751003086566925  1.0000
  I   I2        1.0  0.459725171327591  0.26777684688568115  0.2736375331878662  1.0000
  O   O1        1.0  0.44651284813880926  0.1381184607744217  0.527378499507904  1.0000
  Pb  Pb1       1.0  0.018123431131243706  0.2102641761302948  0.3515895903110504  1.0000
  Pb  Pb2       1.0  0.9974126219749452  0.5588163733482361  0.16663335263729095  1.0000
  Sb  Sb1       1.0  0.6220393180847168  0.2584766745567322  0.4766160547733307  1.0000
  Tb  Tb1       1.0  0.2715070843696594  0.5743370056152344  0.1840205937623977  1.0000
  Tb  Tb2       1.0  0.26648426055908203  0.017681457102298737  0.17131145298480988  1.0000
  Zn  Zn1       1.0  0.9634364843368531  0.08628068119287491  0.6917259693145752  1.0000
  Zn  Zn2       1.0  0.5958901643753052  0.8015500903129578  0.9139862060546875  1.0000
