data_image0
_chemical_formula_structural       Eu5O3Sb2
_chemical_formula_sum              "Eu5 O3 Sb2"
_cell_length_a       6.526119633773616
_cell_length_b       6.550537727983334
_cell_length_c       7.3777594566345215
_cell_angle_alpha    116.32656490613535
_cell_angle_beta     117.13995038405245
_cell_angle_gamma    92.54895974655956

_space_group_name_H-M_alt    "P 1"
_space_group_IT_number       1

loop_
  _space_group_symop_operation_xyz
  'x, y, z'

loop_
  _atom_site_type_symbol
  _atom_site_label
  _atom_site_symmetry_multiplicity
  _atom_site_fract_x
  _atom_site_fract_y
  _atom_site_fract_z
  _atom_site_occupancy
  Eu  Eu1       1.0  0.6930074095726013  0.20810367166996002  0.3957681059837342  1.0000
  Eu  Eu2       1.0  0.18417680263519287  0.06371182203292847  0.2373836934566498  1.0000
  Eu  Eu3       1.0  0.20116597414016724  0.13899068534374237  0.4694256782531739  1.0000
  Eu  Eu4       1.0  0.20807085931301117  0.1295265406370163  0.7520306110382081  1.0000
  Eu  Eu5       1.0  0.7234009504318237  0.8240312933921814  0.19177211821079257  1.0000
  O   O1        1.0  0.608431339263916  0.8714336156845093  0.8147507309913636  1.0000
  O   O2        1.0  0.8313692808151245  0.9675371646881104  0.36469328403472906  1.0000
  O   O3        1.0  0.8839426040649414  0.5485315322875977  0.37248909473419195  1.0000
  Sb  Sb1       1.0  0.7198214530944824  0.898402988910675  0.8390208482742311  1.0000
  Sb  Sb2       1.0  0.7020662426948547  0.15452425181865692  0.11175558716058732  1.0000
