data_image0
_chemical_formula_structural       DyGe3LiP3Tl2
_chemical_formula_sum              "Dy1 Ge3 Li1 P3 Tl2"
_cell_length_a       5.03505905866495
_cell_length_b       6.456947781632545
_cell_length_c       7.2003092765808105
_cell_angle_alpha    124.3784561371432
_cell_angle_beta     90.41887131793371
_cell_angle_gamma    90.3557024078466

_space_group_name_H-M_alt    "P 1"
_space_group_IT_number       1

loop_
  _space_group_symop_operation_xyz
  'x, y, z'

loop_
  _atom_site_type_symbol
  _atom_site_label
  _atom_site_symmetry_multiplicity
  _atom_site_fract_x
  _atom_site_fract_y
  _atom_site_fract_z
  _atom_site_occupancy
  Dy  Dy1       1.0  0.6123899221420288  0.5728434324264526  0.5330840945243835  1.0000
  Ge  Ge1       1.0  0.12282849103212357  0.8596941828727722  0.08694793283939367  1.0000
  Ge  Ge2       1.0  0.11871348321437836  0.9513320922851562  0.7023645043373108  1.0000
  Ge  Ge3       1.0  0.6159281134605408  0.09055723249912262  0.2817791998386383  1.0000
  Li  Li1       1.0  0.12468630820512772  0.20145997405052185  0.4268966615200043  1.0000
  P   P1        1.0  0.6282783150672913  0.32387420535087585  0.2600007653236389  1.0000
  P   P2        1.0  0.10354167968034744  0.39814797043800354  0.31055948138237  1.0000
  P   P3        1.0  0.602688729763031  0.3760639727115631  0.529619038105011  1.0000
  Tl  Tl1       1.0  0.12423539906740189  0.05201030150055885  0.4416065216064453  1.0000
  Tl  Tl2       1.0  0.06511478871107101  0.7633792161941528  0.06270048022270203  1.0000
