data_image0
_chemical_formula_structural       Ga2GeP2Pt3Tl2
_chemical_formula_sum              "Ga2 Ge1 P2 Pt3 Tl2"
_cell_length_a       5.587263660250931
_cell_length_b       5.440659992624477
_cell_length_c       6.082172870635986
_cell_angle_alpha    108.8102092595304
_cell_angle_beta     113.58626447548636
_cell_angle_gamma    127.32048713142956

_space_group_name_H-M_alt    "P 1"
_space_group_IT_number       1

loop_
  _space_group_symop_operation_xyz
  'x, y, z'

loop_
  _atom_site_type_symbol
  _atom_site_label
  _atom_site_symmetry_multiplicity
  _atom_site_fract_x
  _atom_site_fract_y
  _atom_site_fract_z
  _atom_site_occupancy
  Ga  Ga1       1.0  0.6544492840766905  0.7507258653640745  0.5336920619010924  1.0000
  Ga  Ga2       1.0  0.08558220416307431  0.5474572777748106  0.9019774198532103  1.0000
  Ge  Ge1       1.0  0.5141043663024902  0.7027100920677185  0.5509262084960938  1.0000
  P   P1        1.0  0.2893182933330535  0.8713358044624328  0.30191624164581293  1.0000
  P   P2        1.0  0.5142481327056886  0.18577322363853466  0.8894200325012208  1.0000
  Pt  Pt1       1.0  0.11193738132715217  0.4855571091175079  0.9272688627243042  1.0000
  Pt  Pt2       1.0  0.47857943177223194  0.1557316929101943  0.4664574265480041  1.0000
  Pt  Pt3       1.0  0.6338722705841063  0.5466079711914061  0.3935937285423278  1.0000
  Tl  Tl1       1.0  0.912726104259491  0.47524192929267883  0.3627221882343292  1.0000
  Tl  Tl2       1.0  0.46637651324272156  0.6163254380226135  0.8060445785522461  1.0000
