data_image0
_chemical_formula_structural       Tl8Y2
_chemical_formula_sum              "Tl8 Y2"
_cell_length_a       6.1949313911481925
_cell_length_b       5.849941961456367
_cell_length_c       6.105865478515625
_cell_angle_alpha    123.22318674782082
_cell_angle_beta     124.33140699633273
_cell_angle_gamma    112.42353344043352

_space_group_name_H-M_alt    "P 1"
_space_group_IT_number       1

loop_
  _space_group_symop_operation_xyz
  'x, y, z'

loop_
  _atom_site_type_symbol
  _atom_site_label
  _atom_site_symmetry_multiplicity
  _atom_site_fract_x
  _atom_site_fract_y
  _atom_site_fract_z
  _atom_site_occupancy
  Tl  Tl1       1.0  0.604024887084961  0.05044198036193856  0.7596285939216614  1.0000
  Tl  Tl2       1.0  0.3079007863998413  0.8468014001846313  0.03678186610341058  1.0000
  Tl  Tl3       1.0  0.9969557523727417  0.5432149171829224  0.7567699551582336  1.0000
  Tl  Tl4       1.0  0.05544925108551983  0.33004999160766607  0.38165384531021124  1.0000
  Tl  Tl5       1.0  0.30403909087181097  0.28972521424293524  0.0815207064151764  1.0000
  Tl  Tl6       1.0  0.6068919897079468  0.4593890607357025  0.4596697688102722  1.0000
  Tl  Tl7       1.0  0.15782739222049721  0.5878153443336488  0.12132533639669417  1.0000
  Tl  Tl8       1.0  0.28344330191612244  0.8738887906074524  0.03786065056920044  1.0000
  Y   Y1        1.0  0.6746550798416138  0.6441987156867981  0.07327287644147863  1.0000
  Y   Y2        1.0  0.9844956398010255  0.8525163531303407  0.7889510989189149  1.0000
