data_image0
_chemical_formula_structural       Ga3Li3P2Tl2
_chemical_formula_sum              "Ga3 Li3 P2 Tl2"
_cell_length_a       6.295508779210237
_cell_length_b       5.882297189879104
_cell_length_c       5.740810394287109
_cell_angle_alpha    110.04634477469764
_cell_angle_beta     114.24905914882628
_cell_angle_gamma    111.80935321070119

_space_group_name_H-M_alt    "P 1"
_space_group_IT_number       1

loop_
  _space_group_symop_operation_xyz
  'x, y, z'

loop_
  _atom_site_type_symbol
  _atom_site_label
  _atom_site_symmetry_multiplicity
  _atom_site_fract_x
  _atom_site_fract_y
  _atom_site_fract_z
  _atom_site_occupancy
  Ga  Ga1       1.0  0.4229206144809723  0.050711121410131454  0.21719190478324893  1.0000
  Ga  Ga2       1.0  0.7185875177383423  0.17924019694328308  0.7679120898246766  1.0000
  Ga  Ga3       1.0  0.194411039352417  0.21892613172531128  0.8974758982658387  1.0000
  Li  Li1       1.0  0.3940204083919525  0.8065633773803711  0.6780002117156984  1.0000
  Li  Li2       1.0  0.913630485534668  0.9720671772956848  0.6615796089172363  1.0000
  Li  Li3       1.0  0.19949042797088623  0.10031233727931976  0.21066173911094668  1.0000
  P   P1        1.0  0.509419322013855  0.2963257431983948  0.7607163190841676  1.0000
  P   P2        1.0  0.42249545454978943  0.636470377445221  0.2367669492959977  1.0000
  Tl  Tl1       1.0  0.9219282269477844  0.5791012048721313  0.6448000073432922  1.0000
  Tl  Tl2       1.0  0.17364099621772766  0.4455812871456146  0.8325666785240174  1.0000
