data_image0
_chemical_formula_structural       Tl9Y
_chemical_formula_sum              "Tl9 Y1"
_cell_length_a       6.155849896568662
_cell_length_b       5.865841173650231
_cell_length_c       5.72869873046875
_cell_angle_alpha    112.42048835873001
_cell_angle_beta     118.85459896338823
_cell_angle_gamma    112.63351040288474

_space_group_name_H-M_alt    "P 1"
_space_group_IT_number       1

loop_
  _space_group_symop_operation_xyz
  'x, y, z'

loop_
  _atom_site_type_symbol
  _atom_site_label
  _atom_site_symmetry_multiplicity
  _atom_site_fract_x
  _atom_site_fract_y
  _atom_site_fract_z
  _atom_site_occupancy
  Tl  Tl1       1.0  0.3178023099899292  0.3354732394218445  0.4380943477153778  1.0000
  Tl  Tl2       1.0  0.2573586702346802  0.03254133462905883  0.028680184856057164  1.0000
  Tl  Tl3       1.0  0.7232576012611389  0.011932911351323136  0.11001124978065495  1.0000
  Tl  Tl4       1.0  0.7573845386505127  0.24710570275783528  0.48726063966751093  1.0000
  Tl  Tl5       1.0  0.1765225678682326  0.4080392420291899  0.9763947725296019  1.0000
  Tl  Tl6       1.0  0.5908923745155334  0.9405326843261719  0.32651308178901667  1.0000
  Tl  Tl7       1.0  0.780242383480072  0.20688574016094208  0.014997768215835115  1.0000
  Tl  Tl8       1.0  0.3393500745296479  0.436235934495926  0.6861272454261781  1.0000
  Tl  Tl9       1.0  0.39500775933265686  0.028240244835615144  0.775140643119812  1.0000
  Y   Y1        1.0  0.06114503741264335  0.9695610404014586  0.05942527204751966  1.0000
