data_image0
_chemical_formula_structural       HPtSiTb8
_chemical_formula_sum              "H1 Pt1 Si1 Tb8"
_cell_length_a       7.052771319628142
_cell_length_b       6.779570958490816
_cell_length_c       7.6329665184021
_cell_angle_alpha    117.30249692800533
_cell_angle_beta     117.11617217088089
_cell_angle_gamma    90.53480786136775

_space_group_name_H-M_alt    "P 1"
_space_group_IT_number       1

loop_
  _space_group_symop_operation_xyz
  'x, y, z'

loop_
  _atom_site_type_symbol
  _atom_site_label
  _atom_site_symmetry_multiplicity
  _atom_site_fract_x
  _atom_site_fract_y
  _atom_site_fract_z
  _atom_site_occupancy
  H   H1        1.0  0.026429910212755203  0.6982426047325134  0.5453851222991942  1.0000
  Pt  Pt1       1.0  0.7735563516616821  0.6944469213485718  0.9948180317878722  1.0000
  Si  Si1       1.0  0.782737135887146  0.12071769684553146  0.6048238277435302  1.0000
  Tb  Tb1       1.0  0.7565129399299622  0.050393544137477875  0.7927180528640746  1.0000
  Tb  Tb2       1.0  0.5047587156295776  0.055528074502944946  0.45876705646514887  1.0000
  Tb  Tb3       1.0  0.7732604742050171  0.3850579857826233  0.9166181683540343  1.0000
  Tb  Tb4       1.0  0.748829185962677  0.7128183841705322  0.34436807036399836  1.0000
  Tb  Tb5       1.0  0.18995635211467743  0.02496161311864853  0.3910159766674041  1.0000
  Tb  Tb6       1.0  0.2535368502140045  0.5657732486724854  0.4259988963603973  1.0000
  Tb  Tb7       1.0  0.27041611075401306  0.6336753964424133  0.46920973062515253  1.0000
  Tb  Tb8       1.0  0.46771207451820374  0.7855605483055115  0.4211605489253997  1.0000
