data_image0
_chemical_formula_structural       ISi2Tb7Zn
_chemical_formula_sum              "I1 Si2 Tb7 Zn1"
_cell_length_a       5.910613320758037
_cell_length_b       7.422946594083703
_cell_length_c       7.888864517211914
_cell_angle_alpha    124.45412994743671
_cell_angle_beta     89.65435884521958
_cell_angle_gamma    88.48463760016294

_space_group_name_H-M_alt    "P 1"
_space_group_IT_number       1

loop_
  _space_group_symop_operation_xyz
  'x, y, z'

loop_
  _atom_site_type_symbol
  _atom_site_label
  _atom_site_symmetry_multiplicity
  _atom_site_fract_x
  _atom_site_fract_y
  _atom_site_fract_z
  _atom_site_occupancy
  I   I1        1.0  0.8253213763237  0.46882975101470953  0.5352199673652649  1.0000
  Si  Si1       1.0  0.32696792483329773  0.18766340613365176  0.8403067588806151  1.0000
  Si  Si2       1.0  0.33006730675697327  0.9265928268432618  0.9907283782958983  1.0000
  Tb  Tb1       1.0  0.33098194003105164  0.5589067339897156  0.06604684144258505  1.0000
  Tb  Tb2       1.0  0.3273390829563141  0.3300235867500306  0.17184990644454953  1.0000
  Tb  Tb3       1.0  0.8283942341804504  0.9663518071174623  0.3831148743629455  1.0000
  Tb  Tb4       1.0  0.8286109566688538  0.19165176153182986  0.4832225143909454  1.0000
  Tb  Tb5       1.0  0.3258005380630493  0.9920467734336854  0.5857939720153809  1.0000
  Tb  Tb6       1.0  0.8259273767471313  0.8996212482452394  0.7896942496299743  1.0000
  Tb  Tb7       1.0  0.8313036561012268  0.07174984365701675  0.06891526281833649  1.0000
  Zn  Zn1       1.0  0.32103604078292847  0.7752338647842408  0.1758217364549637  1.0000
