data_image0
_chemical_formula_structural       OTb10
_chemical_formula_sum              "O1 Tb10"
_cell_length_a       5.492850707909097
_cell_length_b       8.350859783689623
_cell_length_c       8.654830932617188
_cell_angle_alpha    119.72446305499733
_cell_angle_beta     91.0384194603813
_cell_angle_gamma    89.53275064483807

_space_group_name_H-M_alt    "P 1"
_space_group_IT_number       1

loop_
  _space_group_symop_operation_xyz
  'x, y, z'

loop_
  _atom_site_type_symbol
  _atom_site_label
  _atom_site_symmetry_multiplicity
  _atom_site_fract_x
  _atom_site_fract_y
  _atom_site_fract_z
  _atom_site_occupancy
  O   O1        1.0  0.34131839871406555  0.5007123351097107  0.21636483073234558  1.0000
  Tb  Tb1       1.0  0.38671427965164185  0.756270706653595  0.1959632188081742  1.0000
  Tb  Tb2       1.0  0.3895048499107361  0.868897557258606  0.7511659264564514  1.0000
  Tb  Tb3       1.0  0.3874819874763489  0.9297621846199036  0.5381966233253479  1.0000
  Tb  Tb4       1.0  0.8873085379600525  0.2279810607433319  0.11842457205057144  1.0000
  Tb  Tb5       1.0  0.3896281123161316  0.915278434753418  0.47953179478645325  1.0000
  Tb  Tb6       1.0  0.8862606287002563  0.7354692816734314  0.7337523698806763  1.0000
  Tb  Tb7       1.0  0.9007400274276733  0.9937446713447571  0.43306758999824524  1.0000
  Tb  Tb8       1.0  0.8876082897186279  0.17924588918685913  0.08206351846456529  1.0000
  Tb  Tb9       1.0  0.8889058828353882  0.12172328680753708  0.37479254603385925  1.0000
  Tb  Tb10      1.0  0.3895825445652008  0.6157426238059998  0.07825318723917013  1.0000
