data_image0
_chemical_formula_structural       Si5Tb6
_chemical_formula_sum              "Si5 Tb6"
_cell_length_a       5.23220617376655
_cell_length_b       3.6911703349381084
_cell_length_c       5.173655033111572
_cell_angle_alpha    27.252934152674705
_cell_angle_beta     54.582214211034575
_cell_angle_gamma    52.57482677755976

_space_group_name_H-M_alt    "P 1"
_space_group_IT_number       1

loop_
  _space_group_symop_operation_xyz
  'x, y, z'

loop_
  _atom_site_type_symbol
  _atom_site_label
  _atom_site_symmetry_multiplicity
  _atom_site_fract_x
  _atom_site_fract_y
  _atom_site_fract_z
  _atom_site_occupancy
  Si  Si1       1.0  0.2740399241447449  0.9259577393531802  0.2594524323940276  1.0000
  Si  Si2       1.0  0.8619356155395508  0.8376430273056029  0.24450616538524628  1.0000
  Si  Si3       1.0  0.9009250402450562  0.3586876988410951  0.5522286891937255  1.0000
  Si  Si4       1.0  0.01076367963105439  0.7868691086769105  0.19189526140689847  1.0000
  Si  Si5       1.0  0.7724068164825438  0.10047861188650135  0.29110291600227356  1.0000
  Tb  Tb1       1.0  0.7675742506980896  0.1309016495943073  0.8065346479415892  1.0000
  Tb  Tb2       1.0  0.236426442861557  0.2673006057739258  0.6293463110923766  1.0000
  Tb  Tb3       1.0  0.38913244009017944  0.36354714632034296  0.5442142486572266  1.0000
  Tb  Tb4       1.0  0.27316027879714966  0.4531753659248354  0.788746416568756  1.0000
  Tb  Tb5       1.0  0.45298871397972107  0.7414304614067079  0.7902082800865173  1.0000
  Tb  Tb6       1.0  0.6289049386978149  0.7106846570968629  0.6895940303802489  1.0000
