data_image0
_chemical_formula_structural       OsSiTb9
_chemical_formula_sum              "Os1 Si1 Tb9"
_cell_length_a       7.229384872824339
_cell_length_b       7.239815963802626
_cell_length_c       7.593902111053467
_cell_angle_alpha    70.96672270726974
_cell_angle_beta     68.45650305429612
_cell_angle_gamma    69.06478455233466

_space_group_name_H-M_alt    "P 1"
_space_group_IT_number       1

loop_
  _space_group_symop_operation_xyz
  'x, y, z'

loop_
  _atom_site_type_symbol
  _atom_site_label
  _atom_site_symmetry_multiplicity
  _atom_site_fract_x
  _atom_site_fract_y
  _atom_site_fract_z
  _atom_site_occupancy
  Os  Os1       1.0  0.6313461065292358  0.9507171511650085  0.3686800599098205  1.0000
  Si  Si1       1.0  0.6552274823188782  0.5176212191581726  0.10744084417819978  1.0000
  Tb  Tb1       1.0  0.6552460789680481  0.019182046875357628  0.17998610436916354  1.0000
  Tb  Tb2       1.0  0.6666263937950134  0.31841859221458435  0.44673252105712896  1.0000
  Tb  Tb3       1.0  0.1582007110118866  0.9169459342956543  0.42709398269653326  1.0000
  Tb  Tb4       1.0  0.6556878685951233  0.8413618803024292  0.6722579598426819  1.0000
  Tb  Tb5       1.0  0.15386268496513367  0.5371772646903992  0.26204627752304077  1.0000
  Tb  Tb6       1.0  0.15225520730018616  0.08397705852985382  0.7748481631278993  1.0000
  Tb  Tb7       1.0  0.1541365087032318  0.8209108710289001  0.28636640310287476  1.0000
  Tb  Tb8       1.0  0.15305130183696747  0.5864585638046265  0.24711526930332187  1.0000
  Tb  Tb9       1.0  0.6548140645027161  0.6832073330879211  0.07116309553384781  1.0000
