data_image0
_chemical_formula_structural       Si3Tb8
_chemical_formula_sum              "Si3 Tb8"
_cell_length_a       6.044547978989796
_cell_length_b       5.605248819958428
_cell_length_c       6.123225212097168
_cell_angle_alpha    74.46774358875967
_cell_angle_beta     61.520098676185995
_cell_angle_gamma    62.67261531718866

_space_group_name_H-M_alt    "P 1"
_space_group_IT_number       1

loop_
  _space_group_symop_operation_xyz
  'x, y, z'

loop_
  _atom_site_type_symbol
  _atom_site_label
  _atom_site_symmetry_multiplicity
  _atom_site_fract_x
  _atom_site_fract_y
  _atom_site_fract_z
  _atom_site_occupancy
  Si  Si1       1.0  0.005795876961201388  0.4920387268066407  0.5534974336624146  1.0000
  Si  Si2       1.0  0.5095419287681578  0.9799802899360658  0.19558502733707428  1.0000
  Si  Si3       1.0  0.4990229606628418  0.1292102187871933  0.046168398112058674  1.0000
  Tb  Tb1       1.0  0.021717634052038193  0.7555755972862244  0.209016814827919  1.0000
  Tb  Tb2       1.0  0.003858208656311035  0.7102246284484863  0.3690579831600189  1.0000
  Tb  Tb3       1.0  0.02391311153769489  0.4770446121692658  0.9382722973823547  1.0000
  Tb  Tb4       1.0  0.4918239414691925  0.5512783527374268  0.5018728971481323  1.0000
  Tb  Tb5       1.0  0.5043089389801025  0.5529548525810242  0.35881921648979187  1.0000
  Tb  Tb6       1.0  0.5061135292053223  0.20837509632110596  0.8871301412582397  1.0000
  Tb  Tb7       1.0  0.7625976204872131  0.7775442004203796  0.50684654712677  1.0000
  Tb  Tb8       1.0  0.5119224786758423  0.5149948596954346  0.5023798942565918  1.0000
