data_image0
_chemical_formula_structural       GeNiSb3SiTl2
_chemical_formula_sum              "Ge1 Ni1 Sb3 Si1 Tl2"
_cell_length_a       4.887082554280527
_cell_length_b       5.5959750071439345
_cell_length_c       7.694434642791748
_cell_angle_alpha    113.70726800635808
_cell_angle_beta     90.11018829133982
_cell_angle_gamma    90.92357783826225

_space_group_name_H-M_alt    "P 1"
_space_group_IT_number       1

loop_
  _space_group_symop_operation_xyz
  'x, y, z'

loop_
  _atom_site_type_symbol
  _atom_site_label
  _atom_site_symmetry_multiplicity
  _atom_site_fract_x
  _atom_site_fract_y
  _atom_site_fract_z
  _atom_site_occupancy
  Ge  Ge1       1.0  0.72440105676651  0.9727598428726196  0.5978292226791382  1.0000
  Ni  Ni1       1.0  0.22158116102218628  0.7070695757865906  0.3970631957054138  1.0000
  Sb  Sb1       1.0  0.7245243191719055  0.45565351843833923  0.32322075963020325  1.0000
  Sb  Sb2       1.0  0.2238519787788391  0.9479134678840637  0.4239304661750794  1.0000
  Sb  Sb3       1.0  0.7295788526535034  0.06170184165239334  0.0869007483124733  1.0000
  Si  Si1       1.0  0.2281949669122696  0.22658847272396088  0.0912795215845108  1.0000
  Tl  Tl1       1.0  0.23805983364582062  0.4541604816913605  0.5124075412750244  1.0000
  Tl  Tl2       1.0  0.23967690765857697  0.4574560523033142  0.9519556760787964  1.0000
