data_image0
_chemical_formula_structural       GeOs2SSb3Si
_chemical_formula_sum              "Ge1 Os2 S1 Sb3 Si1"
_cell_length_a       4.871327597059516
_cell_length_b       5.76761021045396
_cell_length_c       7.523332118988037
_cell_angle_alpha    113.2154869409524
_cell_angle_beta     104.61267836104204
_cell_angle_gamma    90.05916574843516

_space_group_name_H-M_alt    "P 1"
_space_group_IT_number       1

loop_
  _space_group_symop_operation_xyz
  'x, y, z'

loop_
  _atom_site_type_symbol
  _atom_site_label
  _atom_site_symmetry_multiplicity
  _atom_site_fract_x
  _atom_site_fract_y
  _atom_site_fract_z
  _atom_site_occupancy
  Ge  Ge1       1.0  0.40033286809921265  0.008554970845580101  0.05690736696124077  1.0000
  Os  Os1       1.0  0.6040425300598145  0.2983957827091217  0.36250922083854675  1.0000
  Os  Os2       1.0  0.6496903896331787  0.3560933768749237  0.21256789565086365  1.0000
  S   S1        1.0  0.3774888515472412  0.8084693551063538  0.745897650718689  1.0000
  Sb  Sb1       1.0  0.8363401889801025  0.8699342608451843  0.7740232348442078  1.0000
  Sb  Sb2       1.0  0.3325035870075226  0.5463729500770569  0.6209659576416016  1.0000
  Sb  Sb3       1.0  0.3165636956691742  0.5835050344467163  0.9155951738357544  1.0000
  Si  Si1       1.0  0.9248479008674622  0.2836247682571411  0.4530177712440491  1.0000
