data_image0
_chemical_formula_structural       GeHOs2SSb3
_chemical_formula_sum              "Ge1 H1 Os2 S1 Sb3"
_cell_length_a       4.529511753187047
_cell_length_b       6.739824820658195
_cell_length_c       7.6518235206604
_cell_angle_alpha    117.97469141290591
_cell_angle_beta     98.05392004781686
_cell_angle_gamma    88.11905517797999

_space_group_name_H-M_alt    "P 1"
_space_group_IT_number       1

loop_
  _space_group_symop_operation_xyz
  'x, y, z'

loop_
  _atom_site_type_symbol
  _atom_site_label
  _atom_site_symmetry_multiplicity
  _atom_site_fract_x
  _atom_site_fract_y
  _atom_site_fract_z
  _atom_site_occupancy
  Ge  Ge1       1.0  0.4049009084701538  0.9521243572235107  0.2724270522594452  1.0000
  H   H1        1.0  0.9333766102790833  0.5210071802139282  0.8137680888175964  1.0000
  Os  Os1       1.0  0.43403682112693787  0.5074449181556702  0.9114351272583008  1.0000
  Os  Os2       1.0  0.4764697849750519  0.04799802228808403  0.7879444360733032  1.0000
  S   S1        1.0  0.9362249970436096  0.9962666630744934  0.9155021905899048  1.0000
  Sb  Sb1       1.0  0.9061660170555115  0.5792346000671387  0.03909720852971077  1.0000
  Sb  Sb2       1.0  0.48251456022262573  0.9661615490913391  0.6804172396659851  1.0000
  Sb  Sb3       1.0  0.1437552273273468  0.1405002474784851  0.2883949875831604  1.0000
