data_image0
_chemical_formula_structural       GeLaOsSSb3Si
_chemical_formula_sum              "Ge1 La1 Os1 S1 Sb3 Si1"
_cell_length_a       5.957092397119794
_cell_length_b       6.519402710081573
_cell_length_c       6.847991466522217
_cell_angle_alpha    116.00356673568267
_cell_angle_beta     111.2377530334744
_cell_angle_gamma    94.62962769901836

_space_group_name_H-M_alt    "P 1"
_space_group_IT_number       1

loop_
  _space_group_symop_operation_xyz
  'x, y, z'

loop_
  _atom_site_type_symbol
  _atom_site_label
  _atom_site_symmetry_multiplicity
  _atom_site_fract_x
  _atom_site_fract_y
  _atom_site_fract_z
  _atom_site_occupancy
  Ge  Ge1       1.0  0.7172159552574158  0.20462965965270996  0.9943004846572875  1.0000
  La  La1       1.0  0.9862806200981139  0.24482816457748413  0.754874050617218  1.0000
  Os  Os1       1.0  0.9998775124549865  0.7595627307891846  0.2553456723690033  1.0000
  S   S1        1.0  0.47596058249473566  0.7165929079055786  0.263276070356369  1.0000
  Sb  Sb1       1.0  0.47105163335800165  0.2523038983345032  0.5261765718460083  1.0000
  Sb  Sb2       1.0  0.4785023927688598  0.8260407447814941  0.5189745426177979  1.0000
  Sb  Sb3       1.0  0.4957899153232574  0.23606278002262115  0.7900147438049316  1.0000
  Si  Si1       1.0  0.9792922139167785  0.22687511146068573  0.2655702531337738  1.0000
