data_image0
_chemical_formula_structural       C2Ho8
_chemical_formula_sum              "C2 Ho8"
_cell_length_a       5.08281840370216
_cell_length_b       6.639012528748141
_cell_length_c       7.214275360107422
_cell_angle_alpha    115.56367459801673
_cell_angle_beta     91.4956932515865
_cell_angle_gamma    89.52645521377438

_space_group_name_H-M_alt    "P 1"
_space_group_IT_number       1

loop_
  _space_group_symop_operation_xyz
  'x, y, z'

loop_
  _atom_site_type_symbol
  _atom_site_label
  _atom_site_symmetry_multiplicity
  _atom_site_fract_x
  _atom_site_fract_y
  _atom_site_fract_z
  _atom_site_occupancy
  C   C1        1.0  0.16213570535182953  0.26462748646736145  0.057090651243925095  1.0000
  C   C2        1.0  0.6542563438415527  0.9579437971115112  0.2025521695613861  1.0000
  Ho  Ho1       1.0  0.15761876106262207  0.9199681282043457  0.1521904468536377  1.0000
  Ho  Ho2       1.0  0.9015980362892151  0.41294416785240173  0.3027702271938324  1.0000
  Ho  Ho3       1.0  0.15592920780181885  0.9957553148269653  0.8592319488525391  1.0000
  Ho  Ho4       1.0  0.6489322185516357  0.26821982860565186  0.6159003376960754  1.0000
  Ho  Ho5       1.0  0.6489250659942627  0.45826274156570435  0.04719799384474754  1.0000
  Ho  Ho6       1.0  0.9215502738952637  0.2747320830821991  0.6950696110725403  1.0000
  Ho  Ho7       1.0  0.4039576053619385  0.5763453245162964  0.31886109709739685  1.0000
  Ho  Ho8       1.0  0.41357699036598206  0.7051212787628174  0.8512822985649109  1.0000
