data_image0
_chemical_formula_structural       HHo8N
_chemical_formula_sum              "H1 Ho8 N1"
_cell_length_a       5.107373487163629
_cell_length_b       6.788742733867218
_cell_length_c       6.979140758514404
_cell_angle_alpha    118.00025494943692
_cell_angle_beta     91.36770529149123
_cell_angle_gamma    89.47307108122983

_space_group_name_H-M_alt    "P 1"
_space_group_IT_number       1

loop_
  _space_group_symop_operation_xyz
  'x, y, z'

loop_
  _atom_site_type_symbol
  _atom_site_label
  _atom_site_symmetry_multiplicity
  _atom_site_fract_x
  _atom_site_fract_y
  _atom_site_fract_z
  _atom_site_occupancy
  H   H1        1.0  0.5124804377555847  0.15158742666244507  0.7347612380981444  1.0000
  Ho  Ho1       1.0  0.256027489900589  0.022875269874930382  0.0275295078754425  1.0000
  Ho  Ho2       1.0  0.7698480486869812  0.23413358628749847  0.7140325903892516  1.0000
  Ho  Ho3       1.0  0.24734660983085635  0.5316917896270752  0.5576958656311035  1.0000
  Ho  Ho4       1.0  0.24703554809093478  0.228887140750885  0.3484601974487304  1.0000
  Ho  Ho5       1.0  0.7758282423019409  0.5642034411430359  0.030808497220277783  1.0000
  Ho  Ho6       1.0  0.7538082003593445  0.03228099271655083  0.2139681279659271  1.0000
  Ho  Ho7       1.0  0.24916005134582522  0.5275855660438538  0.841390311717987  1.0000
  Ho  Ho8       1.0  0.2919587194919586  0.6543501615524292  0.7190958857536315  1.0000
  N   N1        1.0  0.7792249321937561  0.6921826601028442  0.2096155136823654  1.0000
