data_image0
_chemical_formula_structural       CoHo8Tb
_chemical_formula_sum              "Co1 Ho8 Tb1"
_cell_length_a       5.645206817227415
_cell_length_b       5.900277559223
_cell_length_c       6.848569393157959
_cell_angle_alpha    63.40953043833992
_cell_angle_beta     60.237134218139914
_cell_angle_gamma    54.3697728753915

_space_group_name_H-M_alt    "P 1"
_space_group_IT_number       1

loop_
  _space_group_symop_operation_xyz
  'x, y, z'

loop_
  _atom_site_type_symbol
  _atom_site_label
  _atom_site_symmetry_multiplicity
  _atom_site_fract_x
  _atom_site_fract_y
  _atom_site_fract_z
  _atom_site_occupancy
  Co  Co1       1.0  0.8815788626670837  0.694258987903595  0.557323694229126  1.0000
  Ho  Ho1       1.0  0.3767315149307251  0.1906711757183075  0.09803350269794463  1.0000
  Ho  Ho2       1.0  0.3908844292163849  0.10281611979007721  0.636920392513275  1.0000
  Ho  Ho3       1.0  0.9953972697257996  0.9398199319839478  0.943249762058258  1.0000
  Ho  Ho4       1.0  0.8847457766532898  0.9462804794311523  0.516505241394043  1.0000
  Ho  Ho5       1.0  0.8647732138633728  0.7185474038124084  0.7785172462463378  1.0000
  Ho  Ho6       1.0  0.3841444253921509  0.30405423045158386  0.19703699648380277  1.0000
  Ho  Ho7       1.0  0.37999463081359863  0.22280409932136536  0.7669585347175597  1.0000
  Ho  Ho8       1.0  0.873348593711853  0.3165656626224518  0.09742350131273268  1.0000
  Tb  Tb1       1.0  0.3722322881221771  0.650377094745636  0.11787201464176177  1.0000
