data_image0
_chemical_formula_structural       C2Ho8
_chemical_formula_sum              "C2 Ho8"
_cell_length_a       4.651449708294348
_cell_length_b       6.6695466190955885
_cell_length_c       6.121640205383301
_cell_angle_alpha    128.90695042684231
_cell_angle_beta     97.30018448599247
_cell_angle_gamma    84.66753892567186

_space_group_name_H-M_alt    "P 1"
_space_group_IT_number       1

loop_
  _space_group_symop_operation_xyz
  'x, y, z'

loop_
  _atom_site_type_symbol
  _atom_site_label
  _atom_site_symmetry_multiplicity
  _atom_site_fract_x
  _atom_site_fract_y
  _atom_site_fract_z
  _atom_site_occupancy
  C   C1        1.0  0.22315055131912231  0.8933112025260925  0.33646917343139643  1.0000
  C   C2        1.0  0.7469528913497925  0.566298246383667  0.29941049218177795  1.0000
  Ho  Ho1       1.0  0.7345685362815857  0.6380477547645569  0.8067741990089417  1.0000
  Ho  Ho2       1.0  0.22801125049591064  0.08490552753210068  0.03047824464738369  1.0000
  Ho  Ho3       1.0  0.7212626338005066  0.5510914325714111  0.4774450659751892  1.0000
  Ho  Ho4       1.0  0.7329234480857849  0.9764122366905212  0.5633365511894226  1.0000
  Ho  Ho5       1.0  0.2331269532442093  0.5457565188407898  0.019931215792894363  1.0000
  Ho  Ho6       1.0  0.7334850430488586  0.22548995912075043  0.8952560424804688  1.0000
  Ho  Ho7       1.0  0.2474471926689148  0.7436255216598511  0.8733176589012146  1.0000
  Ho  Ho8       1.0  0.7081772685050964  0.2128651887178421  0.7897939682006836  1.0000
