data_image0
_chemical_formula_structural       C2Ho8
_chemical_formula_sum              "C2 Ho8"
_cell_length_a       5.164303770513001
_cell_length_b       6.088286849725634
_cell_length_c       6.586347579956055
_cell_angle_alpha    119.10929988897631
_cell_angle_beta     90.3601679344057
_cell_angle_gamma    89.59977342927063

_space_group_name_H-M_alt    "P 1"
_space_group_IT_number       1

loop_
  _space_group_symop_operation_xyz
  'x, y, z'

loop_
  _atom_site_type_symbol
  _atom_site_label
  _atom_site_symmetry_multiplicity
  _atom_site_fract_x
  _atom_site_fract_y
  _atom_site_fract_z
  _atom_site_occupancy
  C   C1        1.0  0.7294471859931946  0.6920883059501648  0.40930685400962835  1.0000
  C   C2        1.0  0.22752641141414645  0.6926796436309814  0.9202688932418823  1.0000
  Ho  Ho1       1.0  0.7315627336502075  0.20508988201618195  0.3952333629131317  1.0000
  Ho  Ho2       1.0  0.7336963415145874  0.03332766890525818  0.5329880118370056  1.0000
  Ho  Ho3       1.0  0.23400686681270602  0.3701437711715698  0.26654645800590515  1.0000
  Ho  Ho4       1.0  0.23048640787601474  0.6856641173362732  0.5894627571105957  1.0000
  Ho  Ho5       1.0  0.7351294755935669  0.8499805927276611  0.9193000793457031  1.0000
  Ho  Ho6       1.0  0.23292724788188937  0.597926139831543  0.744957447052002  1.0000
  Ho  Ho7       1.0  0.731210470199585  0.210359588265419  0.27368658781051636  1.0000
  Ho  Ho8       1.0  0.7338697910308838  0.7061401605606079  0.5390903949737549  1.0000
