data_image0
_chemical_formula_structural       C2HHo7
_chemical_formula_sum              "C2 H1 Ho7"
_cell_length_a       5.534627275042146
_cell_length_b       6.8941321702136715
_cell_length_c       7.11347770690918
_cell_angle_alpha    117.837944694611
_cell_angle_beta     88.94605570450867
_cell_angle_gamma    88.8600909545482

_space_group_name_H-M_alt    "P 1"
_space_group_IT_number       1

loop_
  _space_group_symop_operation_xyz
  'x, y, z'

loop_
  _atom_site_type_symbol
  _atom_site_label
  _atom_site_symmetry_multiplicity
  _atom_site_fract_x
  _atom_site_fract_y
  _atom_site_fract_z
  _atom_site_occupancy
  C   C1        1.0  0.003359079360961914  0.735261082649231  0.9431557059288026  1.0000
  C   C2        1.0  0.7686083316802979  0.05183110013604164  0.13805922865867615  1.0000
  H   H1        1.0  0.999855637550354  0.3246740996837616  0.4490203261375428  1.0000
  Ho  Ho1       1.0  0.27274107933044434  0.5853651762008667  0.48005875945091253  1.0000
  Ho  Ho2       1.0  0.5136433839797974  0.23308655619621277  0.45353484153747564  1.0000
  Ho  Ho3       1.0  0.4943160116672516  0.27952495217323303  0.6149076819419861  1.0000
  Ho  Ho4       1.0  0.9983240365982056  0.46795982122421265  0.45427381992340093  1.0000
  Ho  Ho5       1.0  0.7698047161102295  0.7316914796829224  0.02864264696836472  1.0000
  Ho  Ho6       1.0  0.005815319716930389  0.36984390020370483  0.9075195193290712  1.0000
  Ho  Ho7       1.0  0.5144614577293396  0.803695559501648  0.6043564677238464  1.0000
