data_image0
_chemical_formula_structural       Al3ITb3
_chemical_formula_sum              "Al3 I1 Tb3"
_cell_length_a       5.956050063830988
_cell_length_b       6.562591450430194
_cell_length_c       7.50927209854126
_cell_angle_alpha    78.43511486268122
_cell_angle_beta     68.55833553999281
_cell_angle_gamma    61.677302809069154

_space_group_name_H-M_alt    "P 1"
_space_group_IT_number       1

loop_
  _space_group_symop_operation_xyz
  'x, y, z'

loop_
  _atom_site_type_symbol
  _atom_site_label
  _atom_site_symmetry_multiplicity
  _atom_site_fract_x
  _atom_site_fract_y
  _atom_site_fract_z
  _atom_site_occupancy
  Al  Al1       1.0  0.5708739161491394  0.5764634609222412  0.26540789008140564  1.0000
  Al  Al2       1.0  0.6511887311935425  0.0744762048125267  0.6243302226066589  1.0000
  Al  Al3       1.0  0.5466188788414001  0.07513857632875443  0.049133069813251495  1.0000
  I   I1        1.0  0.1103060394525528  0.513049840927124  0.6245452165603638  1.0000
  Tb  Tb1       1.0  0.09022650867700577  0.10882478207349777  0.7058191895484924  1.0000
  Tb  Tb2       1.0  0.09661591798067093  0.3379167914390564  0.15114185214042664  1.0000
  Tb  Tb3       1.0  0.5835229158401489  0.8106974959373474  0.2559826672077179  1.0000
