data_image0
_chemical_formula_structural       Al5Tb2
_chemical_formula_sum              "Al5 Tb2"
_cell_length_a       4.5870357716454855
_cell_length_b       5.461206097772665
_cell_length_c       6.093815326690674
_cell_angle_alpha    118.99940204569954
_cell_angle_beta     81.6506195544025
_cell_angle_gamma    85.72997701250354

_space_group_name_H-M_alt    "P 1"
_space_group_IT_number       1

loop_
  _space_group_symop_operation_xyz
  'x, y, z'

loop_
  _atom_site_type_symbol
  _atom_site_label
  _atom_site_symmetry_multiplicity
  _atom_site_fract_x
  _atom_site_fract_y
  _atom_site_fract_z
  _atom_site_occupancy
  Al  Al1       1.0  0.36630892753601074  0.36026304960250854  0.8160845637321472  1.0000
  Al  Al2       1.0  0.8668241500854492  0.07164381444454193  0.8417141437530518  1.0000
  Al  Al3       1.0  0.36812782287597656  0.4829411208629608  0.2743421196937561  1.0000
  Al  Al4       1.0  0.8667358756065369  0.6031790375709534  0.1531330049037933  1.0000
  Al  Al5       1.0  0.36798447370529175  0.38722965121269226  0.6913346648216248  1.0000
  Tb  Tb1       1.0  0.8672868609428406  0.35585400462150574  0.1894436627626419  1.0000
  Tb  Tb2       1.0  0.36606723070144653  0.6516571640968323  0.4258660674095154  1.0000
