data_image0
_chemical_formula_structural       Ho4NPrSn
_chemical_formula_sum              "Ho4 N1 Pr1 Sn1"
_cell_length_a       4.372982557993725
_cell_length_b       4.693376841249337
_cell_length_c       7.622076511383057
_cell_angle_alpha    102.61918282934158
_cell_angle_beta     87.96653356875433
_cell_angle_gamma    94.03648737949348

_space_group_name_H-M_alt    "P 1"
_space_group_IT_number       1

loop_
  _space_group_symop_operation_xyz
  'x, y, z'

loop_
  _atom_site_type_symbol
  _atom_site_label
  _atom_site_symmetry_multiplicity
  _atom_site_fract_x
  _atom_site_fract_y
  _atom_site_fract_z
  _atom_site_occupancy
  Ho  Ho1       1.0  0.8348562717437744  0.34076741337776184  0.13050679862499237  1.0000
  Ho  Ho2       1.0  0.8230141401290894  0.993648111820221  0.7141360044479371  1.0000
  Ho  Ho3       1.0  0.32040145993232727  0.518828272819519  0.5162836909294128  1.0000
  Ho  Ho4       1.0  0.8239958882331848  0.4843948483467102  0.030018564313650135  1.0000
  N   N1        1.0  0.3241433799266815  0.017506536096334457  0.892613172531128  1.0000
  Pr  Pr1       1.0  0.3197397291660309  0.4370672404766083  0.7186135649681092  1.0000
  Sn  Sn1       1.0  0.8207336068153381  0.8301252126693726  0.5055932402610779  1.0000
