data_image0
_chemical_formula_structural       Ho4Sn3
_chemical_formula_sum              "Ho4 Sn3"
_cell_length_a       4.189518798519739
_cell_length_b       5.420297083945717
_cell_length_c       7.974859714508057
_cell_angle_alpha    111.75723334170662
_cell_angle_beta     92.50378661297813
_cell_angle_gamma    90.49526782687408

_space_group_name_H-M_alt    "P 1"
_space_group_IT_number       1

loop_
  _space_group_symop_operation_xyz
  'x, y, z'

loop_
  _atom_site_type_symbol
  _atom_site_label
  _atom_site_symmetry_multiplicity
  _atom_site_fract_x
  _atom_site_fract_y
  _atom_site_fract_z
  _atom_site_occupancy
  Ho  Ho1       1.0  0.9316039681434631  0.14174535870552063  0.8528997302055359  1.0000
  Ho  Ho2       1.0  0.9368311166763306  0.4796451032161713  0.966052770614624  1.0000
  Ho  Ho3       1.0  0.933368980884552  0.6777406930923462  0.5558556318283081  1.0000
  Ho  Ho4       1.0  0.93556809425354  0.39890095591545105  0.4454575479030609  1.0000
  Sn  Sn1       1.0  0.4342581629753113  0.3358457386493683  0.9709842205047607  1.0000
  Sn  Sn2       1.0  0.42210444808006287  0.7303903102874756  0.167186975479126  1.0000
  Sn  Sn3       1.0  0.4360836446285248  0.665988028049469  0.4620676338672638  1.0000
