data_image0
_chemical_formula_structural       Ho2Sn5
_chemical_formula_sum              "Ho2 Sn5"
_cell_length_a       4.51867827451061
_cell_length_b       5.45927510627206
_cell_length_c       7.444823265075684
_cell_angle_alpha    117.3987797032527
_cell_angle_beta     92.72939199184285
_cell_angle_gamma    90.73658141914028

_space_group_name_H-M_alt    "P 1"
_space_group_IT_number       1

loop_
  _space_group_symop_operation_xyz
  'x, y, z'

loop_
  _atom_site_type_symbol
  _atom_site_label
  _atom_site_symmetry_multiplicity
  _atom_site_fract_x
  _atom_site_fract_y
  _atom_site_fract_z
  _atom_site_occupancy
  Ho  Ho1       1.0  0.38557109236717224  0.025532130151987076  0.41354331374168396  1.0000
  Ho  Ho2       1.0  0.8731393218040466  0.27597078680992126  0.7804481387138367  1.0000
  Sn  Sn1       1.0  0.38204339146614075  0.8261157870292664  0.0595865435898304  1.0000
  Sn  Sn2       1.0  0.3754706382751465  0.13904854655265808  0.0503220409154892  1.0000
  Sn  Sn3       1.0  0.8826230764389038  0.831996738910675  0.44416263699531555  1.0000
  Sn  Sn4       1.0  0.3881186544895172  0.6341091394424438  0.7377597093582153  1.0000
  Sn  Sn5       1.0  0.8732098340988159  0.5096693634986877  0.9328176975250244  1.0000
