data_image0
_chemical_formula_structural       Lu2O5P2Rb
_chemical_formula_sum              "Lu2 O5 P2 Rb1"
_cell_length_a       6.266214434928256
_cell_length_b       6.6069732452671825
_cell_length_c       6.412399768829346
_cell_angle_alpha    63.16687215663845
_cell_angle_beta     60.094007973561546
_cell_angle_gamma    62.24285578448315

_space_group_name_H-M_alt    "P 1"
_space_group_IT_number       1

loop_
  _space_group_symop_operation_xyz
  'x, y, z'

loop_
  _atom_site_type_symbol
  _atom_site_label
  _atom_site_symmetry_multiplicity
  _atom_site_fract_x
  _atom_site_fract_y
  _atom_site_fract_z
  _atom_site_occupancy
  Lu  Lu1       1.0  0.2096451371908188  0.5589757561683655  0.3976189196109772  1.0000
  Lu  Lu2       1.0  0.19007128477096558  0.22784554958343506  0.6461017727851868  1.0000
  O   O1        1.0  0.5550891160964966  0.4953341484069824  0.8783022165298462  1.0000
  O   O2        1.0  0.42587748169898987  0.10026790201663971  0.1995803862810135  1.0000
  O   O3        1.0  0.4517153799533844  0.7304500341415405  0.056907255202531815  1.0000
  O   O4        1.0  0.052382804453372955  0.9731807112693787  0.052965663373470306  1.0000
  O   O5        1.0  0.4534985423088074  0.08689800649881363  0.41293108463287354  1.0000
  P   P1        1.0  0.7676090598106384  0.5953410863876343  0.06127345561981201  1.0000
  P   P2        1.0  0.71917724609375  0.07745211571455002  0.14442126452922813  1.0000
  Rb  Rb1       1.0  0.8138683438301086  0.9780712127685547  0.37029874324798584  1.0000
