data_image0
_chemical_formula_structural       Lu2O5Rb3
_chemical_formula_sum              "Lu2 O5 Rb3"
_cell_length_a       4.663711984908937
_cell_length_b       5.182923408031175
_cell_length_c       8.453062057495117
_cell_angle_alpha    95.38079752551205
_cell_angle_beta     91.06605805986742
_cell_angle_gamma    117.48299795285855

_space_group_name_H-M_alt    "P 1"
_space_group_IT_number       1

loop_
  _space_group_symop_operation_xyz
  'x, y, z'

loop_
  _atom_site_type_symbol
  _atom_site_label
  _atom_site_symmetry_multiplicity
  _atom_site_fract_x
  _atom_site_fract_y
  _atom_site_fract_z
  _atom_site_occupancy
  Lu  Lu1       1.0  0.8948749303817749  0.761762261390686  0.8567595481872559  1.0000
  Lu  Lu2       1.0  0.6542481780052185  0.24346370995044708  0.9309360980987549  1.0000
  O   O1        1.0  0.79788738489151  0.918775200843811  0.6411548852920532  1.0000
  O   O2        1.0  0.14223672449588776  0.5492140054702759  0.15282763540744781  1.0000
  O   O3        1.0  0.887366533279419  0.70587557554245  0.8138894438743591  1.0000
  O   O4        1.0  0.13676020503044128  0.2613072395324707  0.4904428720474243  1.0000
  O   O5        1.0  0.8778851628303528  0.22595848143100739  0.4202241897583008  1.0000
  Rb  Rb1       1.0  0.3628585636615753  0.5087098479270935  0.06805789470672607  1.0000
  Rb  Rb2       1.0  0.8668270707130432  0.25706279277801514  0.4388938546180725  1.0000
  Rb  Rb3       1.0  0.3620279133319855  0.5133838057518005  0.28263893723487854  1.0000
