data_image0
_chemical_formula_structural       Cu3O5Rb2
_chemical_formula_sum              "Cu3 O5 Rb2"
_cell_length_a       5.523855164161976
_cell_length_b       5.598794315349326
_cell_length_c       6.6426801681518555
_cell_angle_alpha    93.50503677791087
_cell_angle_beta     113.98502683030748
_cell_angle_gamma    91.2433365265936

_space_group_name_H-M_alt    "P 1"
_space_group_IT_number       1

loop_
  _space_group_symop_operation_xyz
  'x, y, z'

loop_
  _atom_site_type_symbol
  _atom_site_label
  _atom_site_symmetry_multiplicity
  _atom_site_fract_x
  _atom_site_fract_y
  _atom_site_fract_z
  _atom_site_occupancy
  Cu  Cu1       1.0  0.5140866637229919  0.2136319279670715  0.06406640261411667  1.0000
  Cu  Cu2       1.0  0.658534586429596  0.2177840322256088  0.9646796584129335  1.0000
  Cu  Cu3       1.0  0.9389103651046753  0.012348867952823639  0.3234702944755554  1.0000
  O   O1        1.0  0.46379354596138  0.017437556758522987  0.4859303534030915  1.0000
  O   O2        1.0  0.1620720624923706  0.5165186524391174  0.3397400379180908  1.0000
  O   O3        1.0  0.3370479345321655  0.04027479514479637  0.7441526651382447  1.0000
  O   O4        1.0  0.7429214119911194  0.6455352306365967  0.7592888474464418  1.0000
  O   O5        1.0  0.9704493880271912  0.007175877224653958  0.5780423283576965  1.0000
  Rb  Rb1       1.0  0.46851208806037903  0.5190568566322327  0.27958962321281433  1.0000
  Rb  Rb2       1.0  0.16806848347187042  0.7056070566177368  0.7619898319244386  1.0000
