data_image0
_chemical_formula_structural       LuO5Rb2SZr
_chemical_formula_sum              "Lu1 O5 Rb2 S1 Zr1"
_cell_length_a       5.430857999496554
_cell_length_b       5.1983928012601766
_cell_length_c       11.552431106567383
_cell_angle_alpha    89.90691490994914
_cell_angle_beta     88.7421008301162
_cell_angle_gamma    120.0683962521016

_space_group_name_H-M_alt    "P 1"
_space_group_IT_number       1

loop_
  _space_group_symop_operation_xyz
  'x, y, z'

loop_
  _atom_site_type_symbol
  _atom_site_label
  _atom_site_symmetry_multiplicity
  _atom_site_fract_x
  _atom_site_fract_y
  _atom_site_fract_z
  _atom_site_occupancy
  Lu  Lu1       1.0  0.29304060339927673  0.5168212056159973  0.9356774687767029  1.0000
  O   O1        1.0  0.7181063890457153  0.2373766154050827  0.9369177222251892  1.0000
  O   O2        1.0  0.2747345566749573  0.2247256189584732  0.9274410605430603  1.0000
  O   O3        1.0  0.2611168920993805  0.1715514063835144  0.31306567788124084  1.0000
  O   O4        1.0  0.6797017455101013  0.83815997838974  0.23023472726345062  1.0000
  O   O5        1.0  0.7603880167007446  0.1925569623708725  0.7894763946533203  1.0000
  Rb  Rb1       1.0  0.05414377897977829  0.8013858199119568  0.939056396484375  1.0000
  Rb  Rb2       1.0  0.8539782166481018  0.49327534437179565  0.14759092032909393  1.0000
  S   S1        1.0  0.4786315858364105  0.5021868944168091  0.08411379903554916  1.0000
  Zr  Zr1       1.0  0.4488118290901184  0.8141914010047913  0.39279597997665405  1.0000
