data_image0
_chemical_formula_structural       LuO5PPrRbS
_chemical_formula_sum              "Lu1 O5 P1 Pr1 Rb1 S1"
_cell_length_a       4.5198157665422976
_cell_length_b       3.7497915392149554
_cell_length_c       10.460609436035156
_cell_angle_alpha    85.95387141965324
_cell_angle_beta     91.55187807277194
_cell_angle_gamma    175.4190351483036

_space_group_name_H-M_alt    "P 1"
_space_group_IT_number       1

loop_
  _space_group_symop_operation_xyz
  'x, y, z'

loop_
  _atom_site_type_symbol
  _atom_site_label
  _atom_site_symmetry_multiplicity
  _atom_site_fract_x
  _atom_site_fract_y
  _atom_site_fract_z
  _atom_site_occupancy
  Lu  Lu1       1.0  0.4736223816871643  0.41863250732421875  0.16969139873981476  1.0000
  O   O1        1.0  0.11008799821138382  0.7968713045120239  0.8292586207389832  1.0000
  O   O2        1.0  0.6217657923698425  0.2946748435497284  0.22058847546577454  1.0000
  O   O3        1.0  0.8316600918769836  0.9155482649803162  0.3858111798763275  1.0000
  O   O4        1.0  0.5104546546936035  0.8879638910293579  0.5222881436347961  1.0000
  O   O5        1.0  0.24773550033569336  0.1047905907034874  0.14058838784694672  1.0000
  P   P1        1.0  0.7868262529373169  0.7937296628952026  0.9796280860900878  1.0000
  Pr  Pr1       1.0  0.8373294472694397  0.5413051247596741  0.5733867287635803  1.0000
  Rb  Rb1       1.0  0.2381611466407776  0.2698500454425812  0.6922690272331238  1.0000
  S   S1        1.0  0.20602257549762726  0.6031336784362793  0.2515265941619873  1.0000
