data_image0
_chemical_formula_structural       BrCu4O3Rb2
_chemical_formula_sum              "Br1 Cu4 O3 Rb2"
_cell_length_a       5.620188310140863
_cell_length_b       5.3748216086547815
_cell_length_c       7.237819194793701
_cell_angle_alpha    89.87300260921523
_cell_angle_beta     114.83779638793479
_cell_angle_gamma    90.73626200458374

_space_group_name_H-M_alt    "P 1"
_space_group_IT_number       1

loop_
  _space_group_symop_operation_xyz
  'x, y, z'

loop_
  _atom_site_type_symbol
  _atom_site_label
  _atom_site_symmetry_multiplicity
  _atom_site_fract_x
  _atom_site_fract_y
  _atom_site_fract_z
  _atom_site_occupancy
  Br  Br1       1.0  0.06463681906461716  0.5617106556892395  0.9172639846801758  1.0000
  Cu  Cu1       1.0  0.9977278113365174  0.5731023550033569  0.46164053678512573  1.0000
  Cu  Cu2       1.0  0.7128450870513916  0.1435924470424652  0.16473296284675598  1.0000
  Cu  Cu3       1.0  0.15526223182678223  0.013291366398334503  0.9720885157585144  1.0000
  Cu  Cu4       1.0  0.8648757934570312  0.08608361333608627  0.6406686305999756  1.0000
  O   O1        1.0  0.6224209070205688  0.09097511321306229  0.5775042772293091  1.0000
  O   O2        1.0  0.2325302064418793  0.34919580817222595  0.6554778218269348  1.0000
  O   O3        1.0  0.9227814674377443  0.908270001411438  0.17179165780544287  1.0000
  Rb  Rb1       1.0  0.5694921016693115  0.06645999848842621  0.9163804650306702  1.0000
  Rb  Rb2       1.0  0.9796038269996644  0.572555422782898  0.14042161405086517  1.0000
