data_image0
_chemical_formula_structural       ClCu4Pd3
_chemical_formula_sum              "Cl1 Cu4 Pd3"
_cell_length_a       4.497957537160117
_cell_length_b       4.5918719399787795
_cell_length_c       5.984212875366211
_cell_angle_alpha    99.54586545453063
_cell_angle_beta     95.042651804359
_cell_angle_gamma    87.36615518792131

_space_group_name_H-M_alt    "P 1"
_space_group_IT_number       1

loop_
  _space_group_symop_operation_xyz
  'x, y, z'

loop_
  _atom_site_type_symbol
  _atom_site_label
  _atom_site_symmetry_multiplicity
  _atom_site_fract_x
  _atom_site_fract_y
  _atom_site_fract_z
  _atom_site_occupancy
  Cl  Cl1       1.0  0.06072040647268295  0.8128468990325928  0.44037204980850225  1.0000
  Cu  Cu1       1.0  0.032591283321380615  0.3123646378517151  0.34715524315834045  1.0000
  Cu  Cu2       1.0  0.9985127449035645  0.315215140581131  0.6333304643630981  1.0000
  Cu  Cu3       1.0  0.17886382341384888  0.5629453659057617  0.11103142797946931  1.0000
  Cu  Cu4       1.0  0.17357532680034637  0.572779655456543  0.11423626542091371  1.0000
  Pd  Pd1       1.0  0.5458862781524658  0.818051278591156  0.12109575420618059  1.0000
  Pd  Pd2       1.0  0.05677245929837227  0.3173033893108368  0.7419168949127197  1.0000
  Pd  Pd3       1.0  0.06771097332239151  0.8195526003837585  0.8716534972190858  1.0000
