data_image0
_chemical_formula_structural       Cu5Pd3
_chemical_formula_sum              "Cu5 Pd3"
_cell_length_a       4.681229926244661
_cell_length_b       4.53371220027568
_cell_length_c       5.746114253997803
_cell_angle_alpha    92.96180896480999
_cell_angle_beta     92.22998474597865
_cell_angle_gamma    90.00203276861875

_space_group_name_H-M_alt    "P 1"
_space_group_IT_number       1

loop_
  _space_group_symop_operation_xyz
  'x, y, z'

loop_
  _atom_site_type_symbol
  _atom_site_label
  _atom_site_symmetry_multiplicity
  _atom_site_fract_x
  _atom_site_fract_y
  _atom_site_fract_z
  _atom_site_occupancy
  Cu  Cu1       1.0  0.9665853977203369  0.8604247570037842  0.6038641929626465  1.0000
  Cu  Cu2       1.0  0.5507680177688599  0.3226470649242401  0.365946501493454  1.0000
  Cu  Cu3       1.0  0.7000692486763  0.830396831035614  0.22668349742889404  1.0000
  Cu  Cu4       1.0  0.72817462682724  0.8368004560470581  0.9319344162940979  1.0000
  Cu  Cu5       1.0  0.12735778093338013  0.32692423462867737  0.4324593245983124  1.0000
  Pd  Pd1       1.0  0.974796712398529  0.3468667268753052  0.06510178744792938  1.0000
  Pd  Pd2       1.0  0.46093085408210754  0.8463646173477173  0.7378441691398621  1.0000
  Pd  Pd3       1.0  0.37461116909980774  0.6706785559654236  0.9285690188407898  1.0000
