data_image0
_chemical_formula_structural       Ga2V4Zr4
_chemical_formula_sum              "Ga2 V4 Zr4"
_cell_length_a       4.714341178351506
_cell_length_b       6.921450376725431
_cell_length_c       6.668776988983154
_cell_angle_alpha    119.7790652126983
_cell_angle_beta     86.42148507281394
_cell_angle_gamma    90.85080232740319

_space_group_name_H-M_alt    "P 1"
_space_group_IT_number       1

loop_
  _space_group_symop_operation_xyz
  'x, y, z'

loop_
  _atom_site_type_symbol
  _atom_site_label
  _atom_site_symmetry_multiplicity
  _atom_site_fract_x
  _atom_site_fract_y
  _atom_site_fract_z
  _atom_site_occupancy
  Ga  Ga1       1.0  0.5572042465209961  0.14432336390018463  0.550050675868988  1.0000
  Ga  Ga2       1.0  0.059463247656822205  0.13811542093753815  0.5515009164810181  1.0000
  V   V1        1.0  0.05582404509186745  0.7712388038635254  0.5482767224311829  1.0000
  V   V2        1.0  0.05128977820277214  0.25338980555534363  0.15561650693416595  1.0000
  V   V3        1.0  0.5574590563774109  0.08622810989618301  0.06270646303892136  1.0000
  V   V4        1.0  0.5729131102561951  0.5460858345031738  0.801739513874054  1.0000
  Zr  Zr1       1.0  0.053707122802734375  0.7695199847221375  0.5186746120452881  1.0000
  Zr  Zr2       1.0  0.055416040122509  0.11159197986125946  0.02744079567492009  1.0000
  Zr  Zr3       1.0  0.5578269958496094  0.5120447278022766  0.3212668001651764  1.0000
  Zr  Zr4       1.0  0.057500407099723816  0.2974403500556946  0.45297160744667053  1.0000
