data_image0
_chemical_formula_structural       Ga2V5Zr3
_chemical_formula_sum              "Ga2 V5 Zr3"
_cell_length_a       3.724229364033146
_cell_length_b       6.417820056380063
_cell_length_c       6.094809055328369
_cell_angle_alpha    120.20134723880552
_cell_angle_beta     84.0607993795413
_cell_angle_gamma    90.42845283065896

_space_group_name_H-M_alt    "P 1"
_space_group_IT_number       1

loop_
  _space_group_symop_operation_xyz
  'x, y, z'

loop_
  _atom_site_type_symbol
  _atom_site_label
  _atom_site_symmetry_multiplicity
  _atom_site_fract_x
  _atom_site_fract_y
  _atom_site_fract_z
  _atom_site_occupancy
  Ga  Ga1       1.0  0.11967204511165619  0.9912771582603455  0.9492229223251344  1.0000
  Ga  Ga2       1.0  0.12336233258247375  0.9857951998710632  0.16189032793045044  1.0000
  V   V1        1.0  0.6144232749938965  0.33435890078544617  0.8116825222969056  1.0000
  V   V2        1.0  0.6414980292320251  0.36808061599731445  0.273680716753006  1.0000
  V   V3        1.0  0.6130327582359314  0.8617240190505981  0.4709538817405701  1.0000
  V   V4        1.0  0.12909626960754395  0.5451287627220154  0.9816411137580873  1.0000
  V   V5        1.0  0.6253789663314819  0.9547229409217834  0.6173689365386963  1.0000
  Zr  Zr1       1.0  0.6208215951919556  0.5157725811004639  0.6942901611328125  1.0000
  Zr  Zr2       1.0  0.6224320530891418  0.22851288318634033  0.02242272160947323  1.0000
  Zr  Zr3       1.0  0.12567377090454102  0.6917479038238525  0.3397103250026703  1.0000
