data_image0
_chemical_formula_structural       ClGa5VZr3
_chemical_formula_sum              "Cl1 Ga5 V1 Zr3"
_cell_length_a       4.176023294551997
_cell_length_b       6.203316687252178
_cell_length_c       6.240501403808594
_cell_angle_alpha    120.91980062984774
_cell_angle_beta     87.21826730599888
_cell_angle_gamma    90.99658181445655

_space_group_name_H-M_alt    "P 1"
_space_group_IT_number       1

loop_
  _space_group_symop_operation_xyz
  'x, y, z'

loop_
  _atom_site_type_symbol
  _atom_site_label
  _atom_site_symmetry_multiplicity
  _atom_site_fract_x
  _atom_site_fract_y
  _atom_site_fract_z
  _atom_site_occupancy
  Cl  Cl1       1.0  0.9079593420028687  0.11804940551519394  0.9190379977226258  1.0000
  Ga  Ga1       1.0  0.9098667502403259  0.33346614241600037  0.20551475882530215  1.0000
  Ga  Ga2       1.0  0.40920138359069824  0.7543794512748718  0.2938297986984253  1.0000
  Ga  Ga3       1.0  0.400803804397583  0.41247618198394775  0.16590464115142822  1.0000
  Ga  Ga4       1.0  0.408976674079895  0.5206966996192932  0.9434605836868287  1.0000
  Ga  Ga5       1.0  0.41049137711524963  0.7282568216323853  0.9535599946975709  1.0000
  V   V1        1.0  0.3963876962661743  0.9728683829307556  0.8229791522026063  1.0000
  Zr  Zr1       1.0  0.9075726866722107  0.5238871574401855  0.4587053060531617  1.0000
  Zr  Zr2       1.0  0.9082995057106018  0.2045620083808899  0.8591622710227967  1.0000
  Zr  Zr3       1.0  0.9062851667404175  0.18257133662700653  0.586446225643158  1.0000
