data_image0
_chemical_formula_structural       Ga4V4Zr2
_chemical_formula_sum              "Ga4 V4 Zr2"
_cell_length_a       4.42294792761565
_cell_length_b       6.632315374422578
_cell_length_c       6.688277721405029
_cell_angle_alpha    119.12304721568019
_cell_angle_beta     88.14134055369566
_cell_angle_gamma    88.34944430563138

_space_group_name_H-M_alt    "P 1"
_space_group_IT_number       1

loop_
  _space_group_symop_operation_xyz
  'x, y, z'

loop_
  _atom_site_type_symbol
  _atom_site_label
  _atom_site_symmetry_multiplicity
  _atom_site_fract_x
  _atom_site_fract_y
  _atom_site_fract_z
  _atom_site_occupancy
  Ga  Ga1       1.0  0.06645151227712631  0.845510721206665  0.34494888782501226  1.0000
  Ga  Ga2       1.0  0.5527504086494446  0.7917177677154541  0.8494086265563966  1.0000
  Ga  Ga3       1.0  0.06974267959594727  0.49573850631713867  0.9128118753433229  1.0000
  Ga  Ga4       1.0  0.5612130761146545  0.516867995262146  0.050786968320608146  1.0000
  V   V1        1.0  0.5718711018562317  0.9103682637214661  0.9519489407539369  1.0000
  V   V2        1.0  0.5688894391059875  0.5110622048377991  0.46782094240188604  1.0000
  V   V3        1.0  0.5648040175437927  0.014583215117454529  0.39804509282112127  1.0000
  V   V4        1.0  0.07060029357671738  0.1496751457452774  0.7896708250045777  1.0000
  Zr  Zr1       1.0  0.06881581991910934  0.5047617554664612  0.9142444133758546  1.0000
  Zr  Zr2       1.0  0.5702544450759888  0.17732782661914825  0.4214753210544587  1.0000
