data_image0
_chemical_formula_structural       Ga4VZr5
_chemical_formula_sum              "Ga4 V1 Zr5"
_cell_length_a       4.609892866968022
_cell_length_b       6.792448293033447
_cell_length_c       6.766219615936279
_cell_angle_alpha    120.44333935893373
_cell_angle_beta     86.68445773477958
_cell_angle_gamma    91.34749416595514

_space_group_name_H-M_alt    "P 1"
_space_group_IT_number       1

loop_
  _space_group_symop_operation_xyz
  'x, y, z'

loop_
  _atom_site_type_symbol
  _atom_site_label
  _atom_site_symmetry_multiplicity
  _atom_site_fract_x
  _atom_site_fract_y
  _atom_site_fract_z
  _atom_site_occupancy
  Ga  Ga1       1.0  0.7604036927223206  0.5621400475502014  0.591447114944458  1.0000
  Ga  Ga2       1.0  0.2681907117366791  0.811164915561676  0.0806571096181869  1.0000
  Ga  Ga3       1.0  0.7523943781852722  0.28256523609161377  0.6851832270622253  1.0000
  Ga  Ga4       1.0  0.7682385444641113  0.8025445342063904  0.550201952457428  1.0000
  V   V1        1.0  0.250045508146286  0.26410192251205444  0.04312363266944884  1.0000
  Zr  Zr1       1.0  0.7619928121566772  0.8040003180503845  0.9395787119865417  1.0000
  Zr  Zr2       1.0  0.7631431221961975  0.2505243122577667  0.030364448204636577  1.0000
  Zr  Zr3       1.0  0.2615583837032318  0.05099836736917496  0.10437995940446854  1.0000
  Zr  Zr4       1.0  0.2625097930431366  0.5684455633163452  0.20235064625740048  1.0000
  Zr  Zr5       1.0  0.2616833448410034  0.7455046772956848  0.22200885415077204  1.0000
