data_image0
_chemical_formula_structural       Ga3V5Zr2
_chemical_formula_sum              "Ga3 V5 Zr2"
_cell_length_a       4.4631927852963535
_cell_length_b       6.577471443420074
_cell_length_c       6.684284687042236
_cell_angle_alpha    121.4738217655934
_cell_angle_beta     87.1425542542516
_cell_angle_gamma    89.09638677051119

_space_group_name_H-M_alt    "P 1"
_space_group_IT_number       1

loop_
  _space_group_symop_operation_xyz
  'x, y, z'

loop_
  _atom_site_type_symbol
  _atom_site_label
  _atom_site_symmetry_multiplicity
  _atom_site_fract_x
  _atom_site_fract_y
  _atom_site_fract_z
  _atom_site_occupancy
  Ga  Ga1       1.0  0.3242291510105133  0.5589647889137268  0.03225028142333031  1.0000
  Ga  Ga2       1.0  0.8140668272972107  0.02060338668525219  0.2918800711631775  1.0000
  Ga  Ga3       1.0  0.8226484060287476  0.8853086233139038  0.8297268748283386  1.0000
  V   V1        1.0  0.8257262110710144  0.4868696630001068  0.7902438044548035  1.0000
  V   V2        1.0  0.8288991451263428  0.09165377169847488  0.7957982420921326  1.0000
  V   V3        1.0  0.3228346109390259  0.2761369049549103  0.3041065037250519  1.0000
  V   V4        1.0  0.3258013129234314  0.6297107338905334  0.2850039005279541  1.0000
  V   V5        1.0  0.3268998861312866  0.7958685159683228  0.395210862159729  1.0000
  Zr  Zr1       1.0  0.8260260820388794  0.5643945932388306  0.05091924965381622  1.0000
  Zr  Zr2       1.0  0.3237115740776062  0.5208835601806641  0.7884021997451782  1.0000
