data_image0
_chemical_formula_structural       Cl4Li4Nb2S4Tl
_chemical_formula_sum              "Cl4 Li4 Nb2 S4 Tl1"
_cell_length_a       7.152038123474112
_cell_length_b       7.633130268483887
_cell_length_c       8.407736778259277
_cell_angle_alpha    104.22972377336356
_cell_angle_beta     105.38705139798853
_cell_angle_gamma    111.75501461039866

_space_group_name_H-M_alt    "P 1"
_space_group_IT_number       1

loop_
  _space_group_symop_operation_xyz
  'x, y, z'

loop_
  _atom_site_type_symbol
  _atom_site_label
  _atom_site_symmetry_multiplicity
  _atom_site_fract_x
  _atom_site_fract_y
  _atom_site_fract_z
  _atom_site_occupancy
  Cl  Cl1       1.0  0.13742376863956451  0.40405985713005066  0.3096882402896881  1.0000
  Cl  Cl2       1.0  0.23217375576496121  0.06922906637191772  0.05094975233078003  1.0000
  Cl  Cl3       1.0  0.006457041017711162  0.8905876874923706  0.9452037215232849  1.0000
  Cl  Cl4       1.0  0.4272926747798919  0.7551892995834351  0.2237340360879898  1.0000
  Li  Li1       1.0  0.292225182056427  0.9043548107147217  0.9562665820121765  1.0000
  Li  Li2       1.0  0.6986991763114929  0.9207656383514404  0.6025626063346863  1.0000
  Li  Li3       1.0  0.5420553684234619  0.7257125377655029  0.4599773585796356  1.0000
  Li  Li4       1.0  0.8243069052696227  0.7506729960441589  0.2980112731456756  1.0000
  Nb  Nb1       1.0  0.17890262603759766  0.8997818231582642  0.2981269955635071  1.0000
  Nb  Nb2       1.0  0.9659419655799865  0.5647874474525452  0.819469690322876  1.0000
  S   S1        1.0  0.31686267256736755  0.7192979454994202  0.5857933759689331  1.0000
  S   S2        1.0  0.8742437958717345  0.3989630341529846  0.49137401580810547  1.0000
  S   S3        1.0  0.7301548719406127  0.9914680123329163  0.5528120398521423  1.0000
  S   S4        1.0  0.10467241704463957  0.34988707304000854  0.7310873866081238  1.0000
  Tl  Tl1       1.0  0.39334633946418757  0.2409268468618393  0.21036821603775024  1.0000
