data_image0
_chemical_formula_structural       Cl5FHoLiNb3PPdS2
_chemical_formula_sum              "Cl5 F1 Ho1 Li1 Nb3 P1 Pd1 S2"
_cell_length_a       6.300151344366823
_cell_length_b       7.956212256202455
_cell_length_c       8.291838645935059
_cell_angle_alpha    78.83101576749152
_cell_angle_beta     70.76136554034868
_cell_angle_gamma    67.51502884402777

_space_group_name_H-M_alt    "P 1"
_space_group_IT_number       1

loop_
  _space_group_symop_operation_xyz
  'x, y, z'

loop_
  _atom_site_type_symbol
  _atom_site_label
  _atom_site_symmetry_multiplicity
  _atom_site_fract_x
  _atom_site_fract_y
  _atom_site_fract_z
  _atom_site_occupancy
  Cl  Cl1       1.0  0.8071868419647217  0.648916482925415  0.25927612185478216  1.0000
  Cl  Cl2       1.0  0.316060870885849  0.3106553256511688  0.3571428656578064  1.0000
  Cl  Cl3       1.0  0.7152803540229797  0.8463155627250671  0.5403760075569153  1.0000
  Cl  Cl4       1.0  0.08722281455993652  0.6289102435112  0.12581181526184082  1.0000
  Cl  Cl5       1.0  0.26035574078559875  0.3833847939968109  0.012878065928816795  1.0000
  F   F1        1.0  0.7106013894081116  0.11475254595279694  0.09536848962306979  1.0000
  Ho  Ho1       1.0  0.4667103290557861  0.6287885308265686  0.7978348731994629  1.0000
  Li  Li1       1.0  0.8846319913864135  0.6034889817237854  0.5822262167930603  1.0000
  Nb  Nb1       1.0  0.32243719696998596  0.8452622294425964  0.3742882013320923  1.0000
  Nb  Nb2       1.0  0.3475828468799591  0.06775186955928802  0.3448827564716339  1.0000
  Nb  Nb3       1.0  0.8906255960464476  0.5146867036819458  0.5297009944915771  1.0000
  P   P1        1.0  0.7036951184272766  0.8297452330589294  0.03347276896238327  1.0000
  Pd  Pd1       1.0  0.38825610280036926  0.0017352104187011719  0.5113548636436462  1.0000
  S   S1        1.0  0.8838672637939452  0.5265125036239624  0.7028435468673706  1.0000
  S   S2        1.0  0.628472626209259  0.2541181445121765  0.0028983354568481445  1.0000
