data_image0
_chemical_formula_structural       Cl5InNb7SSb
_chemical_formula_sum              "Cl5 In1 Nb7 S1 Sb1"
_cell_length_a       6.797769499811813
_cell_length_b       8.056884733234812
_cell_length_c       8.446798324584961
_cell_angle_alpha    90.99536537165773
_cell_angle_beta     89.25568349677376
_cell_angle_gamma    95.3561686049213

_space_group_name_H-M_alt    "P 1"
_space_group_IT_number       1

loop_
  _space_group_symop_operation_xyz
  'x, y, z'

loop_
  _atom_site_type_symbol
  _atom_site_label
  _atom_site_symmetry_multiplicity
  _atom_site_fract_x
  _atom_site_fract_y
  _atom_site_fract_z
  _atom_site_occupancy
  Cl  Cl1       1.0  0.3888554871082306  0.4897344708442688  0.8380733132362366  1.0000
  Cl  Cl2       1.0  0.9539002776145934  0.4733024537563324  0.14996026456356049  1.0000
  Cl  Cl3       1.0  0.053178295493125916  0.13737429678440094  0.2448701411485672  1.0000
  Cl  Cl4       1.0  0.40912094712257385  0.795773983001709  0.6416608691215515  1.0000
  Cl  Cl5       1.0  0.9105272889137267  0.8069446682929993  0.8655678629875183  1.0000
  In  In1       1.0  0.07527825981378555  0.7792605757713318  0.1453966349363327  1.0000
  Nb  Nb1       1.0  0.7924403548240662  0.2645834982395172  0.07245436310768127  1.0000
  Nb  Nb2       1.0  0.19300009310245514  0.5454395413398743  0.9896003007888794  1.0000
  Nb  Nb3       1.0  0.011712011881172657  0.08099643886089325  0.7791811227798462  1.0000
  Nb  Nb4       1.0  0.7975727915763855  0.5143231153488159  0.5724173188209534  1.0000
  Nb  Nb5       1.0  0.1360834538936615  0.5505529642105103  0.6458593010902405  1.0000
  Nb  Nb6       1.0  0.8963298797607421  0.29607632756233215  0.8370670676231384  1.0000
  Nb  Nb7       1.0  0.7905610203742981  0.7924644351005554  0.2318011373281479  1.0000
  S   S1        1.0  0.3225724399089813  0.796530544757843  0.01890198141336441  1.0000
  Sb  Sb1       1.0  0.13856056332588196  0.013765130192041397  0.06912509351968765  1.0000
