data_image0
_chemical_formula_structural       Cl5HInNb6S2
_chemical_formula_sum              "Cl5 H1 In1 Nb6 S2"
_cell_length_a       7.300878167138619
_cell_length_b       7.574690243674667
_cell_length_c       7.545093059539795
_cell_angle_alpha    66.42030921034018
_cell_angle_beta     61.967138918281755
_cell_angle_gamma    62.25731235720617

_space_group_name_H-M_alt    "P 1"
_space_group_IT_number       1

loop_
  _space_group_symop_operation_xyz
  'x, y, z'

loop_
  _atom_site_type_symbol
  _atom_site_label
  _atom_site_symmetry_multiplicity
  _atom_site_fract_x
  _atom_site_fract_y
  _atom_site_fract_z
  _atom_site_occupancy
  Cl  Cl1       1.0  0.032627992331981694  0.48000690340995783  0.3621760606765747  1.0000
  Cl  Cl2       1.0  0.4554038941860199  0.434622973203659  0.06998030841350561  1.0000
  Cl  Cl3       1.0  0.3661656081676483  0.35956305265426636  0.051252130419015884  1.0000
  Cl  Cl4       1.0  0.5909579396247864  0.7036300897598267  0.2706703245639801  1.0000
  Cl  Cl5       1.0  0.1558849960565567  0.7749754786491394  0.06841228902339935  1.0000
  H   H1        1.0  0.9428375363349915  0.6012986302375793  0.5775142908096313  1.0000
  In  In1       1.0  0.6200396418571472  0.7600715160369873  0.8504233360290527  1.0000
  Nb  Nb1       1.0  0.38345277309417725  0.10196904093027113  0.3295828104019165  1.0000
  Nb  Nb2       1.0  0.9357984066009521  0.42088869214057917  0.5762770771980286  1.0000
  Nb  Nb3       1.0  0.12480359524488449  0.6188559532165527  0.8377234935760498  1.0000
  Nb  Nb4       1.0  0.12345465272665024  0.7489479184150696  0.12923084199428558  1.0000
  Nb  Nb5       1.0  0.14607129991054535  0.756397545337677  0.6491422653198242  1.0000
  Nb  Nb6       1.0  0.6201500296592712  0.23584274947643277  0.3480486273765564  1.0000
  S   S1        1.0  0.8179375529289246  0.7890290021896362  0.6861693263053894  1.0000
  S   S2        1.0  0.8682420253753662  0.22811877727508542  0.9881243109703063  1.0000
