data_image0
_chemical_formula_structural       Cl3In4Nb7S
_chemical_formula_sum              "Cl3 In4 Nb7 S1"
_cell_length_a       7.228179926384804
_cell_length_b       7.37016746372879
_cell_length_c       7.44061803817749
_cell_angle_alpha    63.65763769456537
_cell_angle_beta     62.856797599808154
_cell_angle_gamma    62.53028027067603

_space_group_name_H-M_alt    "P 1"
_space_group_IT_number       1

loop_
  _space_group_symop_operation_xyz
  'x, y, z'

loop_
  _atom_site_type_symbol
  _atom_site_label
  _atom_site_symmetry_multiplicity
  _atom_site_fract_x
  _atom_site_fract_y
  _atom_site_fract_z
  _atom_site_occupancy
  Cl  Cl1       1.0  0.42620494961738586  0.7564844489097594  0.532870352268219  1.0000
  Cl  Cl2       1.0  0.5195671916007996  0.41709849238395685  0.025516318157315313  1.0000
  Cl  Cl3       1.0  0.1193213239312172  0.6736361980438232  0.8203835487365722  1.0000
  In  In1       1.0  0.805778443813324  0.2671387493610382  0.4313476681709289  1.0000
  In  In2       1.0  0.2812961041927338  0.7741128802299498  0.8135597109794616  1.0000
  In  In3       1.0  0.2973750829696655  0.5415453314781189  0.3430579602718353  1.0000
  In  In4       1.0  0.29095983505249023  0.2689380645751953  0.9121015667915343  1.0000
  Nb  Nb1       1.0  0.7976574897766113  0.27552905678749084  0.6764085292816162  1.0000
  Nb  Nb2       1.0  0.7998438477516174  0.780584692955017  0.16336093842983246  1.0000
  Nb  Nb3       1.0  0.798980176448822  0.5829407572746277  0.10398479551076888  1.0000
  Nb  Nb4       1.0  0.3047838509082795  0.9317761063575744  0.9985206723213195  1.0000
  Nb  Nb5       1.0  0.30192625522613525  0.2725668251514435  0.7014339566230774  1.0000
  Nb  Nb6       1.0  0.29984337091445923  0.27581456303596497  0.19674614071846008  1.0000
  Nb  Nb7       1.0  0.7978906035423279  0.7790855169296264  0.6905195116996765  1.0000
  S   S1        1.0  0.6199313998222351  0.25493600964546204  0.3133333921432495  1.0000
