data_image0
_chemical_formula_structural       AgCl2In3Nb9
_chemical_formula_sum              "Ag1 Cl2 In3 Nb9"
_cell_length_a       7.417018448474095
_cell_length_b       7.329669490576165
_cell_length_c       7.61025333404541
_cell_angle_alpha    64.0360739097939
_cell_angle_beta     63.843488012407775
_cell_angle_gamma    63.35496874517428

_space_group_name_H-M_alt    "P 1"
_space_group_IT_number       1

loop_
  _space_group_symop_operation_xyz
  'x, y, z'

loop_
  _atom_site_type_symbol
  _atom_site_label
  _atom_site_symmetry_multiplicity
  _atom_site_fract_x
  _atom_site_fract_y
  _atom_site_fract_z
  _atom_site_occupancy
  Ag  Ag1       1.0  0.73915696144104  0.3403579592704773  0.6012534499168396  1.0000
  Cl  Cl1       1.0  0.44218969345092773  0.5663199424743652  0.529634416103363  1.0000
  Cl  Cl2       1.0  0.1555858701467514  0.17356538772583008  0.05417967215180398  1.0000
  In  In1       1.0  0.009317867457866669  0.7997627854347229  0.7560828924179078  1.0000
  In  In2       1.0  0.22512462735176086  0.8317297697067261  0.5434262752532959  1.0000
  In  In3       1.0  0.4832130968570709  0.31813207268714905  0.7283254861831666  1.0000
  Nb  Nb1       1.0  0.49861645698547363  0.0922529324889183  0.18854558467864993  1.0000
  Nb  Nb2       1.0  0.018897946923971176  0.7889541983604431  0.7280465960502627  1.0000
  Nb  Nb3       1.0  0.49991175532341003  0.5499597191810608  0.4506340622901917  1.0000
  Nb  Nb4       1.0  0.7413948774337769  0.35221296548843384  0.951547145843506  1.0000
  Nb  Nb5       1.0  0.02086690440773964  0.0581270307302475  0.20944257080554965  1.0000
  Nb  Nb6       1.0  0.7313562631607056  0.34770557284355164  0.04075498133897776  1.0000
  Nb  Nb7       1.0  0.22159302234649658  0.34761863946914673  0.4438048601150513  1.0000
  Nb  Nb8       1.0  0.5096542239189148  0.7749705910682678  0.2243759632110596  1.0000
  Nb  Nb9       1.0  0.7260509729385376  0.03983701393008232  0.44809541106224066  1.0000
