data_image0
_chemical_formula_structural       Ge3INi2P2PtZn
_chemical_formula_sum              "Ge3 I1 Ni2 P2 Pt1 Zn1"
_cell_length_a       5.233117522121883
_cell_length_b       4.879604513405837
_cell_length_c       6.760302543640137
_cell_angle_alpha    96.12227085002745
_cell_angle_beta     96.8617085723676
_cell_angle_gamma    102.84720449729119

_space_group_name_H-M_alt    "P 1"
_space_group_IT_number       1

loop_
  _space_group_symop_operation_xyz
  'x, y, z'

loop_
  _atom_site_type_symbol
  _atom_site_label
  _atom_site_symmetry_multiplicity
  _atom_site_fract_x
  _atom_site_fract_y
  _atom_site_fract_z
  _atom_site_occupancy
  Ge  Ge1       1.0  0.8666582107543944  0.7030285596847534  0.28197655081748957  1.0000
  Ge  Ge2       1.0  0.6429773569107056  0.44997328519821167  0.5675996541976929  1.0000
  Ge  Ge3       1.0  0.2025880664587021  0.042338743805885315  0.7797071933746338  1.0000
  I   I1        1.0  0.6735413074493408  0.47277510166168213  0.7589513659477234  1.0000
  Ni  Ni1       1.0  0.7017765045166016  0.877838671207428  0.9112873077392578  1.0000
  Ni  Ni2       1.0  0.12810909748077393  0.5873340368270874  0.5797764658927917  1.0000
  P   P1        1.0  0.18631987273693085  0.21391695737838745  0.3074033260345459  1.0000
  P   P2        1.0  0.17849725484848022  0.2663384675979614  0.6689234972000122  1.0000
  Pt  Pt1       1.0  0.13951008021831512  0.5564144849777222  0.46851587295532227  1.0000
  Zn  Zn1       1.0  0.4720198512077331  0.9110469222068787  0.17385442554950714  1.0000
