data_image0
_chemical_formula_structural       Ge2Ni3P3Y2
_chemical_formula_sum              "Ge2 Ni3 P3 Y2"
_cell_length_a       5.915882071676709
_cell_length_b       5.752135865475333
_cell_length_c       6.9096903800964355
_cell_angle_alpha    90.69774304738489
_cell_angle_beta     89.9026216622572
_cell_angle_gamma    117.58303130206276

_space_group_name_H-M_alt    "P 1"
_space_group_IT_number       1

loop_
  _space_group_symop_operation_xyz
  'x, y, z'

loop_
  _atom_site_type_symbol
  _atom_site_label
  _atom_site_symmetry_multiplicity
  _atom_site_fract_x
  _atom_site_fract_y
  _atom_site_fract_z
  _atom_site_occupancy
  Ge  Ge1       1.0  0.9178040027618408  0.5274033546447754  0.6516793370246887  1.0000
  Ge  Ge2       1.0  0.21159671247005463  0.2563886344432831  0.324487566947937  1.0000
  Ni  Ni1       1.0  0.69305419921875  0.19386525452136993  0.1244788244366646  1.0000
  Ni  Ni2       1.0  0.21098428964614868  0.3106582760810852  0.8593616485595704  1.0000
  Ni  Ni3       1.0  0.28262796998023987  0.6566911935806274  0.11861526966094972  1.0000
  P   P1        1.0  0.4286206066608429  0.7145336270332336  0.6350541710853577  1.0000
  P   P2        1.0  0.962397038936615  0.9517573118209839  0.9269853830337526  1.0000
  P   P3        1.0  0.15092694759368896  0.5804157257080078  0.510053277015686  1.0000
  Y   Y1        1.0  0.966224193572998  0.23627765476703644  0.476607233285904  1.0000
  Y   Y2        1.0  0.6091299653053284  0.7026305794715881  0.19923412799835205  1.0000
