data_image0
_chemical_formula_structural       Ge2Ni5P3
_chemical_formula_sum              "Ge2 Ni5 P3"
_cell_length_a       5.315378038479145
_cell_length_b       4.935623434445238
_cell_length_c       5.925808429718018
_cell_angle_alpha    74.84069828897519
_cell_angle_beta     68.39660401577352
_cell_angle_gamma    88.46654797160274

_space_group_name_H-M_alt    "P 1"
_space_group_IT_number       1

loop_
  _space_group_symop_operation_xyz
  'x, y, z'

loop_
  _atom_site_type_symbol
  _atom_site_label
  _atom_site_symmetry_multiplicity
  _atom_site_fract_x
  _atom_site_fract_y
  _atom_site_fract_z
  _atom_site_occupancy
  Ge  Ge1       1.0  0.7578563690185547  0.7748150825500488  0.2737579941749573  1.0000
  Ge  Ge2       1.0  0.01991606131196022  0.9670249819755554  0.13717047870159146  1.0000
  Ni  Ni1       1.0  0.09848400205373764  0.439308226108551  0.9651573300361633  1.0000
  Ni  Ni2       1.0  0.11298970133066179  0.8971219062805176  0.6314914226531982  1.0000
  Ni  Ni3       1.0  0.08818018436431885  0.8138619661331177  0.126228928565979  1.0000
  Ni  Ni4       1.0  0.6081488728523254  0.8454954028129578  0.015866102650761604  1.0000
  Ni  Ni5       1.0  0.11814389377832414  0.7604272961616516  0.869051992893219  1.0000
  P   P1        1.0  0.5978595018386841  0.6116673350334167  0.2375050187110901  1.0000
  P   P2        1.0  0.6354392766952515  0.228175550699234  0.5079978704452515  1.0000
  P   P3        1.0  0.5061447024345398  0.5264652967453003  0.8367383480072021  1.0000
