data_image0
_chemical_formula_structural       NiY9
_chemical_formula_sum              "Ni1 Y9"
_cell_length_a       6.260403300191133
_cell_length_b       5.811748937684188
_cell_length_c       5.3297810554504395
_cell_angle_alpha    93.29696987925846
_cell_angle_beta     90.97048018509537
_cell_angle_gamma    107.9127884824647

_space_group_name_H-M_alt    "P 1"
_space_group_IT_number       1

loop_
  _space_group_symop_operation_xyz
  'x, y, z'

loop_
  _atom_site_type_symbol
  _atom_site_label
  _atom_site_symmetry_multiplicity
  _atom_site_fract_x
  _atom_site_fract_y
  _atom_site_fract_z
  _atom_site_occupancy
  Ni  Ni1       1.0  0.8724210858345032  0.24434386193752292  0.3634748160839081  1.0000
  Y   Y1        1.0  0.5710301995277405  0.14581888914108276  0.419877827167511  1.0000
  Y   Y2        1.0  0.8681449890136719  0.2658958435058594  0.544935941696167  1.0000
  Y   Y3        1.0  0.6096729636192322  0.20681877434253693  0.6998625993728638  1.0000
  Y   Y4        1.0  0.7766110897064209  0.4971457421779633  0.9720983505249023  1.0000
  Y   Y5        1.0  0.11811546236276627  0.255276083946228  0.7979549169540405  1.0000
  Y   Y6        1.0  0.11548475921154022  0.8028567433357239  0.29113101959228516  1.0000
  Y   Y7        1.0  0.5611785054206848  0.8661224842071534  0.7338468432426453  1.0000
  Y   Y8        1.0  0.6173788905143738  0.14187835156917572  0.24088948965072632  1.0000
  Y   Y9        1.0  0.10170471668243411  0.9572159051895143  0.691177248954773  1.0000
