data_image0
_chemical_formula_structural       Ni2Y8
_chemical_formula_sum              "Ni2 Y8"
_cell_length_a       5.220149267068414
_cell_length_b       4.785099797471585
_cell_length_c       4.879768371582031
_cell_angle_alpha    78.65036351120455
_cell_angle_beta     91.08655760338927
_cell_angle_gamma    90.52288313512899

_space_group_name_H-M_alt    "P 1"
_space_group_IT_number       1

loop_
  _space_group_symop_operation_xyz
  'x, y, z'

loop_
  _atom_site_type_symbol
  _atom_site_label
  _atom_site_symmetry_multiplicity
  _atom_site_fract_x
  _atom_site_fract_y
  _atom_site_fract_z
  _atom_site_occupancy
  Ni  Ni1       1.0  0.7853133678436279  0.8099697232246399  0.24908684194087982  1.0000
  Ni  Ni2       1.0  0.28255802392959595  0.8267722129821777  0.1349739134311676  1.0000
  Y   Y1        1.0  0.7791086435317993  0.43400076031684875  0.5345562100410461  1.0000
  Y   Y2        1.0  0.7662844061851501  0.5320132970809937  0.720280110836029  1.0000
  Y   Y3        1.0  0.0013702231226488948  0.6671457290649414  0.48939841985702515  1.0000
  Y   Y4        1.0  0.29658451676368713  0.12270548194646835  0.41647854447364807  1.0000
  Y   Y5        1.0  0.2886326313018799  0.12804493308067322  0.9969792366027832  1.0000
  Y   Y6        1.0  0.7586269974708557  0.028600607067346573  0.5868992209434509  1.0000
  Y   Y7        1.0  0.7705870866775513  0.15224215388298035  0.9693594574928284  1.0000
  Y   Y8        1.0  0.2744654417037964  0.7853689789772034  0.03738649934530258  1.0000
