data_image0
_chemical_formula_structural       F2GaINi2SeZn2Zr
_chemical_formula_sum              "F2 Ga1 I1 Ni2 Se1 Zn2 Zr1"
_cell_length_a       5.4883768537652715
_cell_length_b       5.318419204838226
_cell_length_c       5.7736382484436035
_cell_angle_alpha    95.75584892367016
_cell_angle_beta     89.93461099384405
_cell_angle_gamma    88.83846981235543

_space_group_name_H-M_alt    "P 1"
_space_group_IT_number       1

loop_
  _space_group_symop_operation_xyz
  'x, y, z'

loop_
  _atom_site_type_symbol
  _atom_site_label
  _atom_site_symmetry_multiplicity
  _atom_site_fract_x
  _atom_site_fract_y
  _atom_site_fract_z
  _atom_site_occupancy
  F   F1        1.0  0.635153591632843  0.7980608940124512  0.7752828598022461  1.0000
  F   F2        1.0  0.16119112074375153  0.7707136273384094  0.8260138034820557  1.0000
  Ga  Ga1       1.0  0.649160623550415  0.13215085864067078  0.42141637206077576  1.0000
  I   I1        1.0  0.6333685517311096  0.5578310489654541  0.3713710308074951  1.0000
  Ni  Ni1       1.0  0.14951671659946442  0.13681332767009735  0.7751380205154419  1.0000
  Ni  Ni2       1.0  0.16032281517982483  0.4953020215034485  0.5654030442237854  1.0000
  Se  Se1       1.0  0.748183012008667  0.788937509059906  0.4414537847042084  1.0000
  Zn  Zn1       1.0  0.15475378930568695  0.7092782258987427  0.33228904008865356  1.0000
  Zn  Zn2       1.0  0.6558704376220703  0.49542826414108276  0.5468069911003113  1.0000
  Zr  Zr1       1.0  0.27600690722465515  0.5143218040466309  0.8370540142059326  1.0000
