data_image0
_chemical_formula_structural       FNi4Pb3Zr2
_chemical_formula_sum              "F1 Ni4 Pb3 Zr2"
_cell_length_a       4.941513542564794
_cell_length_b       4.681261830287514
_cell_length_c       6.620298862457275
_cell_angle_alpha    90.6332655335776
_cell_angle_beta     90.27802811467463
_cell_angle_gamma    89.36350568998328

_space_group_name_H-M_alt    "P 1"
_space_group_IT_number       1

loop_
  _space_group_symop_operation_xyz
  'x, y, z'

loop_
  _atom_site_type_symbol
  _atom_site_label
  _atom_site_symmetry_multiplicity
  _atom_site_fract_x
  _atom_site_fract_y
  _atom_site_fract_z
  _atom_site_occupancy
  F   F1        1.0  0.25550031661987305  0.19896391034126282  0.7537902593612671  1.0000
  Ni  Ni1       1.0  0.25231263041496277  0.5172435641288757  0.6184884905815125  1.0000
  Ni  Ni2       1.0  0.7024645209312439  0.7228730320930481  0.3683290183544159  1.0000
  Ni  Ni3       1.0  0.26267391443252563  0.5003153681755066  0.11922112852334976  1.0000
  Ni  Ni4       1.0  0.21091964840888977  0.3403022885322571  0.41305461525917053  1.0000
  Pb  Pb1       1.0  0.767078161239624  0.7118808627128601  0.64576655626297  1.0000
  Pb  Pb2       1.0  0.7357138395309448  0.9230451583862305  0.17421387135982513  1.0000
  Pb  Pb3       1.0  0.25817808508872986  0.09358067065477371  0.8646112680435181  1.0000
  Zr  Zr1       1.0  0.758234977722168  0.9730855822563171  0.3708028495311737  1.0000
  Zr  Zr2       1.0  0.27223268151283264  0.09954513609409332  0.15768548846244812  1.0000
