data_image0
_chemical_formula_structural       F2INi2PPbZr3
_chemical_formula_sum              "F2 I1 Ni2 P1 Pb1 Zr3"
_cell_length_a       5.807403333180449
_cell_length_b       5.786952901064331
_cell_length_c       6.780242443084717
_cell_angle_alpha    71.96100195034448
_cell_angle_beta     73.90029622226668
_cell_angle_gamma    68.99312430718894

_space_group_name_H-M_alt    "P 1"
_space_group_IT_number       1

loop_
  _space_group_symop_operation_xyz
  'x, y, z'

loop_
  _atom_site_type_symbol
  _atom_site_label
  _atom_site_symmetry_multiplicity
  _atom_site_fract_x
  _atom_site_fract_y
  _atom_site_fract_z
  _atom_site_occupancy
  F   F1        1.0  0.09393265843391418  0.8749145865440369  0.4754222333431244  1.0000
  F   F2        1.0  0.7855552434921265  0.9767816662788391  0.5987155437469482  1.0000
  I   I1        1.0  0.010829462669789791  0.15696820616722107  0.10043025016784668  1.0000
  Ni  Ni1       1.0  0.3578415513038635  0.6458085775375366  0.013358504511415958  1.0000
  Ni  Ni2       1.0  0.866919994354248  0.31685671210289  0.4928053319454193  1.0000
  P   P1        1.0  0.35951197147369385  0.6325555443763733  0.2301723212003708  1.0000
  Pb  Pb1       1.0  0.4899473190307617  0.023909518495202065  0.24621202051639557  1.0000
  Zr  Zr1       1.0  0.841915488243103  0.7350438237190247  0.23166236281394958  1.0000
  Zr  Zr2       1.0  0.1932678520679474  0.6933935284614563  0.23716294765472412  1.0000
  Zr  Zr3       1.0  0.8386491537094116  0.919169545173645  0.7575218677520752  1.0000
