data_image0
_chemical_formula_structural       F3Ni3Pb4
_chemical_formula_sum              "F3 Ni3 Pb4"
_cell_length_a       3.979743592439396
_cell_length_b       3.999921083433277
_cell_length_c       7.130688190460205
_cell_angle_alpha    103.68326542502801
_cell_angle_beta     106.81610390344252
_cell_angle_gamma    93.95798018717771

_space_group_name_H-M_alt    "P 1"
_space_group_IT_number       1

loop_
  _space_group_symop_operation_xyz
  'x, y, z'

loop_
  _atom_site_type_symbol
  _atom_site_label
  _atom_site_symmetry_multiplicity
  _atom_site_fract_x
  _atom_site_fract_y
  _atom_site_fract_z
  _atom_site_occupancy
  F   F1        1.0  0.23914062976837155  0.9308161735534667  0.9362447261810303  1.0000
  F   F2        1.0  0.008540953509509563  0.7543125152587891  0.13957816362380984  1.0000
  F   F3        1.0  0.06460954248905182  0.25349298119544983  0.21703168749809265  1.0000
  Ni  Ni1       1.0  0.0645276457071304  0.9171128273010253  0.26014205813407904  1.0000
  Ni  Ni2       1.0  0.03988191857933998  0.43347564339637756  0.9638322591781616  1.0000
  Ni  Ni3       1.0  0.06371788680553436  0.017800552770495415  0.7607020735740662  1.0000
  Pb  Pb1       1.0  0.0672830268740654  0.17126816511154175  0.30236876010894775  1.0000
  Pb  Pb2       1.0  0.5737706422805786  0.8820804357528687  0.006496780086308749  1.0000
  Pb  Pb3       1.0  0.5694307684898376  0.76591956615448  0.9305180311203003  1.0000
  Pb  Pb4       1.0  0.5742901563644409  0.7881003022193909  0.910944938659668  1.0000
