data_image0
_chemical_formula_structural       F2Ni3Pb5
_chemical_formula_sum              "F2 Ni3 Pb5"
_cell_length_a       3.7945061316433204
_cell_length_b       4.1835408783187855
_cell_length_c       6.9935503005981445
_cell_angle_alpha    89.02504807531142
_cell_angle_beta     90.63947419110889
_cell_angle_gamma    99.03510741397776

_space_group_name_H-M_alt    "P 1"
_space_group_IT_number       1

loop_
  _space_group_symop_operation_xyz
  'x, y, z'

loop_
  _atom_site_type_symbol
  _atom_site_label
  _atom_site_symmetry_multiplicity
  _atom_site_fract_x
  _atom_site_fract_y
  _atom_site_fract_z
  _atom_site_occupancy
  F   F1        1.0  0.5148712396621704  0.7014786005020142  0.5762198567390442  1.0000
  F   F2        1.0  0.02207999676465988  0.2650615870952606  0.6668128371238707  1.0000
  Ni  Ni1       1.0  0.5039924383163452  0.8669714331626892  0.6179704070091248  1.0000
  Ni  Ni2       1.0  0.48171016573905945  0.5825613737106323  0.547525942325592  1.0000
  Ni  Ni3       1.0  0.8313210010528564  0.02401154488325119  0.808960199356079  1.0000
  Pb  Pb1       1.0  0.013681032694876194  0.31882965564727783  0.5222752690315247  1.0000
  Pb  Pb2       1.0  0.49506136775016785  0.41711267828941345  0.4381714761257171  1.0000
  Pb  Pb3       1.0  0.017307253554463387  0.028253747150301933  0.6427445411682129  1.0000
  Pb  Pb4       1.0  0.5242124199867249  0.9683557152748108  0.00890262983739376  1.0000
  Pb  Pb5       1.0  0.5121523141860962  0.8313537240028381  0.7023534774780272  1.0000
