data_image0
_chemical_formula_structural       GaO7S
_chemical_formula_sum              "Ga1 O7 S1"
_cell_length_a       6.055401603914235
_cell_length_b       6.221581072109445
_cell_length_c       6.634249210357666
_cell_angle_alpha    67.30758551191232
_cell_angle_beta     63.5445483815945
_cell_angle_gamma    62.479288587206945

_space_group_name_H-M_alt    "P 1"
_space_group_IT_number       1

loop_
  _space_group_symop_operation_xyz
  'x, y, z'

loop_
  _atom_site_type_symbol
  _atom_site_label
  _atom_site_symmetry_multiplicity
  _atom_site_fract_x
  _atom_site_fract_y
  _atom_site_fract_z
  _atom_site_occupancy
  Ga  Ga1       1.0  0.09346908330917358  0.06260557472705841  0.4972929954528808  1.0000
  O   O1        1.0  0.17110025882720947  0.8195490837097168  0.9900252819061278  1.0000
  O   O2        1.0  0.49530333280563354  0.1587294191122055  0.06364455819129944  1.0000
  O   O3        1.0  0.963176965713501  0.18430288136005402  0.09788315743207937  1.0000
  O   O4        1.0  0.864210844039917  0.4258788824081421  0.49944388866424555  1.0000
  O   O5        1.0  0.711046576499939  0.8712899088859558  0.9204095005989074  1.0000
  O   O6        1.0  0.3522206246852875  0.877173125743866  0.4393447637557983  1.0000
  O   O7        1.0  0.7095547318458557  0.4284426271915436  0.9105628728866576  1.0000
  S   S1        1.0  0.4888034164905548  0.6812348961830139  0.4783335328102111  1.0000
