data_image0
_chemical_formula_structural       K2O5SYb
_chemical_formula_sum              "K2 O5 S1 Yb1"
_cell_length_a       5.186360375153549
_cell_length_b       5.8356239153090845
_cell_length_c       5.731945991516113
_cell_angle_alpha    63.9845835109008
_cell_angle_beta     62.54303338816087
_cell_angle_gamma    64.27179790748191

_space_group_name_H-M_alt    "P 1"
_space_group_IT_number       1

loop_
  _space_group_symop_operation_xyz
  'x, y, z'

loop_
  _atom_site_type_symbol
  _atom_site_label
  _atom_site_symmetry_multiplicity
  _atom_site_fract_x
  _atom_site_fract_y
  _atom_site_fract_z
  _atom_site_occupancy
  K   K1        1.0  0.23821130394935608  0.1063760444521904  0.34120920300483704  1.0000
  K   K2        1.0  0.7420157790184021  0.6550778150558472  0.5486634373664856  1.0000
  O   O1        1.0  0.7292811274528503  0.6786144375801086  0.28047335147857666  1.0000
  O   O2        1.0  0.7599573135375977  0.6850854158401489  0.8364217877388  1.0000
  O   O3        1.0  0.03520859777927399  0.013981022872030735  0.16262057423591614  1.0000
  O   O4        1.0  0.2876652479171753  0.19296951591968536  0.7358741164207458  1.0000
  O   O5        1.0  0.009617620147764683  0.4687154293060303  0.02999991923570633  1.0000
  S   S1        1.0  0.3804546594619751  0.28845030069351196  0.34615540504455566  1.0000
  Yb  Yb1       1.0  0.18968135118484497  0.11068198084831238  0.4357883930206299  1.0000
