data_image0
_chemical_formula_structural       O4Ru5
_chemical_formula_sum              "O4 Ru5"
_cell_length_a       5.03572454962129
_cell_length_b       6.02623640553647
_cell_length_c       6.326837062835693
_cell_angle_alpha    93.50796082821614
_cell_angle_beta     88.5871044852842
_cell_angle_gamma    121.0602544523115

_space_group_name_H-M_alt    "P 1"
_space_group_IT_number       1

loop_
  _space_group_symop_operation_xyz
  'x, y, z'

loop_
  _atom_site_type_symbol
  _atom_site_label
  _atom_site_symmetry_multiplicity
  _atom_site_fract_x
  _atom_site_fract_y
  _atom_site_fract_z
  _atom_site_occupancy
  O   O1        1.0  0.8648179173469543  0.6706440448760986  0.4758654236793518  1.0000
  O   O2        1.0  0.4672712981700897  0.5891291499137878  0.08422095328569412  1.0000
  O   O3        1.0  0.14404825866222382  0.5817841291427612  0.19957767426967624  1.0000
  O   O4        1.0  0.5681442618370056  0.121458500623703  0.25878673791885376  1.0000
  Ru  Ru1       1.0  0.6165835857391357  0.04867595434188843  0.624476969242096  1.0000
  Ru  Ru2       1.0  0.5992321968078613  0.28012815117836  0.10253360867500305  1.0000
  Ru  Ru3       1.0  0.11365634948015213  0.1561238020658493  0.8858409523963928  1.0000
  Ru  Ru4       1.0  0.8414438366889954  0.9139450788497925  0.5232962965965271  1.0000
  Ru  Ru5       1.0  0.5649289488792419  0.6387550830841064  0.5929164886474609  1.0000
