data_image0
_chemical_formula_structural       O5Ru4
_chemical_formula_sum              "O5 Ru4"
_cell_length_a       5.266159384137509
_cell_length_b       5.645270703463201
_cell_length_c       6.237882137298584
_cell_angle_alpha    98.47068638712922
_cell_angle_beta     90.09343491426259
_cell_angle_gamma    115.27244352121726

_space_group_name_H-M_alt    "P 1"
_space_group_IT_number       1

loop_
  _space_group_symop_operation_xyz
  'x, y, z'

loop_
  _atom_site_type_symbol
  _atom_site_label
  _atom_site_symmetry_multiplicity
  _atom_site_fract_x
  _atom_site_fract_y
  _atom_site_fract_z
  _atom_site_occupancy
  O   O1        1.0  0.08313010632991791  0.6880897879600525  0.39830732345581055  1.0000
  O   O2        1.0  0.5461936593055725  0.5403033494949341  0.02911367453634739  1.0000
  O   O3        1.0  0.7914376854896545  0.42754167318344116  0.6518391370773315  1.0000
  O   O4        1.0  0.24940016865730286  0.05608278885483742  0.4107944369316101  1.0000
  O   O5        1.0  0.5302817821502686  0.030442792922258377  0.36255723237991333  1.0000
  Ru  Ru1       1.0  0.7944932579994202  0.7600961327552795  0.8645378947257996  1.0000
  Ru  Ru2       1.0  0.27974337339401245  0.4459353983402252  0.17067010700702667  1.0000
  Ru  Ru3       1.0  0.8273845314979553  0.045110784471035004  0.3989191949367523  1.0000
  Ru  Ru4       1.0  0.8097096085548401  0.02854490652680397  0.8456076383590698  1.0000
