data_image0
_chemical_formula_structural       BaO3Ru5
_chemical_formula_sum              "Ba1 O3 Ru5"
_cell_length_a       5.831396747392012
_cell_length_b       5.976365989953815
_cell_length_c       5.8586626052856445
_cell_angle_alpha    63.49307015952108
_cell_angle_beta     62.49460186860422
_cell_angle_gamma    63.59500028980371

_space_group_name_H-M_alt    "P 1"
_space_group_IT_number       1

loop_
  _space_group_symop_operation_xyz
  'x, y, z'

loop_
  _atom_site_type_symbol
  _atom_site_label
  _atom_site_symmetry_multiplicity
  _atom_site_fract_x
  _atom_site_fract_y
  _atom_site_fract_z
  _atom_site_occupancy
  Ba  Ba1       1.0  0.26681652665138245  0.10920528322458267  0.32561591267585754  1.0000
  O   O1        1.0  0.04226595535874367  0.3270379602909088  0.21189831197261808  1.0000
  O   O2        1.0  0.7558284401893616  0.6122031807899475  0.7306630611419678  1.0000
  O   O3        1.0  0.5658267736434937  0.9648312330245972  0.9327152967453002  1.0000
  Ru  Ru1       1.0  0.7539884448051453  0.11181866377592087  0.7294270992279053  1.0000
  Ru  Ru2       1.0  0.28736233711242676  0.6073524951934814  0.2299474328756332  1.0000
  Ru  Ru3       1.0  0.5542000532150269  0.3413817882537842  0.7183343172073364  1.0000
  Ru  Ru4       1.0  0.049479980021715164  0.3359173536300659  0.40886962413787836  1.0000
  Ru  Ru5       1.0  0.31008994579315186  0.6095952987670898  0.22321964800357816  1.0000
