data_image0
_chemical_formula_structural       O2Ru6Yb
_chemical_formula_sum              "O2 Ru6 Yb1"
_cell_length_a       5.426770907238195
_cell_length_b       6.004970436504836
_cell_length_c       5.9294233322143555
_cell_angle_alpha    66.36556501675423
_cell_angle_beta     62.841238973979436
_cell_angle_gamma    63.847727691972906

_space_group_name_H-M_alt    "P 1"
_space_group_IT_number       1

loop_
  _space_group_symop_operation_xyz
  'x, y, z'

loop_
  _atom_site_type_symbol
  _atom_site_label
  _atom_site_symmetry_multiplicity
  _atom_site_fract_x
  _atom_site_fract_y
  _atom_site_fract_z
  _atom_site_occupancy
  O   O1        1.0  0.29478976130485535  0.09750571846961975  0.8820053935050965  1.0000
  O   O2        1.0  0.8272220492362976  0.006735995411872865  0.9010275602340699  1.0000
  Ru  Ru1       1.0  0.7270013689994812  0.8151368498802185  0.4936794042587281  1.0000
  Ru  Ru2       1.0  0.22455264627933502  0.344728022813797  0.7041406631469727  1.0000
  Ru  Ru3       1.0  0.25508013367652893  0.792450487613678  0.9859747290611268  1.0000
  Ru  Ru4       1.0  0.21574194729328156  0.325671523809433  0.2561294138431549  1.0000
  Ru  Ru5       1.0  0.7318679690361023  0.49018085002899175  0.2321720570325851  1.0000
  Ru  Ru6       1.0  0.21949271857738495  0.8343766927719116  0.7901574373245239  1.0000
  Yb  Yb1       1.0  0.699592649936676  0.33859115839004517  0.2650887966156006  1.0000
