data_image0
_chemical_formula_structural       CoFMo2O7Sr3
_chemical_formula_sum              "Co1 F1 Mo2 O7 Sr3"
_cell_length_a       5.76279267267704
_cell_length_b       3.4363889856315355
_cell_length_c       6.591619491577148
_cell_angle_alpha    75.66169134388743
_cell_angle_beta     68.09530167885674
_cell_angle_gamma    22.96149055105192

_space_group_name_H-M_alt    "P 1"
_space_group_IT_number       1

loop_
  _space_group_symop_operation_xyz
  'x, y, z'

loop_
  _atom_site_type_symbol
  _atom_site_label
  _atom_site_symmetry_multiplicity
  _atom_site_fract_x
  _atom_site_fract_y
  _atom_site_fract_z
  _atom_site_occupancy
  Co  Co1       1.0  0.979653537273407  0.13487952947616577  0.009870104491710663  1.0000
  F   F1        1.0  0.6064428687095642  0.3308926224708557  0.10343845933675765  1.0000
  Mo  Mo1       1.0  0.5448569059371948  0.16430991888046265  0.4846577942371368  1.0000
  Mo  Mo2       1.0  0.42317473888397217  0.6782446503639221  0.8256772160530089  1.0000
  O   O1        1.0  0.7274805307388306  0.45784717798233027  0.3984097242355346  1.0000
  O   O2        1.0  0.5712812542915344  0.026524243876338  0.5409117937088013  1.0000
  O   O3        1.0  0.025857528671622276  0.7608676552772522  0.8834820985794066  1.0000
  O   O4        1.0  0.9048125743865967  0.9485952854156493  0.3265365958213806  1.0000
  O   O5        1.0  0.041784465312957764  0.684099555015564  0.7789329886436462  1.0000
  O   O6        1.0  0.7849398255348206  0.29398271441459656  0.7395142316818237  1.0000
  O   O7        1.0  0.3096623718738556  0.6261529326438904  0.02184966206550598  1.0000
  Sr  Sr1       1.0  0.7287077307701111  0.6724755764007568  0.3115401268005371  1.0000
  Sr  Sr2       1.0  0.02681627683341503  0.7561796307563782  0.4298968613147735  1.0000
  Sr  Sr3       1.0  0.3605465292930603  0.4061765670776367  0.38804611563682556  1.0000
