data_image0
_chemical_formula_structural       FHIO5PbSr5
_chemical_formula_sum              "F1 H1 I1 O5 Pb1 Sr5"
_cell_length_a       0.06393625470951636
_cell_length_b       6.245114165574463
_cell_length_c       6.733150482177734
_cell_angle_alpha    98.85239259444353
_cell_angle_beta     109.67927991857226
_cell_angle_gamma    133.67496516945542

_space_group_name_H-M_alt    "P 1"
_space_group_IT_number       1

loop_
  _space_group_symop_operation_xyz
  'x, y, z'

loop_
  _atom_site_type_symbol
  _atom_site_label
  _atom_site_symmetry_multiplicity
  _atom_site_fract_x
  _atom_site_fract_y
  _atom_site_fract_z
  _atom_site_occupancy
  F   F1        1.0  0.5353440046310425  0.7231391072273254  0.6885404586791992  1.0000
  H   H1        1.0  0.45118787884710376  0.9195457100868224  0.8043708801269532  1.0000
  I   I1        1.0  0.4860367476940192  0.6303720474243164  0.7733529806137084  1.0000
  O   O1        1.0  0.5787095427513086  0.3901349008083343  0.09083569794893266  1.0000
  O   O2        1.0  0.9143658876419068  0.6736137270927429  0.053404241800308255  1.0000
  O   O3        1.0  0.2334819436073082  0.8686311244964598  0.5362548232078552  1.0000
  O   O4        1.0  0.028249718248843227  0.3531920611858368  0.04905719310045243  1.0000
  O   O5        1.0  0.9847741723060572  0.2435193210840225  0.819352626800537  1.0000
  Pb  Pb1       1.0  0.005026387982070101  0.027867373079061505  0.731683313846588  1.0000
  Sr  Sr1       1.0  0.9956780672073291  0.4703123569488525  0.5545947551727295  1.0000
  Sr  Sr2       1.0  0.004554159007965712  0.26891082525253296  0.701952338218689  1.0000
  Sr  Sr3       1.0  0.04249963909387497  0.2709290683269501  0.9989142417907714  1.0000
  Sr  Sr4       1.0  0.48798725008964544  0.127954363822937  0.8713379502296447  1.0000
  Sr  Sr5       1.0  0.5182676911353992  0.4087176322937011  0.4878891706466674  1.0000
