data_image0
_chemical_formula_structural       HNiNpO8Sr2Zr
_chemical_formula_sum              "H1 Ni1 Np1 O8 Sr2 Zr1"
_cell_length_a       6.806197433482409
_cell_length_b       6.7830973238988745
_cell_length_c       6.960827350616455
_cell_angle_alpha    60.64681391104784
_cell_angle_beta     59.604795782864144
_cell_angle_gamma    58.51468735760844

_space_group_name_H-M_alt    "P 1"
_space_group_IT_number       1

loop_
  _space_group_symop_operation_xyz
  'x, y, z'

loop_
  _atom_site_type_symbol
  _atom_site_label
  _atom_site_symmetry_multiplicity
  _atom_site_fract_x
  _atom_site_fract_y
  _atom_site_fract_z
  _atom_site_occupancy
  H   H1        1.0  0.2630366384983063  0.7585245966911316  0.8455577492713928  1.0000
  Ni  Ni1       1.0  0.9196709394454956  0.6967969536781311  0.19924548268318165  1.0000
  Np  Np1       1.0  0.21154814958572388  0.6488321423530579  0.4696098268032074  1.0000
  O   O1        1.0  0.40832799673080444  0.5294845700263977  0.3371180295944214  1.0000
  O   O2        1.0  0.8649168014526367  0.9621825218200684  0.25057119131088257  1.0000
  O   O3        1.0  0.22012200951576233  0.4044879376888275  0.7000319957733154  1.0000
  O   O4        1.0  0.46723246574401855  0.007797929458320141  0.38150003552436834  1.0000
  O   O5        1.0  0.7141251564025879  0.4938719570636749  0.05119684711098671  1.0000
  O   O6        1.0  0.8802840113639832  0.002569056348875165  0.18524564802646637  1.0000
  O   O7        1.0  0.740092396736145  0.28053906559944153  0.5760274529457092  1.0000
  O   O8        1.0  0.2951463758945465  0.7524750828742981  0.6415849924087524  1.0000
  Sr  Sr1       1.0  0.2452755868434906  0.42617490887641907  0.707599401473999  1.0000
  Sr  Sr2       1.0  0.3900423049926758  0.8951495289802551  0.6816776990890503  1.0000
  Zr  Zr1       1.0  0.4646989107131958  0.39627254009246826  0.46139246225357056  1.0000
