data_image0
_chemical_formula_structural       Mo5Ni3O6
_chemical_formula_sum              "Mo5 Ni3 O6"
_cell_length_a       4.8422568137808675
_cell_length_b       5.067972556146421
_cell_length_c       5.579388618469238
_cell_angle_alpha    78.74051117826815
_cell_angle_beta     72.88460037281608
_cell_angle_gamma    71.43019819190786

_space_group_name_H-M_alt    "P 1"
_space_group_IT_number       1

loop_
  _space_group_symop_operation_xyz
  'x, y, z'

loop_
  _atom_site_type_symbol
  _atom_site_label
  _atom_site_symmetry_multiplicity
  _atom_site_fract_x
  _atom_site_fract_y
  _atom_site_fract_z
  _atom_site_occupancy
  Mo  Mo1       1.0  0.6385526657104492  0.5447050333023071  0.4345088005065918  1.0000
  Mo  Mo2       1.0  0.11986096948385239  0.8460585474967957  0.332025945186615  1.0000
  Mo  Mo3       1.0  0.8203954100608826  0.7083387970924377  0.6328944563865662  1.0000
  Mo  Mo4       1.0  0.12340214848518372  0.6921390295028687  0.45312878489494324  1.0000
  Mo  Mo5       1.0  0.09288033843040466  0.19306771457195282  0.6663748621940613  1.0000
  Ni  Ni1       1.0  0.1633237898349762  0.21406535804271698  0.5212368369102478  1.0000
  Ni  Ni2       1.0  0.12788932025432592  0.8992004990577697  0.3740074336528778  1.0000
  Ni  Ni3       1.0  0.6382133960723877  0.3798876404762268  0.9494854211807251  1.0000
  O   O1        1.0  0.47315162420272827  0.9295196533203124  0.3090778291225434  1.0000
  O   O2        1.0  0.9796772003173828  0.44685330986976624  0.9653577208518982  1.0000
  O   O3        1.0  0.8905694484710693  0.7551167011260986  0.750220000743866  1.0000
  O   O4        1.0  0.25376400351524353  0.7967855334281921  0.7589112520217896  1.0000
  O   O5        1.0  0.6401045918464661  0.21367275714874268  0.7862451672554016  1.0000
  O   O6        1.0  0.16745148599147797  0.1563870906829834  0.0197107195854187  1.0000
