data_image0
_chemical_formula_structural       HI2NiO6Pb2Zr2
_chemical_formula_sum              "H1 I2 Ni1 O6 Pb2 Zr2"
_cell_length_a       6.338851480443042
_cell_length_b       5.587521921181512
_cell_length_c       6.70341157913208
_cell_angle_alpha    65.9692059484747
_cell_angle_beta     63.723153596172565
_cell_angle_gamma    57.61538291730645

_space_group_name_H-M_alt    "P 1"
_space_group_IT_number       1

loop_
  _space_group_symop_operation_xyz
  'x, y, z'

loop_
  _atom_site_type_symbol
  _atom_site_label
  _atom_site_symmetry_multiplicity
  _atom_site_fract_x
  _atom_site_fract_y
  _atom_site_fract_z
  _atom_site_occupancy
  H   H1        1.0  0.21151456236839294  0.13032668828964233  0.18549349904060364  1.0000
  I   I1        1.0  0.9593820571899415  0.9066612720489502  0.4801766574382782  1.0000
  I   I2        1.0  0.5231291651725769  0.9562022089958191  0.48744839429855347  1.0000
  Ni  Ni1       1.0  0.48999097943305975  0.6028335690498352  0.8603997826576233  1.0000
  O   O1        1.0  0.17790251970291138  0.6900269389152527  0.9412205219268799  1.0000
  O   O2        1.0  0.8805024027824402  0.608485758304596  0.08854483813047402  1.0000
  O   O3        1.0  0.07505344599485397  0.5999537110328674  0.4607694745063782  1.0000
  O   O4        1.0  0.09970428794622421  0.3655324876308441  0.6392117142677307  1.0000
  O   O5        1.0  0.9237911701202394  0.39240697026252747  0.7434371709823608  1.0000
  O   O6        1.0  0.9323853850364686  0.07978498190641403  0.3564887642860412  1.0000
  Pb  Pb1       1.0  0.23824299871921542  0.18048033118247986  0.7336278557777405  1.0000
  Pb  Pb2       1.0  0.6774659752845764  0.17570997774600983  0.9984599351882935  1.0000
  Zr  Zr1       1.0  0.7928351759910583  0.02853458561003208  0.4117781817913055  1.0000
  Zr  Zr2       1.0  0.25637388229370117  0.0810592994093895  0.7466802000999451  1.0000
