data_image0
_chemical_formula_structural       Mo6Ni4O4
_chemical_formula_sum              "Mo6 Ni4 O4"
_cell_length_a       4.803791896144933
_cell_length_b       5.105505274285658
_cell_length_c       6.918905735015869
_cell_angle_alpha    100.78287231222885
_cell_angle_beta     92.95812331086303
_cell_angle_gamma    83.99670978250305

_space_group_name_H-M_alt    "P 1"
_space_group_IT_number       1

loop_
  _space_group_symop_operation_xyz
  'x, y, z'

loop_
  _atom_site_type_symbol
  _atom_site_label
  _atom_site_symmetry_multiplicity
  _atom_site_fract_x
  _atom_site_fract_y
  _atom_site_fract_z
  _atom_site_occupancy
  Mo  Mo1       1.0  0.09999622404575348  0.1576905995607376  0.9093021154403687  1.0000
  Mo  Mo2       1.0  0.8256218433380126  0.178296759724617  0.08445294201374054  1.0000
  Mo  Mo3       1.0  0.5969391465187073  0.700204610824585  0.45812055468559265  1.0000
  Mo  Mo4       1.0  0.0903395339846611  0.08867210894823074  0.4054718613624573  1.0000
  Mo  Mo5       1.0  0.09714657068252563  0.1423984169960022  0.3058660626411438  1.0000
  Mo  Mo6       1.0  0.5998452305793762  0.0672464445233345  0.8468855023384094  1.0000
  Ni  Ni1       1.0  0.5665991902351379  0.4603608250617981  0.4196490943431854  1.0000
  Ni  Ni2       1.0  0.08875789493322372  0.017355596646666527  0.1141686961054802  1.0000
  Ni  Ni3       1.0  0.5749892592430115  0.05839546024799347  0.9249246716499329  1.0000
  Ni  Ni4       1.0  0.58995121717453  0.29370439052581787  0.2339145541191101  1.0000
  O   O1        1.0  0.08295096457004547  0.03602118417620659  0.2634776532649994  1.0000
  O   O2        1.0  0.579346776008606  0.7418493032455444  0.04768241569399834  1.0000
  O   O3        1.0  0.8206174969673157  0.12936095893383026  0.07664638757705688  1.0000
  O   O4        1.0  0.08501296490430832  0.9475702047348022  0.5797858238220215  1.0000
