data_image0
_chemical_formula_structural       B4Dy3Mo3
_chemical_formula_sum              "B4 Dy3 Mo3"
_cell_length_a       4.8511386414798965
_cell_length_b       5.905594344351544
_cell_length_c       6.566074848175049
_cell_angle_alpha    117.46934055159511
_cell_angle_beta     90.65466832221945
_cell_angle_gamma    86.79984754748335

_space_group_name_H-M_alt    "P 1"
_space_group_IT_number       1

loop_
  _space_group_symop_operation_xyz
  'x, y, z'

loop_
  _atom_site_type_symbol
  _atom_site_label
  _atom_site_symmetry_multiplicity
  _atom_site_fract_x
  _atom_site_fract_y
  _atom_site_fract_z
  _atom_site_occupancy
  B   B1        1.0  0.03517192229628563  0.375942200422287  0.38972982764244085  1.0000
  B   B2        1.0  0.5314137935638428  0.7183218598365784  0.366626262664795  1.0000
  B   B3        1.0  0.7851935625076294  0.3553488254547119  0.22318156063556674  1.0000
  B   B4        1.0  0.28971126675605774  0.14853671193122864  0.19757555425167087  1.0000
  Dy  Dy1       1.0  0.29648858308792114  0.25405651330947876  0.8757826685905458  1.0000
  Dy  Dy2       1.0  0.30932021141052246  0.7743775844573975  0.45303827524185175  1.0000
  Dy  Dy3       1.0  0.029831178486347202  0.8175681829452514  0.5034053325653076  1.0000
  Mo  Mo1       1.0  0.30698636174201965  0.5373563170433044  0.9942385554313661  1.0000
  Mo  Mo2       1.0  0.8051400780677795  0.7958724498748779  0.9849366545677186  1.0000
  Mo  Mo3       1.0  0.5324811935424805  0.32466402649879456  0.3585845530033112  1.0000
