data_image0
_chemical_formula_structural       B4Dy3Mo2S
_chemical_formula_sum              "B4 Dy3 Mo2 S1"
_cell_length_a       5.332035104029671
_cell_length_b       6.294677243285227
_cell_length_c       6.441667556762695
_cell_angle_alpha    115.71455226256997
_cell_angle_beta     89.50040951601909
_cell_angle_gamma    89.39565932503373

_space_group_name_H-M_alt    "P 1"
_space_group_IT_number       1

loop_
  _space_group_symop_operation_xyz
  'x, y, z'

loop_
  _atom_site_type_symbol
  _atom_site_label
  _atom_site_symmetry_multiplicity
  _atom_site_fract_x
  _atom_site_fract_y
  _atom_site_fract_z
  _atom_site_occupancy
  B   B1        1.0  0.7619120478630066  0.5091515779495239  0.5538566708564758  1.0000
  B   B2        1.0  0.7491708397865295  0.14775754511356354  0.026851696893572807  1.0000
  B   B3        1.0  0.49642646312713623  0.6829019784927368  0.7251627445220947  1.0000
  B   B4        1.0  0.24748241901397705  0.37331846356391907  0.9369543194770813  1.0000
  Dy  Dy1       1.0  0.24487853050231934  0.8598766922950745  0.2002442181110382  1.0000
  Dy  Dy2       1.0  0.5038900375366211  0.35355475544929504  0.8269619345664978  1.0000
  Dy  Dy3       1.0  0.9873901605606079  0.3742600679397583  0.9755508899688721  1.0000
  Mo  Mo1       1.0  0.24767367541790009  0.7009685635566711  0.2385997474193573  1.0000
  Mo  Mo2       1.0  0.24782778322696686  0.8655487895011902  0.24017414450645447  1.0000
  S   S1        1.0  0.5183601975440979  0.4723703861236572  0.032931044697761536  1.0000
