data_image0
_chemical_formula_structural       B6DyMo3
_chemical_formula_sum              "B6 Dy1 Mo3"
_cell_length_a       4.2126967910712
_cell_length_b       5.371529075086582
_cell_length_c       5.811850070953369
_cell_angle_alpha    117.76893564350884
_cell_angle_beta     86.87248285794216
_cell_angle_gamma    90.1591079898984

_space_group_name_H-M_alt    "P 1"
_space_group_IT_number       1

loop_
  _space_group_symop_operation_xyz
  'x, y, z'

loop_
  _atom_site_type_symbol
  _atom_site_label
  _atom_site_symmetry_multiplicity
  _atom_site_fract_x
  _atom_site_fract_y
  _atom_site_fract_z
  _atom_site_occupancy
  B   B1        1.0  0.9113733172416687  0.7202697992324829  0.10736329853534698  1.0000
  B   B2        1.0  0.8862003684043884  0.033541981130838394  0.5485290884971619  1.0000
  B   B3        1.0  0.1287156194448471  0.3578977584838867  0.32230204343795776  1.0000
  B   B4        1.0  0.4172472059726715  0.9870629906654358  0.8208703994750977  1.0000
  B   B5        1.0  0.8967915177345276  0.9983354806900024  0.8168840408325195  1.0000
  B   B6        1.0  0.44009605050086975  0.30169856548309326  0.8240740299224854  1.0000
  Dy  Dy1       1.0  0.6328709721565247  0.7144859433174133  0.5554324984550476  1.0000
  Mo  Mo1       1.0  0.9117164015769958  0.7043014764785767  0.5523388981819153  1.0000
  Mo  Mo2       1.0  0.4227159917354584  0.3717850148677826  0.04555657505989075  1.0000
  Mo  Mo3       1.0  0.4216705560684204  0.34755852818489075  0.8151461482048035  1.0000
