data_image0
_chemical_formula_structural       B5DyMo4
_chemical_formula_sum              "B5 Dy1 Mo4"
_cell_length_a       3.6781712208401895
_cell_length_b       6.013688655002298
_cell_length_c       6.340423107147217
_cell_angle_alpha    119.48001050168152
_cell_angle_beta     89.98939518188612
_cell_angle_gamma    80.35878442486381

_space_group_name_H-M_alt    "P 1"
_space_group_IT_number       1

loop_
  _space_group_symop_operation_xyz
  'x, y, z'

loop_
  _atom_site_type_symbol
  _atom_site_label
  _atom_site_symmetry_multiplicity
  _atom_site_fract_x
  _atom_site_fract_y
  _atom_site_fract_z
  _atom_site_occupancy
  B   B1        1.0  0.867648482322693  0.9170754551887512  0.38583642244338984  1.0000
  B   B2        1.0  0.8684659600257875  0.6784868240356445  0.9630688428878783  1.0000
  B   B3        1.0  0.8727081418037416  0.582487165927887  0.35667973756790156  1.0000
  B   B4        1.0  0.3706821203231812  0.4356038570404053  0.8357485532760619  1.0000
  B   B5        1.0  0.8710939288139344  0.5894617438316345  0.32549825310707087  1.0000
  Dy  Dy1       1.0  0.37567019462585455  0.9874982237815857  0.7328456640243529  1.0000
  Mo  Mo1       1.0  0.8751221895217897  0.4423779249191284  0.9361791610717772  1.0000
  Mo  Mo2       1.0  0.37339615821838384  0.08074115961790085  0.8671587109565734  1.0000
  Mo  Mo3       1.0  0.3735936582088471  0.6701409220695496  0.35365870594978327  1.0000
  Mo  Mo4       1.0  0.3741487860679627  0.09784197062253952  0.11276526749134062  1.0000
