data_image0
_chemical_formula_structural       B3Dy3Mo4
_chemical_formula_sum              "B3 Dy3 Mo4"
_cell_length_a       5.478170400690438
_cell_length_b       6.430606598901743
_cell_length_c       6.5972371101379395
_cell_angle_alpha    118.24598560158827
_cell_angle_beta     88.11756187211253
_cell_angle_gamma    89.44154329872066

_space_group_name_H-M_alt    "P 1"
_space_group_IT_number       1

loop_
  _space_group_symop_operation_xyz
  'x, y, z'

loop_
  _atom_site_type_symbol
  _atom_site_label
  _atom_site_symmetry_multiplicity
  _atom_site_fract_x
  _atom_site_fract_y
  _atom_site_fract_z
  _atom_site_occupancy
  B   B1        1.0  0.6117262840270996  0.596635639667511  0.9735918045043945  1.0000
  B   B2        1.0  0.8613625764846802  0.35285326838493347  0.5683683156967163  1.0000
  B   B3        1.0  0.12081697583198547  0.018637895584106445  0.8554334044456482  1.0000
  Dy  Dy1       1.0  0.8645564317703247  0.2512296140193939  0.5687439441680908  1.0000
  Dy  Dy2       1.0  0.6549835801124573  0.7462103366851807  0.30634424090385437  1.0000
  Dy  Dy3       1.0  0.36062791943550115  0.22041906416416168  0.2520734369754791  1.0000
  Mo  Mo1       1.0  0.8608601093292236  0.9965690970420837  0.07368429750204086  1.0000
  Mo  Mo2       1.0  0.35970625281333923  0.509284257888794  0.7391085028648376  1.0000
  Mo  Mo3       1.0  0.3606795072555542  0.7195638418197632  0.7445138692855835  1.0000
  Mo  Mo4       1.0  0.8602316379547119  0.0465841218829155  0.725945234298706  1.0000
