data_image0
_chemical_formula_structural       B5Mo5
_chemical_formula_sum              "B5 Mo5"
_cell_length_a       5.183395216892551
_cell_length_b       5.379609115798759
_cell_length_c       5.580867290496826
_cell_angle_alpha    117.50602170389851
_cell_angle_beta     89.8433162332875
_cell_angle_gamma    90.95951793233766

_space_group_name_H-M_alt    "P 1"
_space_group_IT_number       1

loop_
  _space_group_symop_operation_xyz
  'x, y, z'

loop_
  _atom_site_type_symbol
  _atom_site_label
  _atom_site_symmetry_multiplicity
  _atom_site_fract_x
  _atom_site_fract_y
  _atom_site_fract_z
  _atom_site_occupancy
  B   B1        1.0  0.8366142511367798  0.5390041470527649  0.25238233804702753  1.0000
  B   B2        1.0  0.08342909067869186  0.19393526017665863  0.7723509669303894  1.0000
  B   B3        1.0  0.5937677025794983  0.22786027193069458  0.7834122180938721  1.0000
  B   B4        1.0  0.08026322722434998  0.24046123027801514  0.9196763038635254  1.0000
  B   B5        1.0  0.8157072067260742  0.813352644443512  0.07970216870307922  1.0000
  Mo  Mo1       1.0  0.10292471945285797  0.8350821733474731  0.4026720821857452  1.0000
  Mo  Mo2       1.0  0.8167462944984436  0.5461854338645935  0.5764222145080566  1.0000
  Mo  Mo3       1.0  0.10891097784042358  0.029956737533211708  0.4310937821865082  1.0000
  Mo  Mo4       1.0  0.35127419233322144  0.551361083984375  0.13120028376579285  1.0000
  Mo  Mo5       1.0  0.5998983383178711  0.045046087354421616  0.8737944960594177  1.0000
