data_image0
_chemical_formula_structural       AsHI4O3P6RbZn
_chemical_formula_sum              "As1 H1 I4 O3 P6 Rb1 Zn1"
_cell_length_a       6.514870467467758
_cell_length_b       6.530513969428295
_cell_length_c       11.401717185974121
_cell_angle_alpha    106.94333548323681
_cell_angle_beta     90.85988632109684
_cell_angle_gamma    92.3019688600913

_space_group_name_H-M_alt    "P 1"
_space_group_IT_number       1

loop_
  _space_group_symop_operation_xyz
  'x, y, z'

loop_
  _atom_site_type_symbol
  _atom_site_label
  _atom_site_symmetry_multiplicity
  _atom_site_fract_x
  _atom_site_fract_y
  _atom_site_fract_z
  _atom_site_occupancy
  As  As1       1.0  0.18595001101493835  0.7333313226699829  0.8520318865776063  1.0000
  H   H1        1.0  0.18662309646606445  0.5094112157821655  0.25999507308006287  1.0000
  I   I1        1.0  0.18010181188583374  0.8523037433624268  0.6826720833778381  1.0000
  I   I2        1.0  0.6798830628395081  0.00899661798030138  0.04799186810851097  1.0000
  I   I3        1.0  0.18016645312309265  0.8326997756958008  0.3562391996383667  1.0000
  I   I4        1.0  0.6766580939292908  0.09958018362522125  0.9863499999046327  1.0000
  O   O1        1.0  0.1850995123386383  0.762997031211853  0.3351539075374603  1.0000
  O   O2        1.0  0.716323971748352  0.2641969323158264  0.9939461946487428  1.0000
  O   O3        1.0  0.5438396334648132  0.4671637713909149  0.13372039794921875  1.0000
  P   P1        1.0  0.18448783457279205  0.27606895565986633  0.32897502183914185  1.0000
  P   P2        1.0  0.6747459173202515  0.9798483848571777  0.9412253499031068  1.0000
  P   P3        1.0  0.18771719932556152  0.4784594476222992  0.6342239379882812  1.0000
  P   P4        1.0  0.6816933155059814  0.31189680099487305  0.2990465462207794  1.0000
  P   P5        1.0  0.18398870527744293  0.1927967667579651  0.1436436027288437  1.0000
  P   P6        1.0  0.6836382150650024  0.3738001883029938  0.5340439081192017  1.0000
  Rb  Rb1       1.0  0.6815981864929199  0.04798688739538193  0.07853107154369354  1.0000
  Zn  Zn1       1.0  0.6828616261482239  0.9885567426681519  0.2566521465778351  1.0000
