data_image0
_chemical_formula_structural       AsHI2O3P9Pb
_chemical_formula_sum              "As1 H1 I2 O3 P9 Pb1"
_cell_length_a       5.548156561872404
_cell_length_b       6.211711237321982
_cell_length_c       9.344120979309082
_cell_angle_alpha    92.50899584357106
_cell_angle_beta     92.16044566350742
_cell_angle_gamma    104.33371101981882

_space_group_name_H-M_alt    "P 1"
_space_group_IT_number       1

loop_
  _space_group_symop_operation_xyz
  'x, y, z'

loop_
  _atom_site_type_symbol
  _atom_site_label
  _atom_site_symmetry_multiplicity
  _atom_site_fract_x
  _atom_site_fract_y
  _atom_site_fract_z
  _atom_site_occupancy
  As  As1       1.0  0.8413668274879456  0.46731069684028625  0.7090297937393188  1.0000
  H   H1        1.0  0.7891691327095032  0.7101522088050842  0.1320510357618332  1.0000
  I   I1        1.0  0.43420273065567017  0.6664736270904541  0.03623359277844429  1.0000
  I   I2        1.0  0.4371972978115082  0.5260971784591675  0.47655171155929565  1.0000
  O   O1        1.0  0.8500760793685913  0.8254644274711609  0.13653576374053955  1.0000
  O   O2        1.0  0.25157222151756287  0.5680234432220459  0.5105310082435608  1.0000
  O   O3        1.0  0.9934664368629456  0.5527080297470093  0.8599337935447693  1.0000
  P   P1        1.0  0.3065430521965027  0.866076648235321  0.005079369992017746  1.0000
  P   P2        1.0  0.3507288694381714  0.6692005395889282  0.9296151995658875  1.0000
  P   P3        1.0  0.34684064984321594  0.22000499069690704  0.6425281167030334  1.0000
  P   P4        1.0  0.528907299041748  0.05566979944705963  0.6735353469848633  1.0000
  P   P5        1.0  0.850989818572998  0.21567782759666443  0.9780099987983704  1.0000
  P   P6        1.0  0.9756432771682739  0.893921434879303  0.5163816213607788  1.0000
  P   P7        1.0  0.5155895352363586  0.09256501495838165  0.4411722421646118  1.0000
  P   P8        1.0  0.45429354906082153  0.2468903809785843  0.9792067408561707  1.0000
  P   P9        1.0  0.9576560854911804  0.6443052291870117  0.775472104549408  1.0000
  Pb  Pb1       1.0  0.9582967162132263  0.776432454586029  0.5892001390457153  1.0000
