data_image0
_chemical_formula_structural       H3I2O4P7Tb
_chemical_formula_sum              "H3 I2 O4 P7 Tb1"
_cell_length_a       4.9041353087501465
_cell_length_b       5.3411447140835575
_cell_length_c       9.035107612609863
_cell_angle_alpha    90.17940201287693
_cell_angle_beta     90.47750817935685
_cell_angle_gamma    87.54698333272692

_space_group_name_H-M_alt    "P 1"
_space_group_IT_number       1

loop_
  _space_group_symop_operation_xyz
  'x, y, z'

loop_
  _atom_site_type_symbol
  _atom_site_label
  _atom_site_symmetry_multiplicity
  _atom_site_fract_x
  _atom_site_fract_y
  _atom_site_fract_z
  _atom_site_occupancy
  H   H1        1.0  0.4873533844947815  0.26671040058135986  0.4697016775608063  1.0000
  H   H2        1.0  0.11360372602939606  0.3094360828399658  0.48662805557250977  1.0000
  H   H3        1.0  0.11145715415477753  0.5868621468544006  0.43833309412002563  1.0000
  I   I1        1.0  0.6269544363021851  0.6166970729827881  0.16179905831813812  1.0000
  I   I2        1.0  0.619519054889679  0.47630882263183594  0.22373399138450623  1.0000
  O   O1        1.0  0.15466636419296265  0.7739872336387634  0.9267061948776245  1.0000
  O   O2        1.0  0.034807007759809494  0.21155039966106415  0.638869047164917  1.0000
  O   O3        1.0  0.3020215332508087  0.3405052125453949  0.8860540986061096  1.0000
  O   O4        1.0  0.6551101207733154  0.03438683599233627  0.3255326449871063  1.0000
  P   P1        1.0  0.5973430275917053  0.25512513518333435  0.5465985536575317  1.0000
  P   P2        1.0  0.025170596316456795  0.28526613116264343  0.2481478750705719  1.0000
  P   P3        1.0  0.6270918250083923  0.10089268535375595  0.7816570401191711  1.0000
  P   P4        1.0  0.09520332515239716  0.5539202094078064  0.8829099535942078  1.0000
  P   P5        1.0  0.6099934577941895  0.5931119322776794  0.3238658308982849  1.0000
  P   P6        1.0  0.6392344832420349  0.808961808681488  0.8788509964942932  1.0000
  P   P7        1.0  0.1067681685090065  0.8331485390663147  0.3013441860675812  1.0000
  Tb  Tb1       1.0  0.11215300858020782  0.22362536191940308  0.7925490140914917  1.0000
