data_image0
_chemical_formula_structural       AsH3I2O7P4
_chemical_formula_sum              "As1 H3 I2 O7 P4"
_cell_length_a       6.76469803751768
_cell_length_b       6.975538538416081
_cell_length_c       7.47894811630249
_cell_angle_alpha    111.78638751014664
_cell_angle_beta     106.45999535796746
_cell_angle_gamma    108.94392469774948

_space_group_name_H-M_alt    "P 1"
_space_group_IT_number       1

loop_
  _space_group_symop_operation_xyz
  'x, y, z'

loop_
  _atom_site_type_symbol
  _atom_site_label
  _atom_site_symmetry_multiplicity
  _atom_site_fract_x
  _atom_site_fract_y
  _atom_site_fract_z
  _atom_site_occupancy
  As  As1       1.0  0.4442612528800965  0.6114903092384338  0.9510440826416015  1.0000
  H   H1        1.0  0.45752871036529547  0.33791157603263855  0.2058669775724411  1.0000
  H   H2        1.0  0.5439273118972778  0.005000428296625614  0.08544124662876128  1.0000
  H   H3        1.0  0.5188496708869934  0.8063826560974121  0.7229741811752318  1.0000
  I   I1        1.0  0.958911418914795  0.6765608787536621  0.14229439198970795  1.0000
  I   I2        1.0  0.3040565550327301  0.12609411776065826  0.10778179764747618  1.0000
  O   O1        1.0  0.5111745595932007  0.025392958894371986  0.997456133365631  1.0000
  O   O2        1.0  0.7347832918167114  0.5590690970420837  0.10406528413295744  1.0000
  O   O3        1.0  0.05320129171013833  0.318562775850296  0.5612614154815674  1.0000
  O   O4        1.0  0.3064732253551483  0.9390013813972473  0.4170087575912475  1.0000
  O   O5        1.0  0.0335468165576458  0.9813482165336609  0.3864020407199859  1.0000
  O   O6        1.0  0.016705293208360672  0.8746076226234436  0.349320501089096  1.0000
  O   O7        1.0  0.5571183562278748  0.356903076171875  0.22996050119400022  1.0000
  P   P1        1.0  0.9268170595169068  0.9565944075584412  0.23063495755195615  1.0000
  P   P2        1.0  0.3061925768852234  0.8821362257003784  0.9868801832199096  1.0000
  P   P3        1.0  0.30894091725349426  0.9363046288490295  0.6287559270858764  1.0000
  P   P4        1.0  0.47414001822471624  0.24254055321216583  0.33833405375480646  1.0000
