data_image0
_chemical_formula_structural       AsF2HI2O4P5PbZn
_chemical_formula_sum              "As1 F2 H1 I2 O4 P5 Pb1 Zn1"
_cell_length_a       5.750419498640436
_cell_length_b       5.363130328388017
_cell_length_c       7.939962863922119
_cell_angle_alpha    113.26571177676078
_cell_angle_beta     107.16836822877865
_cell_angle_gamma    117.73742998600729

_space_group_name_H-M_alt    "P 1"
_space_group_IT_number       1

loop_
  _space_group_symop_operation_xyz
  'x, y, z'

loop_
  _atom_site_type_symbol
  _atom_site_label
  _atom_site_symmetry_multiplicity
  _atom_site_fract_x
  _atom_site_fract_y
  _atom_site_fract_z
  _atom_site_occupancy
  As  As1       1.0  0.10135028511285782  0.34027713537216187  0.6367440819740295  1.0000
  F   F1        1.0  0.13372932374477386  0.6544116735458374  0.0511442124843598  1.0000
  F   F2        1.0  0.6312530636787415  0.49211159348487854  0.39175695180892944  1.0000
  H   H1        1.0  0.002516454318538308  0.19927576184272766  0.9704504013061523  1.0000
  I   I1        1.0  0.8734618425369263  0.17102612555027008  0.0010063692461699388  1.0000
  I   I2        1.0  0.5395750403404236  0.10803190618753433  0.5511422753334045  1.0000
  O   O1        1.0  0.6654363870620728  0.22022706270217896  0.5285465121269226  1.0000
  O   O2        1.0  0.49081581830978394  0.33931249380111694  0.2760339379310608  1.0000
  O   O3        1.0  0.6274595856666565  0.9940429925918579  0.41810789704322815  1.0000
  O   O4        1.0  0.13563910126686096  0.5650852918624878  0.562216579914093  1.0000
  P   P1        1.0  0.009815560653805733  0.027683503925800323  0.7962803840637207  1.0000
  P   P2        1.0  0.4090590178966522  0.3390797972679138  0.046977195888757706  1.0000
  P   P3        1.0  0.050554998219013214  0.5927132964134216  0.8936270475387573  1.0000
  P   P4        1.0  0.15551839768886566  0.6029650568962097  0.5452663898468018  1.0000
  P   P5        1.0  0.5417798161506653  0.436888188123703  0.8312199115753174  1.0000
  Pb  Pb1       1.0  0.617859423160553  0.25863391160964966  0.0069098919630050945  1.0000
  Zn  Zn1       1.0  0.00667369132861495  0.6735305786132812  0.4663245975971222  1.0000
