data_image0
_chemical_formula_structural       As2H4IO6P4
_chemical_formula_sum              "As2 H4 I1 O6 P4"
_cell_length_a       5.504768897066131
_cell_length_b       5.624249920734886
_cell_length_c       8.122986793518066
_cell_angle_alpha    89.71402805257593
_cell_angle_beta     89.7290307222109
_cell_angle_gamma    99.55775872372891

_space_group_name_H-M_alt    "P 1"
_space_group_IT_number       1

loop_
  _space_group_symop_operation_xyz
  'x, y, z'

loop_
  _atom_site_type_symbol
  _atom_site_label
  _atom_site_symmetry_multiplicity
  _atom_site_fract_x
  _atom_site_fract_y
  _atom_site_fract_z
  _atom_site_occupancy
  As  As1       1.0  0.4656639099121094  0.668908953666687  0.5597337484359741  1.0000
  As  As2       1.0  0.9938730001449585  0.958229660987854  0.36139485239982605  1.0000
  H   H1        1.0  0.6576164960861206  0.5127182006835938  0.21275515854358673  1.0000
  H   H2        1.0  0.4546706974506378  0.43439781665802  0.037778340280056  1.0000
  H   H3        1.0  0.5193094611167908  0.8977570533752441  0.6994297504425049  1.0000
  H   H4        1.0  0.24332195520401  0.36618563532829285  0.13962145149707794  1.0000
  I   I1        1.0  0.4824908673763275  0.3889436721801758  0.4919857382774353  1.0000
  O   O1        1.0  0.2731313705444336  0.4823366403579712  0.7367836236953735  1.0000
  O   O2        1.0  0.7183001041412354  0.27933886647224426  0.08117466419935226  1.0000
  O   O3        1.0  0.3166911005973816  0.6175264120101929  0.35135388374328613  1.0000
  O   O4        1.0  0.3241647183895111  0.5023810267448425  0.5235385894775391  1.0000
  O   O5        1.0  0.5255372524261475  0.15033288300037384  0.9293139576911926  1.0000
  O   O6        1.0  0.8946164846420288  0.5787442922592163  0.8299113512039185  1.0000
  P   P1        1.0  0.002743626246228814  0.4658496379852295  0.3497941792011261  1.0000
  P   P2        1.0  0.9334700107574463  0.16678555309772491  0.9201213121414185  1.0000
  P   P3        1.0  0.0231345035135746  0.8439475297927856  0.14295168220996857  1.0000
  P   P4        1.0  0.9764694571495056  0.39725130796432495  0.8105586767196655  1.0000
