data_image0
_chemical_formula_structural       Co2GeI6P2Pt2SbTi
_chemical_formula_sum              "Co2 Ge1 I6 P2 Pt2 Sb1 Ti1"
_cell_length_a       7.009506866274111
_cell_length_b       8.62536137757856
_cell_length_c       9.020193099975586
_cell_angle_alpha    122.9521428965241
_cell_angle_beta     100.42273158780915
_cell_angle_gamma    88.83159363038958

_space_group_name_H-M_alt    "P 1"
_space_group_IT_number       1

loop_
  _space_group_symop_operation_xyz
  'x, y, z'

loop_
  _atom_site_type_symbol
  _atom_site_label
  _atom_site_symmetry_multiplicity
  _atom_site_fract_x
  _atom_site_fract_y
  _atom_site_fract_z
  _atom_site_occupancy
  Co  Co1       1.0  0.16611750423908234  0.49370273947715754  0.005617869552224825  1.0000
  Co  Co2       1.0  0.6845318078994751  0.6475343108177185  0.9075493812561035  1.0000
  Ge  Ge1       1.0  0.19127769768238068  0.6023247838020325  0.30802989006042475  1.0000
  I   I1        1.0  0.17598621547222137  0.3520120084285736  0.9724966883659363  1.0000
  I   I2        1.0  0.17223434150218964  0.38440036773681635  0.022656172513961743  1.0000
  I   I3        1.0  0.6683527827262878  0.7328454852104186  0.9285714626312256  1.0000
  I   I4        1.0  0.17531773447990417  0.061051309108734124  0.6731643676757812  1.0000
  I   I5        1.0  0.1721186637878418  0.48486468195915217  0.6610783338546753  1.0000
  I   I6        1.0  0.6749674081802368  0.4505773484706878  0.21594385802745814  1.0000
  P   P1        1.0  0.7002649903297424  0.81764018535614  0.2944507002830504  1.0000
  P   P2        1.0  0.19394318759441376  0.013253389857709406  0.22773322463035583  1.0000
  Pt  Pt1       1.0  0.6886482238769531  0.7937563061714171  0.02661665715277185  1.0000
  Pt  Pt2       1.0  0.6826260685920715  0.624064028263092  0.006925592198967884  1.0000
  Sb  Sb1       1.0  0.5382987260818481  0.8542625904083251  0.4275582134723662  1.0000
  Ti  Ti1       1.0  0.16940948367118835  0.5229436159133911  0.1287295818328857  1.0000
