data_image0
_chemical_formula_structural       Co2FI5PPt3Sb2Se
_chemical_formula_sum              "Co2 F1 I5 P1 Pt3 Sb2 Se1"
_cell_length_a       7.509140142541024
_cell_length_b       9.476651707963294
_cell_length_c       9.923097610473633
_cell_angle_alpha    119.67281735667687
_cell_angle_beta     90.75225230795643
_cell_angle_gamma    90.62264386575232

_space_group_name_H-M_alt    "P 1"
_space_group_IT_number       1

loop_
  _space_group_symop_operation_xyz
  'x, y, z'

loop_
  _atom_site_type_symbol
  _atom_site_label
  _atom_site_symmetry_multiplicity
  _atom_site_fract_x
  _atom_site_fract_y
  _atom_site_fract_z
  _atom_site_occupancy
  Co  Co1       1.0  0.27313533425331116  0.38487181067466736  0.13806071877479556  1.0000
  Co  Co2       1.0  0.768182337284088  0.43551236391067505  0.9040607213973999  1.0000
  F   F1        1.0  0.7538494467735289  0.1829426884651184  0.5049170851707458  1.0000
  I   I1        1.0  0.7759776115417479  0.05947950482368469  0.2509785294532776  1.0000
  I   I2        1.0  0.26642298698425293  0.46568650007247925  0.9472965002059937  1.0000
  I   I3        1.0  0.7659008502960204  0.6994081735610962  0.06418335437774662  1.0000
  I   I4        1.0  0.26988691091537476  0.015492909587919712  0.669973611831665  1.0000
  I   I5        1.0  0.26762640476226807  0.10877369344234467  0.9832123517990112  1.0000
  P   P1        1.0  0.27055710554122925  0.9391881823539734  0.6385003328323364  1.0000
  Pt  Pt1       1.0  0.271861732006073  0.14898350834846497  0.03922023251652718  1.0000
  Pt  Pt2       1.0  0.7681997418403624  0.4442138969898224  0.8896233439445496  1.0000
  Pt  Pt3       1.0  0.7682408094406127  0.5569568276405334  0.42367035150527954  1.0000
  Sb  Sb1       1.0  0.2713814675807953  0.6159337162971497  0.4020986557006836  1.0000
  Sb  Sb2       1.0  0.2692044973373413  0.1463148146867752  0.8397341370582581  1.0000
  Se  Se1       1.0  0.7737871408462523  0.09994396567344666  0.46821650862693787  1.0000
