data_image0
_chemical_formula_structural       CuRbTa7Te6
_chemical_formula_sum              "Cu1 Rb1 Ta7 Te6"
_cell_length_a       5.630694230513644
_cell_length_b       6.6762600480458545
_cell_length_c       11.802467346191406
_cell_angle_alpha    90.96635601979784
_cell_angle_beta     90.7719246311176
_cell_angle_gamma    90.39935023767734

_space_group_name_H-M_alt    "P 1"
_space_group_IT_number       1

loop_
  _space_group_symop_operation_xyz
  'x, y, z'

loop_
  _atom_site_type_symbol
  _atom_site_label
  _atom_site_symmetry_multiplicity
  _atom_site_fract_x
  _atom_site_fract_y
  _atom_site_fract_z
  _atom_site_occupancy
  Cu  Cu1       1.0  0.4289057254791259  0.5542352199554443  0.9905913472175599  1.0000
  Rb  Rb1       1.0  0.9323751926422118  0.559119701385498  0.5953267812728882  1.0000
  Ta  Ta1       1.0  0.9371538162231444  0.0944487676024437  0.9536694884300233  1.0000
  Ta  Ta2       1.0  0.9431082606315612  0.5580501556396484  0.8642211556434632  1.0000
  Ta  Ta3       1.0  0.8686111569404601  0.45391595363616943  0.07176124304533005  1.0000
  Ta  Ta4       1.0  0.4373779892921447  0.08311977237462997  0.9368901848793031  1.0000
  Ta  Ta5       1.0  0.9290699362754821  0.4075115919113159  0.10600674897432329  1.0000
  Ta  Ta6       1.0  0.9380995631217955  0.2348978966474533  0.9873040914535524  1.0000
  Ta  Ta7       1.0  0.8863118886947631  0.5502633452415466  0.28970780968666077  1.0000
  Te  Te1       1.0  0.9197236895561217  0.4826664328575134  0.9115349650382997  1.0000
  Te  Te2       1.0  0.43695265054702753  0.617911159992218  0.5489365458488464  1.0000
  Te  Te3       1.0  0.41637387871742243  0.6953808665275574  0.05680936202406884  1.0000
  Te  Te4       1.0  0.9332614541053771  0.8009058237075806  0.49791121482849127  1.0000
  Te  Te5       1.0  0.4362307488918304  0.9217934608459473  0.5023614168167114  1.0000
  Te  Te6       1.0  0.42784386873245234  0.7838420867919922  0.005999627988785506  1.0000
