data_image0
_chemical_formula_structural       Ca2Co2GaI3PPbPt2SeTa2
_chemical_formula_sum              "Ca2 Co2 Ga1 I3 P1 Pb1 Pt2 Se1 Ta2"
_cell_length_a       7.135228156757934
_cell_length_b       7.009736785884698
_cell_length_c       8.162837028503418
_cell_angle_alpha    111.92853912900976
_cell_angle_beta     112.63822939996764
_cell_angle_gamma    90.75162433176105

_space_group_name_H-M_alt    "P 1"
_space_group_IT_number       1

loop_
  _space_group_symop_operation_xyz
  'x, y, z'

loop_
  _atom_site_type_symbol
  _atom_site_label
  _atom_site_symmetry_multiplicity
  _atom_site_fract_x
  _atom_site_fract_y
  _atom_site_fract_z
  _atom_site_occupancy
  Ca  Ca1       1.0  0.009683148004114628  0.4424862861633301  0.06053033471107483  1.0000
  Ca  Ca2       1.0  0.7449151277542114  0.2459198236465454  0.7655248045921326  1.0000
  Co  Co1       1.0  0.13507486879825592  0.5506716370582581  0.8661633133888245  1.0000
  Co  Co2       1.0  0.47632420063018804  0.6534633636474609  0.19886207580566412  1.0000
  Ga  Ga1       1.0  0.23409213125705722  0.46774953603744507  0.8681190609931946  1.0000
  I   I1        1.0  0.2616862654685974  0.7390954494476318  0.6854124665260315  1.0000
  I   I2        1.0  0.7517913579940796  0.32535651326179504  0.26057589054107666  1.0000
  I   I3        1.0  0.24565306305885318  0.677829921245575  0.5150105953216553  1.0000
  P   P1        1.0  0.7422291040420532  0.9500729441642761  0.738272488117218  1.0000
  Pb  Pb1       1.0  0.7614251375198364  0.14016857743263245  0.9480859637260437  1.0000
  Pt  Pt1       1.0  0.24792177975177768  0.4176301062107086  0.5063629746437073  1.0000
  Pt  Pt2       1.0  0.006617858074605465  0.7438039779663086  0.3746350407600403  1.0000
  Se  Se1       1.0  0.24819754064083102  0.9846085906028748  0.5831011533737183  1.0000
  Ta  Ta1       1.0  0.5576985478401184  0.3614634573459625  0.4796258807182312  1.0000
  Ta  Ta2       1.0  0.289515882730484  0.3478851020336151  0.1769058406352997  1.0000
