data_image0
_chemical_formula_structural       Cu3Ta7Te5
_chemical_formula_sum              "Cu3 Ta7 Te5"
_cell_length_a       5.491310511346337
_cell_length_b       5.271065607959015
_cell_length_c       10.292730331420898
_cell_angle_alpha    103.72026516152782
_cell_angle_beta     97.3433855274645
_cell_angle_gamma    101.21304667427023

_space_group_name_H-M_alt    "P 1"
_space_group_IT_number       1

loop_
  _space_group_symop_operation_xyz
  'x, y, z'

loop_
  _atom_site_type_symbol
  _atom_site_label
  _atom_site_symmetry_multiplicity
  _atom_site_fract_x
  _atom_site_fract_y
  _atom_site_fract_z
  _atom_site_occupancy
  Cu  Cu1       1.0  0.6178120374679565  0.6626760363578796  0.20622886717319489  1.0000
  Cu  Cu2       1.0  0.8809605836868286  0.8837992548942566  0.8537168502807617  1.0000
  Cu  Cu3       1.0  0.6376737356185913  0.3509233295917511  0.025042176246643066  1.0000
  Ta  Ta1       1.0  0.6155388355255127  0.6070392727851868  0.04750235751271248  1.0000
  Ta  Ta2       1.0  0.09869588166475296  0.010995174758136272  0.12865503132343292  1.0000
  Ta  Ta3       1.0  0.10508478432893753  0.521933913230896  0.9303162097930908  1.0000
  Ta  Ta4       1.0  0.14023901522159576  0.994092583656311  0.6614656448364258  1.0000
  Ta  Ta5       1.0  0.5752030611038208  0.6179919242858887  0.47512108087539673  1.0000
  Ta  Ta6       1.0  0.861923336982727  0.7030730247497559  0.5786357522010803  1.0000
  Ta  Ta7       1.0  0.12572872638702393  0.49734821915626526  0.8284294605255127  1.0000
  Te  Te1       1.0  0.8772403001785278  0.26025715470314026  0.36417514085769653  1.0000
  Te  Te2       1.0  0.11634979397058487  0.9836955070495605  0.7526863217353821  1.0000
  Te  Te3       1.0  0.37104514241218567  0.3985104262828827  0.2632012367248535  1.0000
  Te  Te4       1.0  0.3946637213230133  0.06673743575811386  0.10800560563802719  1.0000
  Te  Te5       1.0  0.13146452605724335  0.664003849029541  0.8349593877792358  1.0000
