data_image0
_chemical_formula_structural       CaCoI4P3Pt4SbTe
_chemical_formula_sum              "Ca1 Co1 I4 P3 Pt4 Sb1 Te1"
_cell_length_a       7.0695929619142825
_cell_length_b       7.652487189273396
_cell_length_c       8.415081024169922
_cell_angle_alpha    103.86490688406637
_cell_angle_beta     105.50992755103213
_cell_angle_gamma    90.4238437075479

_space_group_name_H-M_alt    "P 1"
_space_group_IT_number       1

loop_
  _space_group_symop_operation_xyz
  'x, y, z'

loop_
  _atom_site_type_symbol
  _atom_site_label
  _atom_site_symmetry_multiplicity
  _atom_site_fract_x
  _atom_site_fract_y
  _atom_site_fract_z
  _atom_site_occupancy
  Ca  Ca1       1.0  0.8892534375190735  0.9064034223556519  0.5414708256721497  1.0000
  Co  Co1       1.0  0.84861159324646  0.15380695462226868  0.7692995667457581  1.0000
  I   I1        1.0  0.9898502230644226  0.13594233989715576  0.9578155875205994  1.0000
  I   I2        1.0  0.8961546421051025  0.3425610363483429  0.8333056569099426  1.0000
  I   I3        1.0  0.3432530462741852  0.8475179076194763  0.008287712000310421  1.0000
  I   I4        1.0  0.329623281955719  0.8921815156936646  0.625873327255249  1.0000
  P   P1        1.0  0.41849783062934875  0.009193751960992813  0.8899818062782288  1.0000
  P   P2        1.0  0.6182265877723694  0.8129557967185974  0.37063583731651306  1.0000
  P   P3        1.0  0.5078410506248474  0.9691130518913269  0.21964451670646667  1.0000
  Pt  Pt1       1.0  0.5812808275222778  0.5109952688217163  0.1968918889760971  1.0000
  Pt  Pt2       1.0  0.9789127707481384  0.5200749039649963  0.9486676454544067  1.0000
  Pt  Pt3       1.0  0.29836899042129517  0.7358529567718506  0.16684925556182859  1.0000
  Pt  Pt4       1.0  0.4749903082847595  0.12383861839771271  0.009635907597839832  1.0000
  Sb  Sb1       1.0  0.38476598262786865  0.865416407585144  0.8120923042297363  1.0000
  Te  Te1       1.0  0.9564647078514099  0.17263451218605042  0.5435815453529358  1.0000
