data_image0
_chemical_formula_structural       Ge5H
_chemical_formula_sum              "Ge5 H1"
_cell_length_a       4.51243339769295
_cell_length_b       3.8980465087835685
_cell_length_c       5.7345685958862305
_cell_angle_alpha    99.4851960424745
_cell_angle_beta     107.16875451052074
_cell_angle_gamma    126.78834502492285

_space_group_name_H-M_alt    "P 1"
_space_group_IT_number       1

loop_
  _space_group_symop_operation_xyz
  'x, y, z'

loop_
  _atom_site_type_symbol
  _atom_site_label
  _atom_site_symmetry_multiplicity
  _atom_site_fract_x
  _atom_site_fract_y
  _atom_site_fract_z
  _atom_site_occupancy
  Ge  Ge1       1.0  0.9102473258972168  0.24484799802303314  0.4095034897327423  1.0000
  Ge  Ge2       1.0  0.12119483947753906  0.11225613206624985  0.7517755627632141  1.0000
  Ge  Ge3       1.0  0.650929868221283  0.7102864384651184  0.1526066213846206  1.0000
  Ge  Ge4       1.0  0.1298435628414154  0.32049357891082764  0.19262340664863586  1.0000
  Ge  Ge5       1.0  0.09737519919872284  0.953612208366394  0.8820862770080566  1.0000
  H   H1        1.0  0.18723498284816742  0.07840176671743393  0.7482264637947083  1.0000
