data_image0
_chemical_formula_structural       HRuS6ScSi
_chemical_formula_sum              "H1 Ru1 S6 Sc1 Si1"
_cell_length_a       6.554579361178358
_cell_length_b       6.914037566342528
_cell_length_c       7.485256195068359
_cell_angle_alpha    67.2343137664959
_cell_angle_beta     63.762365691273345
_cell_angle_gamma    62.02390059586365

_space_group_name_H-M_alt    "P 1"
_space_group_IT_number       1

loop_
  _space_group_symop_operation_xyz
  'x, y, z'

loop_
  _atom_site_type_symbol
  _atom_site_label
  _atom_site_symmetry_multiplicity
  _atom_site_fract_x
  _atom_site_fract_y
  _atom_site_fract_z
  _atom_site_occupancy
  H   H1        1.0  0.05488106235861778  0.09630318731069565  0.7173643112182616  1.0000
  Ru  Ru1       1.0  0.45902228355407715  0.5441694855690002  0.9653985500335692  1.0000
  S   S1        1.0  0.35814639925956726  0.07147499918937683  0.8689909577369689  1.0000
  S   S2        1.0  0.06963448971509933  0.5745736956596375  0.07135839760303497  1.0000
  S   S3        1.0  0.7116544246673584  0.2222580909729004  0.07110339403152466  1.0000
  S   S4        1.0  0.662939190864563  0.06393005698919296  0.33031788468360895  1.0000
  S   S5        1.0  0.10889148712158203  0.12438172847032547  0.3196598291397095  1.0000
  S   S6        1.0  0.21772851049900055  0.7332406044006348  0.5649186372756958  1.0000
  Sc  Sc1       1.0  0.21629588305950165  0.4872828423976898  0.5747625231742859  1.0000
  Si  Si1       1.0  0.801740825176239  0.9840725660324097  0.2250595688819885  1.0000
