data_image0
_chemical_formula_structural       HS5ScSi3
_chemical_formula_sum              "H1 S5 Sc1 Si3"
_cell_length_a       5.545782861493183
_cell_length_b       7.118220178973688
_cell_length_c       8.125925064086914
_cell_angle_alpha    95.26992675513509
_cell_angle_beta     92.19628545264145
_cell_angle_gamma    90.01937346513647

_space_group_name_H-M_alt    "P 1"
_space_group_IT_number       1

loop_
  _space_group_symop_operation_xyz
  'x, y, z'

loop_
  _atom_site_type_symbol
  _atom_site_label
  _atom_site_symmetry_multiplicity
  _atom_site_fract_x
  _atom_site_fract_y
  _atom_site_fract_z
  _atom_site_occupancy
  H   H1        1.0  0.08446282148361206  0.25865572690963745  0.19330014288425446  1.0000
  S   S1        1.0  0.8415721654891968  0.7362703084945679  0.7220715284347534  1.0000
  S   S2        1.0  0.3184301257133484  0.938789963722229  0.7773820161819458  1.0000
  S   S3        1.0  0.6760621070861816  0.9094361662864685  0.4190036356449127  1.0000
  S   S4        1.0  0.30963754653930664  0.45182523131370544  0.10873289406299591  1.0000
  S   S5        1.0  0.15937016904354095  0.3995205760002136  0.5237411260604858  1.0000
  Sc  Sc1       1.0  0.9426749348640442  0.3147242069244385  0.17565913498401642  1.0000
  Si  Si1       1.0  0.6747703552246094  0.4980548620223999  0.2834455072879791  1.0000
  Si  Si2       1.0  0.16812527179718018  0.5458089709281921  0.6385499835014343  1.0000
  Si  Si3       1.0  0.4445725381374359  0.805742621421814  0.9409592747688293  1.0000
