data_image0
_chemical_formula_structural       RhS3SbSi3Sr2
_chemical_formula_sum              "Rh1 S3 Sb1 Si3 Sr2"
_cell_length_a       9.03413443766124
_cell_length_b       9.175044657996281
_cell_length_c       8.992006301879883
_cell_angle_alpha    62.00505463950237
_cell_angle_beta     61.78361561944238
_cell_angle_gamma    62.06999118893768

_space_group_name_H-M_alt    "P 1"
_space_group_IT_number       1

loop_
  _space_group_symop_operation_xyz
  'x, y, z'

loop_
  _atom_site_type_symbol
  _atom_site_label
  _atom_site_symmetry_multiplicity
  _atom_site_fract_x
  _atom_site_fract_y
  _atom_site_fract_z
  _atom_site_occupancy
  Rh  Rh1       1.0  0.8339177370071412  0.632720410823822  0.40026941895484913  1.0000
  S   S1        1.0  0.6638289690017701  0.5741971135139465  0.39573216438293446  1.0000
  S   S2        1.0  0.49891957640647894  0.3649730384349823  0.05603875964879985  1.0000
  S   S3        1.0  0.8223236203193666  0.6354871392250061  0.876518428325653  1.0000
  Sb  Sb1       1.0  0.3287854194641114  0.14705756306648254  0.8677064180374146  1.0000
  Si  Si1       1.0  0.6012527346611023  0.5414651036262512  0.043164510279893875  1.0000
  Si  Si2       1.0  0.5835080742835999  0.5459354519844055  0.05350489169359207  1.0000
  Si  Si3       1.0  0.6513735651969911  0.4071114957332611  0.8493973612785338  1.0000
  Sr  Sr1       1.0  0.37861299514770513  0.1637919843196869  0.5572481751441956  1.0000
  Sr  Sr2       1.0  0.8938457965850831  0.8652231693267822  0.8841689229011535  1.0000
