data_image0
_chemical_formula_structural       FeHfMoRhS4SbSr
_chemical_formula_sum              "Fe1 Hf1 Mo1 Rh1 S4 Sb1 Sr1"
_cell_length_a       6.5006233497560695
_cell_length_b       6.643153809306937
_cell_length_c       6.793230056762695
_cell_angle_alpha    65.10587844015436
_cell_angle_beta     62.90176309162148
_cell_angle_gamma    60.823432455528675

_space_group_name_H-M_alt    "P 1"
_space_group_IT_number       1

loop_
  _space_group_symop_operation_xyz
  'x, y, z'

loop_
  _atom_site_type_symbol
  _atom_site_label
  _atom_site_symmetry_multiplicity
  _atom_site_fract_x
  _atom_site_fract_y
  _atom_site_fract_z
  _atom_site_occupancy
  Fe  Fe1       1.0  0.4154006540775299  0.7138867378234863  0.35465168952941895  1.0000
  Hf  Hf1       1.0  0.02634516917169093  0.20261949300765994  0.7188693881034851  1.0000
  Mo  Mo1       1.0  0.8335016965866089  0.5862005949020386  0.04173758253455162  1.0000
  Rh  Rh1       1.0  0.013875213451683443  0.9286343455314637  0.3584403991699218  1.0000
  S   S1        1.0  0.33647614717483515  0.8899177312850953  0.04001091048121452  1.0000
  S   S2        1.0  0.7004194855690002  0.9048199057579042  0.8382382988929749  1.0000
  S   S3        1.0  0.19618020951747894  0.39146482944488525  0.5936887860298157  1.0000
  S   S4        1.0  0.6758919954299927  0.22491417825222018  0.3712258040904999  1.0000
  Sb  Sb1       1.0  0.0021915435791015434  0.42248249053955084  0.38003507256507874  1.0000
  Sr  Sr1       1.0  0.6931222677230835  0.9875957369804383  0.35916993021965027  1.0000
