data_image0
_chemical_formula_structural       H2MnS3ScSiSr2
_chemical_formula_sum              "H2 Mn1 S3 Sc1 Si1 Sr2"
_cell_length_a       6.6137048065251784
_cell_length_b       7.057317762739782
_cell_length_c       7.528212070465088
_cell_angle_alpha    64.44477446939568
_cell_angle_beta     64.26215097651932
_cell_angle_gamma    63.65856930672476

_space_group_name_H-M_alt    "P 1"
_space_group_IT_number       1

loop_
  _space_group_symop_operation_xyz
  'x, y, z'

loop_
  _atom_site_type_symbol
  _atom_site_label
  _atom_site_symmetry_multiplicity
  _atom_site_fract_x
  _atom_site_fract_y
  _atom_site_fract_z
  _atom_site_occupancy
  H   H1        1.0  0.7602851986885071  0.06573622673749924  0.8239704966545105  1.0000
  H   H2        1.0  0.2885795533657074  0.3122107684612274  0.4987731873989105  1.0000
  Mn  Mn1       1.0  0.3291116952896118  0.5567705035209656  0.24346520006656647  1.0000
  S   S1        1.0  0.2337876707315445  0.04737222567200661  0.8155786395072937  1.0000
  S   S2        1.0  0.7308911085128784  0.0529964342713356  0.597480058670044  1.0000
  S   S3        1.0  0.7241924405097961  0.4910229742527008  0.831974446773529  1.0000
  Sc  Sc1       1.0  0.05579004064202309  0.46627333760261536  0.4644368290901184  1.0000
  Si  Si1       1.0  0.22836606204509735  0.8028838634490967  0.7217900156974792  1.0000
  Sr  Sr1       1.0  0.6311430931091309  0.08708200603723526  0.07431203126907349  1.0000
  Sr  Sr2       1.0  0.30878961086273193  0.6692985892295837  0.7798984050750732  1.0000
