data_image0
_chemical_formula_structural       FeH2Rh2S3SmTl
_chemical_formula_sum              "Fe1 H2 Rh2 S3 Sm1 Tl1"
_cell_length_a       5.750789436183497
_cell_length_b       5.776526366070569
_cell_length_c       6.7633490562438965
_cell_angle_alpha    91.98846892582436
_cell_angle_beta     89.38066957880487
_cell_angle_gamma    88.77930765857414

_space_group_name_H-M_alt    "P 1"
_space_group_IT_number       1

loop_
  _space_group_symop_operation_xyz
  'x, y, z'

loop_
  _atom_site_type_symbol
  _atom_site_label
  _atom_site_symmetry_multiplicity
  _atom_site_fract_x
  _atom_site_fract_y
  _atom_site_fract_z
  _atom_site_occupancy
  Fe  Fe1       1.0  0.13562683761119843  0.4391014873981476  0.7072322964668274  1.0000
  H   H1        1.0  0.5642923712730408  0.021835466846823692  0.14547269046306613  1.0000
  H   H2        1.0  0.04226760193705559  0.5473798513412476  0.6342133283615112  1.0000
  Rh  Rh1       1.0  0.3685833811759949  0.9963762164115906  0.5137740969657898  1.0000
  Rh  Rh2       1.0  0.5859537124633789  0.495807945728302  0.9803673028945923  1.0000
  S   S1        1.0  0.16210661828517914  0.7182274460792542  0.937430739402771  1.0000
  S   S2        1.0  0.90064138174057  0.2183241993188858  0.5062739253044128  1.0000
  S   S3        1.0  0.6262044310569763  0.7024909853935242  0.7050564289093018  1.0000
  Sm  Sm1       1.0  0.7935240268707275  0.2924550771713257  0.7763693332672119  1.0000
  Tl  Tl1       1.0  0.31837040185928345  0.02431531436741352  0.20585361123085022  1.0000
