data_image0
_chemical_formula_structural       In4O6Te
_chemical_formula_sum              "In4 O6 Te1"
_cell_length_a       4.825795645307308
_cell_length_b       5.0896328044244745
_cell_length_c       9.957829475402832
_cell_angle_alpha    93.11758720833187
_cell_angle_beta     94.50901716444854
_cell_angle_gamma    116.36595338129445

_space_group_name_H-M_alt    "P 1"
_space_group_IT_number       1

loop_
  _space_group_symop_operation_xyz
  'x, y, z'

loop_
  _atom_site_type_symbol
  _atom_site_label
  _atom_site_symmetry_multiplicity
  _atom_site_fract_x
  _atom_site_fract_y
  _atom_site_fract_z
  _atom_site_occupancy
  In  In1       1.0  0.9720829725265503  0.5125306844711304  0.13450312614440918  1.0000
  In  In2       1.0  0.6489235162734985  0.8194261193275452  0.39431092143058777  1.0000
  In  In3       1.0  0.9590896964073181  0.5115511417388916  0.43791526556015015  1.0000
  In  In4       1.0  0.9879723787307739  0.005442261695861816  0.2332771271467209  1.0000
  O   O1        1.0  0.7973830699920654  0.501507043838501  0.4338826835155487  1.0000
  O   O2        1.0  0.6362916827201843  0.20876610279083252  0.9600570201873779  1.0000
  O   O3        1.0  0.1309424787759781  0.8488737344741821  0.7700640559196472  1.0000
  O   O4        1.0  0.9928422570228577  0.01571681536734104  0.9484919309616089  1.0000
  O   O5        1.0  0.30734869837760925  0.5071786642074585  0.8880137205123901  1.0000
  O   O6        1.0  0.29989978671073914  0.5107490420341492  0.3761444091796875  1.0000
  Te  Te1       1.0  0.461555540561676  0.5119290947914124  0.8682413697242737  1.0000
