data_image0
_chemical_formula_structural       CaIn3O5Te2
_chemical_formula_sum              "Ca1 In3 O5 Te2"
_cell_length_a       5.832034444011786
_cell_length_b       7.296911393422919
_cell_length_c       9.755078315734863
_cell_angle_alpha    101.09816713882299
_cell_angle_beta     90.41427026702002
_cell_angle_gamma    116.01035591947097

_space_group_name_H-M_alt    "P 1"
_space_group_IT_number       1

loop_
  _space_group_symop_operation_xyz
  'x, y, z'

loop_
  _atom_site_type_symbol
  _atom_site_label
  _atom_site_symmetry_multiplicity
  _atom_site_fract_x
  _atom_site_fract_y
  _atom_site_fract_z
  _atom_site_occupancy
  Ca  Ca1       1.0  0.6140662431716919  0.7436290383338928  0.4045969247817993  1.0000
  In  In1       1.0  0.48857989907264704  0.2889179289340973  0.6592497825622559  1.0000
  In  In2       1.0  0.41297236084938044  0.6891499757766724  0.1482805609703064  1.0000
  In  In3       1.0  0.12514308094978327  0.4679553806781768  0.27448856830596924  1.0000
  O   O1        1.0  0.7810353040695189  0.4155375659465789  0.6615211367607117  1.0000
  O   O2        1.0  0.10268510133028026  0.48474994301795954  0.541489839553833  1.0000
  O   O3        1.0  0.7982099652290343  0.20728851854801175  0.13998207449913025  1.0000
  O   O4        1.0  0.30740460753440857  0.02051370218396187  0.9202057123184204  1.0000
  O   O5        1.0  0.6082224249839783  0.7341089844703674  0.8703617453575134  1.0000
  Te  Te1       1.0  0.11837876588106154  0.33431896567344666  0.18290212750434875  1.0000
  Te  Te2       1.0  0.2699243426322936  0.9086101055145263  0.5836555361747742  1.0000
