data_image0
_chemical_formula_structural       In3O6Te2
_chemical_formula_sum              "In3 O6 Te2"
_cell_length_a       4.56153494410636
_cell_length_b       5.97038644452652
_cell_length_c       9.840643882751465
_cell_angle_alpha    100.94039684177837
_cell_angle_beta     88.8631201334659
_cell_angle_gamma    109.72784350453378

_space_group_name_H-M_alt    "P 1"
_space_group_IT_number       1

loop_
  _space_group_symop_operation_xyz
  'x, y, z'

loop_
  _atom_site_type_symbol
  _atom_site_label
  _atom_site_symmetry_multiplicity
  _atom_site_fract_x
  _atom_site_fract_y
  _atom_site_fract_z
  _atom_site_occupancy
  In  In1       1.0  0.7083871364593506  0.8878517150878906  0.07442120462656021  1.0000
  In  In2       1.0  0.3154311776161194  0.83025062084198  0.8542987704277039  1.0000
  In  In3       1.0  0.828911304473877  0.6558303236961365  0.8953503370285034  1.0000
  O   O1        1.0  0.6699612140655518  0.9664977788925171  0.9109936356544495  1.0000
  O   O2        1.0  0.18263882398605347  0.598800778388977  0.9865103960037231  1.0000
  O   O3        1.0  0.6734575629234314  0.6061317920684814  0.04922362416982651  1.0000
  O   O4        1.0  0.1942492425441742  0.11837208271026611  0.54709792137146  1.0000
  O   O5        1.0  0.6607711911201477  0.1393125355243683  0.041743140667676926  1.0000
  O   O6        1.0  0.5646436810493469  0.8188400864601135  0.3773730397224426  1.0000
  Te  Te1       1.0  0.31752443313598633  0.8788459897041321  0.4151458442211151  1.0000
  Te  Te2       1.0  0.8546788096427917  0.3640630543231964  0.5947428345680237  1.0000
