data_image0
_chemical_formula_structural       In2O7VZn
_chemical_formula_sum              "In2 O7 V1 Zn1"
_cell_length_a       4.851286264699407
_cell_length_b       5.147249558206952
_cell_length_c       10.362009048461914
_cell_angle_alpha    89.80033076762847
_cell_angle_beta     88.8719695047944
_cell_angle_gamma    109.74443977367928

_space_group_name_H-M_alt    "P 1"
_space_group_IT_number       1

loop_
  _space_group_symop_operation_xyz
  'x, y, z'

loop_
  _atom_site_type_symbol
  _atom_site_label
  _atom_site_symmetry_multiplicity
  _atom_site_fract_x
  _atom_site_fract_y
  _atom_site_fract_z
  _atom_site_occupancy
  In  In1       1.0  0.764596700668335  0.5128905773162842  0.2557232081890106  1.0000
  In  In2       1.0  0.22018328309059143  0.0275381188839674  0.3042057454586029  1.0000
  O   O1        1.0  0.002902788808569312  0.5158576369285583  0.7036905288696289  1.0000
  O   O2        1.0  0.4974245727062225  0.9172877073287964  0.46419680118560797  1.0000
  O   O3        1.0  0.5380855798721313  0.02346685901284218  0.8032086491584778  1.0000
  O   O4        1.0  0.811408281326294  0.0821840763092041  0.4669431447982789  1.0000
  O   O5        1.0  0.23817405104637143  0.018575206398963928  0.7499604821205139  1.0000
  O   O6        1.0  0.4654277563095092  0.9065733551979065  0.6091246604919434  1.0000
  O   O7        1.0  0.009938891045749187  0.5270093083381653  0.8626091480255127  1.0000
  V   V1        1.0  0.884964108467102  0.642052412033081  0.8039014339447021  1.0000
  Zn  Zn1       1.0  0.27662035822868347  0.044367093592882156  0.9615961313247682  1.0000
