data_image0
_chemical_formula_structural       In4O5Te2
_chemical_formula_sum              "In4 O5 Te2"
_cell_length_a       4.548071511794329
_cell_length_b       7.2976673246125285
_cell_length_c       8.890851974487305
_cell_angle_alpha    110.0654656685861
_cell_angle_beta     89.0667350778786
_cell_angle_gamma    106.14221386440285

_space_group_name_H-M_alt    "P 1"
_space_group_IT_number       1

loop_
  _space_group_symop_operation_xyz
  'x, y, z'

loop_
  _atom_site_type_symbol
  _atom_site_label
  _atom_site_symmetry_multiplicity
  _atom_site_fract_x
  _atom_site_fract_y
  _atom_site_fract_z
  _atom_site_occupancy
  In  In1       1.0  0.7223584055900574  0.4144156873226166  0.693103015422821  1.0000
  In  In2       1.0  0.092616006731987  0.9242705702781677  0.3074357509613037  1.0000
  In  In3       1.0  0.33984798192977905  0.13197705149650574  0.42086920142173767  1.0000
  In  In4       1.0  0.749088704586029  0.8305444121360779  0.4032846987247467  1.0000
  O   O1        1.0  0.8058310151100159  0.11318806558847427  0.7433692812919617  1.0000
  O   O2        1.0  0.7987772822380066  0.12552131712436676  0.5388942360877991  1.0000
  O   O3        1.0  0.03715288266539574  0.325460284948349  0.212477907538414  1.0000
  O   O4        1.0  0.08895368129014969  0.7185244560241699  0.978493332862854  1.0000
  O   O5        1.0  0.32959115505218506  0.8137843012809753  0.5581939816474915  1.0000
  Te  Te1       1.0  0.851040244102478  0.41528141498565674  0.9000614285469055  1.0000
  Te  Te2       1.0  0.35741838812828064  0.4793066680431366  0.8988500833511353  1.0000
