data_image0
_chemical_formula_structural       In4O7
_chemical_formula_sum              "In4 O7"
_cell_length_a       5.184005219627794
_cell_length_b       6.15923496838243
_cell_length_c       9.024284362792969
_cell_angle_alpha    106.95846402226516
_cell_angle_beta     90.95334668930455
_cell_angle_gamma    112.77891289446124

_space_group_name_H-M_alt    "P 1"
_space_group_IT_number       1

loop_
  _space_group_symop_operation_xyz
  'x, y, z'

loop_
  _atom_site_type_symbol
  _atom_site_label
  _atom_site_symmetry_multiplicity
  _atom_site_fract_x
  _atom_site_fract_y
  _atom_site_fract_z
  _atom_site_occupancy
  In  In1       1.0  0.49616333842277527  0.20153371989727017  0.0170981865376234  1.0000
  In  In2       1.0  0.48828577995300293  0.7938087582588195  0.7388750910758972  1.0000
  In  In3       1.0  0.9865224361419678  0.6318614482879639  0.17923392355442044  1.0000
  In  In4       1.0  0.9906249046325684  0.03811299428343773  0.5092193484306335  1.0000
  O   O1        1.0  0.48711276054382324  0.534252405166626  0.42840564250946045  1.0000
  O   O2        1.0  0.49640101194381714  0.5565487742424011  0.5538771748542786  1.0000
  O   O3        1.0  0.49869802594184875  0.1754133552312851  0.5402814149856567  1.0000
  O   O4        1.0  0.487051248550415  0.8539579510688781  0.06442064046859736  1.0000
  O   O5        1.0  0.9894081354141235  0.5449733138084412  0.17846690118312833  1.0000
  O   O6        1.0  0.987092912197113  0.22498621046543119  0.5370064973831177  1.0000
  O   O7        1.0  0.7317655682563782  0.031806331127882004  0.7187944650650024  1.0000
