data_image0
_chemical_formula_structural       CoH3INi2S6U
_chemical_formula_sum              "Co1 H3 I1 Ni2 S6 U1"
_cell_length_a       5.943878501906614
_cell_length_b       7.024638707665028
_cell_length_c       7.318631172180176
_cell_angle_alpha    97.64162270604943
_cell_angle_beta     97.93610555358622
_cell_angle_gamma    90.07466069074378

_space_group_name_H-M_alt    "P 1"
_space_group_IT_number       1

loop_
  _space_group_symop_operation_xyz
  'x, y, z'

loop_
  _atom_site_type_symbol
  _atom_site_label
  _atom_site_symmetry_multiplicity
  _atom_site_fract_x
  _atom_site_fract_y
  _atom_site_fract_z
  _atom_site_occupancy
  Co  Co1       1.0  0.2051791399717331  0.11886996775865555  0.06706180423498154  1.0000
  H   H1        1.0  0.012625143863260746  0.8682349324226379  0.501542329788208  1.0000
  H   H2        1.0  0.3980448246002197  0.594495415687561  0.7915005087852478  1.0000
  H   H3        1.0  0.20547986030578613  0.18128754198551178  0.9945342540740967  1.0000
  I   I1        1.0  0.9748126864433287  0.8452730178833008  0.010282844305038452  1.0000
  Ni  Ni1       1.0  0.24391716718673703  0.09898088872432709  0.03703540936112404  1.0000
  Ni  Ni2       1.0  0.26009583473205566  0.11117156594991684  0.055982861667871475  1.0000
  S   S1        1.0  0.5012658834457397  0.8527770042419434  0.4435892105102539  1.0000
  S   S2        1.0  0.30214500427246094  0.02340341918170452  0.9641761183738708  1.0000
  S   S3        1.0  0.21784581243991852  0.6449828743934631  0.8480064868927002  1.0000
  S   S4        1.0  0.5124340057373047  0.35544225573539734  0.43204402923583984  1.0000
  S   S5        1.0  0.7743183970451355  0.12551608681678772  0.3417969048023224  1.0000
  S   S6        1.0  0.9798293113708495  0.361737996339798  0.961580216884613  1.0000
  U   U1        1.0  0.5297048687934875  0.60425865650177  0.9466060400009155  1.0000
