data_image0
_chemical_formula_structural       H4Ni2S7Sc
_chemical_formula_sum              "H4 Ni2 S7 Sc1"
_cell_length_a       6.11991868339973
_cell_length_b       6.8230293358934775
_cell_length_c       6.940988063812256
_cell_angle_alpha    109.3685235652984
_cell_angle_beta     109.20515509463972
_cell_angle_gamma    88.3793940933525

_space_group_name_H-M_alt    "P 1"
_space_group_IT_number       1

loop_
  _space_group_symop_operation_xyz
  'x, y, z'

loop_
  _atom_site_type_symbol
  _atom_site_label
  _atom_site_symmetry_multiplicity
  _atom_site_fract_x
  _atom_site_fract_y
  _atom_site_fract_z
  _atom_site_occupancy
  H   H1        1.0  0.3572475016117096  0.5304531455039978  0.14653237164020538  1.0000
  H   H2        1.0  0.5463351607322693  0.4597299993038178  0.316646933555603  1.0000
  H   H3        1.0  0.862557351589203  0.6591870784759521  0.1388598531484604  1.0000
  H   H4        1.0  0.7291220426559448  0.9713920950889589  0.5417918562889099  1.0000
  Ni  Ni1       1.0  0.592822253704071  0.40442803502082825  0.2538846433162689  1.0000
  Ni  Ni2       1.0  0.976945459842682  0.33144086599349976  0.6250811815261841  1.0000
  S   S1        1.0  0.103895403444767  0.4233827292919159  0.4289611876010895  1.0000
  S   S2        1.0  0.09976162016391757  0.9167238473892213  0.14279289543628693  1.0000
  S   S3        1.0  0.5210756063461304  0.37907570600509644  0.23068031668663025  1.0000
  S   S4        1.0  0.7882700562477112  0.8752111196517944  0.8972311019897461  1.0000
  S   S5        1.0  0.5069350004196167  0.0589897632598877  0.662811279296875  1.0000
  S   S6        1.0  0.07195542007684709  0.4595839083194733  0.7733202576637268  1.0000
  S   S7        1.0  0.5612722635269165  0.4012223780155182  0.3412650525569916  1.0000
  Sc  Sc1       1.0  0.19804249703884125  0.61659175157547  0.127686008810997  1.0000
