data_image0
_chemical_formula_structural       FeH3NiPS7U
_chemical_formula_sum              "Fe1 H3 Ni1 P1 S7 U1"
_cell_length_a       5.741894869473054
_cell_length_b       7.119387998021447
_cell_length_c       7.717045783996582
_cell_angle_alpha    101.59602631591534
_cell_angle_beta     106.40960980543271
_cell_angle_gamma    89.84479771364019

_space_group_name_H-M_alt    "P 1"
_space_group_IT_number       1

loop_
  _space_group_symop_operation_xyz
  'x, y, z'

loop_
  _atom_site_type_symbol
  _atom_site_label
  _atom_site_symmetry_multiplicity
  _atom_site_fract_x
  _atom_site_fract_y
  _atom_site_fract_z
  _atom_site_occupancy
  Fe  Fe1       1.0  0.8449255228042603  0.5716027021408081  0.1435667872428894  1.0000
  H   H1        1.0  0.6239165663719177  0.8030728697776794  0.046189043670892715  1.0000
  H   H2        1.0  0.35752546787261963  0.20857852697372437  0.78438401222229  1.0000
  H   H3        1.0  0.31013160943984985  0.8043890595436096  0.3328842222690582  1.0000
  Ni  Ni1       1.0  0.07593632489442825  0.39910387992858887  0.26954564452171326  1.0000
  P   P1        1.0  0.8927887678146362  0.5705713033676147  0.3239459693431854  1.0000
  S   S1        1.0  0.3170923888683319  0.9810259938240051  0.9835759401321411  1.0000
  S   S2        1.0  0.3121779263019562  0.07940541207790375  0.7851147651672363  1.0000
  S   S3        1.0  0.3331424295902252  0.8648943901062012  0.1241206377744675  1.0000
  S   S4        1.0  0.8146907687187195  0.438764750957489  0.6233603358268738  1.0000
  S   S5        1.0  0.8594920635223389  0.073514923453331  0.03590117022395131  1.0000
  S   S6        1.0  0.8305683732032776  0.05579833686351776  0.702613353729248  1.0000
  S   S7        1.0  0.3399105370044708  0.3173503279685974  0.7863302230834961  1.0000
  U   U1        1.0  0.9266142845153809  0.925930380821228  0.6185013651847839  1.0000
