data_image0
_chemical_formula_structural       CFeH6INS4
_chemical_formula_sum              "C1 Fe1 H6 I1 N1 S4"
_cell_length_a       5.186499146476656
_cell_length_b       6.656135554401658
_cell_length_c       7.4222612380981445
_cell_angle_alpha    105.32330226453186
_cell_angle_beta     95.95027636165614
_cell_angle_gamma    89.75801530841602

_space_group_name_H-M_alt    "P 1"
_space_group_IT_number       1

loop_
  _space_group_symop_operation_xyz
  'x, y, z'

loop_
  _atom_site_type_symbol
  _atom_site_label
  _atom_site_symmetry_multiplicity
  _atom_site_fract_x
  _atom_site_fract_y
  _atom_site_fract_z
  _atom_site_occupancy
  C   C1        1.0  0.8050785660743713  0.8298007249832153  0.8055921792984009  1.0000
  Fe  Fe1       1.0  0.3767237067222595  0.6355206370353699  0.4873174726963043  1.0000
  H   H1        1.0  0.6420474648475647  0.84055095911026  0.2693862915039063  1.0000
  H   H2        1.0  0.9528532028198242  0.8606894612312317  0.8037010431289673  1.0000
  H   H3        1.0  0.8049789667129517  0.1299469769001007  0.09628737717866898  1.0000
  H   H4        1.0  0.042016129940748215  0.13442429900169373  0.5377290844917297  1.0000
  H   H5        1.0  0.12195409089326859  0.3582799434661865  0.32290130853652954  1.0000
  H   H6        1.0  0.6429020762443542  0.3692237436771393  0.6603260636329651  1.0000
  I   I1        1.0  0.15565288066864014  0.13058297336101532  0.4821767508983612  1.0000
  N   N1        1.0  0.16050103306770325  0.48569849133491516  0.015867171809077263  1.0000
  S   S1        1.0  0.6580763459205627  0.8373569846153259  0.8817910552024841  1.0000
  S   S2        1.0  0.7041215896606445  0.627452552318573  0.16314095258712769  1.0000
  S   S3        1.0  0.41019314527511597  0.6846409440040588  0.7314885854721069  1.0000
  S   S4        1.0  0.14165760576725006  0.13214720785617828  0.744430661201477  1.0000
