data_image0
_chemical_formula_structural       H4NiS8U
_chemical_formula_sum              "H4 Ni1 S8 U1"
_cell_length_a       5.935399521940402
_cell_length_b       8.405807376748497
_cell_length_c       8.791769027709961
_cell_angle_alpha    121.9587884926042
_cell_angle_beta     93.94228463816654
_cell_angle_gamma    89.22102497592621

_space_group_name_H-M_alt    "P 1"
_space_group_IT_number       1

loop_
  _space_group_symop_operation_xyz
  'x, y, z'

loop_
  _atom_site_type_symbol
  _atom_site_label
  _atom_site_symmetry_multiplicity
  _atom_site_fract_x
  _atom_site_fract_y
  _atom_site_fract_z
  _atom_site_occupancy
  H   H1        1.0  0.550225555896759  0.537357747554779  0.6035285592079163  1.0000
  H   H2        1.0  0.17596666514873505  0.30624815821647644  0.3637710511684418  1.0000
  H   H3        1.0  0.19003066420555115  0.2675027847290039  0.6038945913314819  1.0000
  H   H4        1.0  0.6706072092056274  0.5360861420631409  0.9704252481460571  1.0000
  Ni  Ni1       1.0  0.548157811164856  0.11931339651346208  0.8640570640563965  1.0000
  S   S1        1.0  0.0616941824555397  0.28668850660324097  0.9961135387420654  1.0000
  S   S2        1.0  0.5471490025520325  0.34561121463775635  0.22514982521533966  1.0000
  S   S3        1.0  0.03684369847178459  0.10999456793069841  0.73386549949646  1.0000
  S   S4        1.0  0.2811127305030823  0.6183913946151733  0.2315230816602707  1.0000
  S   S5        1.0  0.05260973423719406  0.767911970615387  0.6202782988548279  1.0000
  S   S6        1.0  0.5239174365997314  0.6957975029945374  0.5295440554618835  1.0000
  S   S7        1.0  0.5379864573478699  0.1796293705701828  0.26956436038017273  1.0000
  S   S8        1.0  0.7115241885185242  0.15849187970161438  0.9883634448051453  1.0000
  U   U1        1.0  0.03217824175953865  0.11433263123035432  0.10298721492290497  1.0000
