data_image0
_chemical_formula_structural       H6ILaN3S3
_chemical_formula_sum              "H6 I1 La1 N3 S3"
_cell_length_a       4.731962437927306
_cell_length_b       5.614776940935091
_cell_length_c       7.357120037078857
_cell_angle_alpha    104.72274986756294
_cell_angle_beta     106.78641821348293
_cell_angle_gamma    88.74281856355974

_space_group_name_H-M_alt    "P 1"
_space_group_IT_number       1

loop_
  _space_group_symop_operation_xyz
  'x, y, z'

loop_
  _atom_site_type_symbol
  _atom_site_label
  _atom_site_symmetry_multiplicity
  _atom_site_fract_x
  _atom_site_fract_y
  _atom_site_fract_z
  _atom_site_occupancy
  H   H1        1.0  0.16420091688632965  0.3003365397453308  0.3545200824737549  1.0000
  H   H2        1.0  0.5490797758102417  0.7894200682640076  0.7370844483375549  1.0000
  H   H3        1.0  0.5813851952552795  0.2918325364589691  0.8883246183395387  1.0000
  H   H4        1.0  0.6018256545066833  0.5753297805786133  0.6212955117225647  1.0000
  H   H5        1.0  0.9963819980621338  0.038000911474227905  0.14221912622451785  1.0000
  H   H6        1.0  0.018728988245129585  0.5456403493881226  0.6150956749916077  1.0000
  I   I1        1.0  0.9444606900215149  0.9836854338645935  0.5190119743347168  1.0000
  La  La1       1.0  0.09754282236099243  0.1603224128484726  0.1690586358308792  1.0000
  N   N1        1.0  0.04945986345410347  0.768286406993866  0.09017224609851837  1.0000
  N   N2        1.0  0.31347042322158813  0.27497217059135437  0.9309851527214051  1.0000
  N   N3        1.0  0.770416259765625  0.7783986926078796  0.3311332166194916  1.0000
  S   S1        1.0  0.5090012550354004  0.40204349160194397  0.7078923583030701  1.0000
  S   S2        1.0  0.4720017611980438  0.9595876336097717  0.04894415661692619  1.0000
  S   S3        1.0  0.46141472458839417  0.04139119014143944  0.625045895576477  1.0000
