data_image0
_chemical_formula_structural       As9
_chemical_formula_sum              "As9"
_cell_length_a       5.656827592652169
_cell_length_b       6.261687184361208
_cell_length_c       7.664927959442139
_cell_angle_alpha    99.27512244091109
_cell_angle_beta     88.72605898546786
_cell_angle_gamma    90.18219325854609

_space_group_name_H-M_alt    "P 1"
_space_group_IT_number       1

loop_
  _space_group_symop_operation_xyz
  'x, y, z'

loop_
  _atom_site_type_symbol
  _atom_site_label
  _atom_site_symmetry_multiplicity
  _atom_site_fract_x
  _atom_site_fract_y
  _atom_site_fract_z
  _atom_site_occupancy
  As  As1       1.0  0.4327313005924225  0.5145149827003479  0.9100297689437865  1.0000
  As  As2       1.0  0.43156230449676514  0.5192306041717529  0.3966734707355499  1.0000
  As  As3       1.0  0.43047624826431274  0.13294173777103424  0.7470961213111877  1.0000
  As  As4       1.0  0.9321371912956238  0.3563525378704071  0.34160444140434265  1.0000
  As  As5       1.0  0.9279171824455261  0.2385822087526321  0.95032799243927  1.0000
  As  As6       1.0  0.931697428226471  0.46641156077384943  0.3418987989425659  1.0000
  As  As7       1.0  0.434417724609375  0.2861042320728302  0.24476005136966705  1.0000
  As  As8       1.0  0.9377357959747314  0.30384939908981323  0.6192622184753418  1.0000
  As  As9       1.0  0.43282753229141235  0.292726993560791  0.3765527009963989  1.0000
