data_image0
_chemical_formula_structural       As8Ni
_chemical_formula_sum              "As8 Ni1"
_cell_length_a       5.492436097196913
_cell_length_b       5.1429211832616994
_cell_length_c       5.6011481285095215
_cell_angle_alpha    109.74011274956294
_cell_angle_beta     106.50125325372338
_cell_angle_gamma    109.12984667406506

_space_group_name_H-M_alt    "P 1"
_space_group_IT_number       1

loop_
  _space_group_symop_operation_xyz
  'x, y, z'

loop_
  _atom_site_type_symbol
  _atom_site_label
  _atom_site_symmetry_multiplicity
  _atom_site_fract_x
  _atom_site_fract_y
  _atom_site_fract_z
  _atom_site_occupancy
  As  As1       1.0  0.03345856815576553  0.4092092216014862  0.060392990708351156  1.0000
  As  As2       1.0  0.30271124839782715  0.12433979660272598  0.4561555087566376  1.0000
  As  As3       1.0  0.03300328180193901  0.717684268951416  0.6202960014343262  1.0000
  As  As4       1.0  0.046590425074100494  0.7875015735626221  0.14639225602149966  1.0000
  As  As5       1.0  0.5467192530632019  0.550438404083252  0.13762170076370242  1.0000
  As  As6       1.0  0.03206416964530945  0.03597952425479889  0.1750285029411316  1.0000
  As  As7       1.0  0.5356584787368774  0.507490336894989  0.16240623593330386  1.0000
  As  As8       1.0  0.03411503881216049  0.06378262490034103  0.11998914182186127  1.0000
  Ni  Ni1       1.0  0.536842942237854  0.3292718529701233  0.9612651467323303  1.0000
