data_image0
_chemical_formula_structural       As4AuNi4
_chemical_formula_sum              "As4 Au1 Ni4"
_cell_length_a       4.033774307433602
_cell_length_b       4.91205590088357
_cell_length_c       5.4010162353515625
_cell_angle_alpha    92.0526408992773
_cell_angle_beta     92.4677033138226
_cell_angle_gamma    89.27829327855885

_space_group_name_H-M_alt    "P 1"
_space_group_IT_number       1

loop_
  _space_group_symop_operation_xyz
  'x, y, z'

loop_
  _atom_site_type_symbol
  _atom_site_label
  _atom_site_symmetry_multiplicity
  _atom_site_fract_x
  _atom_site_fract_y
  _atom_site_fract_z
  _atom_site_occupancy
  As  As1       1.0  0.6619527339935303  0.28753453493118286  0.3965950608253479  1.0000
  As  As2       1.0  0.17315959930419922  0.31591057777404785  0.06509938091039658  1.0000
  As  As3       1.0  0.6636611819267273  0.8072872757911682  0.8811684846878052  1.0000
  As  As4       1.0  0.13366816937923431  0.06611678004264832  0.20203997194766998  1.0000
  Au  Au1       1.0  0.15322890877723694  0.49844735860824585  0.27393242716789246  1.0000
  Ni  Ni1       1.0  0.12891076505184174  0.7173052430152893  0.9225375056266785  1.0000
  Ni  Ni2       1.0  0.40963223576545715  0.06131570041179657  0.9119208455085754  1.0000
  Ni  Ni3       1.0  0.6473341584205627  0.7045698165893555  0.6711966395378113  1.0000
  Ni  Ni4       1.0  0.1483025997877121  0.014367397874593735  0.024063413962721825  1.0000
