data_image0
_chemical_formula_structural       As7Ni2
_chemical_formula_sum              "As7 Ni2"
_cell_length_a       5.871895181305501
_cell_length_b       5.945234519017254
_cell_length_c       5.783974647521973
_cell_angle_alpha    108.55771184790001
_cell_angle_beta     112.57439885076472
_cell_angle_gamma    111.84943129688195

_space_group_name_H-M_alt    "P 1"
_space_group_IT_number       1

loop_
  _space_group_symop_operation_xyz
  'x, y, z'

loop_
  _atom_site_type_symbol
  _atom_site_label
  _atom_site_symmetry_multiplicity
  _atom_site_fract_x
  _atom_site_fract_y
  _atom_site_fract_z
  _atom_site_occupancy
  As  As1       1.0  0.33706244826316833  0.4032804071903229  0.9127719998359679  1.0000
  As  As2       1.0  0.8512561917304993  0.8614365458488464  0.0965246036648751  1.0000
  As  As3       1.0  0.9566971063613892  0.3454079329967499  0.09634163230657578  1.0000
  As  As4       1.0  0.3170645833015442  0.9845413565635681  0.6961232423782349  1.0000
  As  As5       1.0  0.3148438632488251  0.3028968274593353  0.7066555619239807  1.0000
  As  As6       1.0  0.24803970754146576  0.31191208958625793  0.04086579009890556  1.0000
  As  As7       1.0  0.7727296352386475  0.33760884404182434  0.8023352026939392  1.0000
  Ni  Ni1       1.0  0.8078912496566772  0.8171657919883728  0.044234368950128555  1.0000
  Ni  Ni2       1.0  0.5734289884567261  0.143911212682724  0.5545057058334351  1.0000
