data_image0
_chemical_formula_structural       Fe2GdNi2PVZn2
_chemical_formula_sum              "Fe2 Gd1 Ni2 P1 V1 Zn2"
_cell_length_a       5.455884855614415
_cell_length_b       5.051759968771817
_cell_length_c       6.367671489715576
_cell_angle_alpha    109.85265716077063
_cell_angle_beta     90.29807637154245
_cell_angle_gamma    102.08463278221106

_space_group_name_H-M_alt    "P 1"
_space_group_IT_number       1

loop_
  _space_group_symop_operation_xyz
  'x, y, z'

loop_
  _atom_site_type_symbol
  _atom_site_label
  _atom_site_symmetry_multiplicity
  _atom_site_fract_x
  _atom_site_fract_y
  _atom_site_fract_z
  _atom_site_occupancy
  Fe  Fe1       1.0  0.8579993844032288  0.706733763217926  0.4481477737426758  1.0000
  Fe  Fe2       1.0  0.747589647769928  0.5135077834129333  0.5188581943511963  1.0000
  Gd  Gd1       1.0  0.7413363456726074  0.4249498248100281  0.7984988689422607  1.0000
  Ni  Ni1       1.0  0.7507321238517761  0.514175295829773  0.5635626316070557  1.0000
  Ni  Ni2       1.0  0.24822834134101868  0.05583011731505394  0.5821020007133484  1.0000
  P   P1        1.0  0.7493836283683777  0.6686954498291016  0.09859766811132428  1.0000
  V   V1        1.0  0.25024858117103577  0.27097710967063904  0.14658688008785248  1.0000
  Zn  Zn1       1.0  0.2511889636516571  0.5408893823623657  0.1692655384540558  1.0000
  Zn  Zn2       1.0  0.24940542876720428  0.14686070382595062  0.5450281500816345  1.0000
