data_image0
_chemical_formula_structural       Fe6OW2
_chemical_formula_sum              "Fe6 O1 W2"
_cell_length_a       4.405353042557302
_cell_length_b       4.543087129040703
_cell_length_c       4.90848970413208
_cell_angle_alpha    69.76842143045157
_cell_angle_beta     64.50415481278152
_cell_angle_gamma    59.235472467475205

_space_group_name_H-M_alt    "P 1"
_space_group_IT_number       1

loop_
  _space_group_symop_operation_xyz
  'x, y, z'

loop_
  _atom_site_type_symbol
  _atom_site_label
  _atom_site_symmetry_multiplicity
  _atom_site_fract_x
  _atom_site_fract_y
  _atom_site_fract_z
  _atom_site_occupancy
  Fe  Fe1       1.0  0.5053992867469788  0.6486350297927856  0.23559364676475525  1.0000
  Fe  Fe2       1.0  0.011316029354929924  0.5693910717964172  0.24785307049751282  1.0000
  Fe  Fe3       1.0  0.5058428645133972  0.7868986129760742  0.7761850953102112  1.0000
  Fe  Fe4       1.0  0.21646413207054138  0.20357899367809296  0.38885247707366943  1.0000
  Fe  Fe5       1.0  0.7479946613311768  0.3733433485031128  0.06904725730419159  1.0000
  Fe  Fe6       1.0  0.7135440111160278  0.08727654814720154  0.9009581804275513  1.0000
  O   O1        1.0  0.2482476830482483  0.40602314472198486  0.6325718760490417  1.0000
  W   W1        1.0  0.2435103803873062  0.20087727904319763  0.6755430698394775  1.0000
  W   W2        1.0  0.0011512914206832786  0.3493587374687195  0.055481377989053726  1.0000
