data_image0
_chemical_formula_structural       Fe6NiOPb
_chemical_formula_sum              "Fe6 Ni1 O1 Pb1"
_cell_length_a       5.093658402403631
_cell_length_b       5.4713194833141445
_cell_length_c       5.3165202140808105
_cell_angle_alpha    65.61101325937551
_cell_angle_beta     69.59619829561792
_cell_angle_gamma    65.67287560641682

_space_group_name_H-M_alt    "P 1"
_space_group_IT_number       1

loop_
  _space_group_symop_operation_xyz
  'x, y, z'

loop_
  _atom_site_type_symbol
  _atom_site_label
  _atom_site_symmetry_multiplicity
  _atom_site_fract_x
  _atom_site_fract_y
  _atom_site_fract_z
  _atom_site_occupancy
  Fe  Fe1       1.0  0.41016948223114014  0.3178556263446808  0.02247568592429161  1.0000
  Fe  Fe2       1.0  0.8812903761863708  0.42556825280189514  0.8386452794075012  1.0000
  Fe  Fe3       1.0  0.755912721157074  0.3109003007411957  0.645652711391449  1.0000
  Fe  Fe4       1.0  0.40441393852233887  0.7731444239616394  0.3795364797115326  1.0000
  Fe  Fe5       1.0  0.2443457692861557  0.39974647760391235  0.36633989214897156  1.0000
  Fe  Fe6       1.0  0.5015938878059387  0.016541793942451477  0.6907771825790405  1.0000
  Ni  Ni1       1.0  0.991693377494812  0.36557719111442566  0.4453962445259094  1.0000
  O   O1        1.0  0.8289644718170166  0.6796362996101379  0.9013839960098267  1.0000
  Pb  Pb1       1.0  0.3809654414653778  0.9721192717552185  0.003398620989173609  1.0000
