data_image0
_chemical_formula_structural       Ce4Dy3Ge2MgPrSe4
_chemical_formula_sum              "Ce4 Dy3 Ge2 Mg1 Pr1 Se4"
_cell_length_a       7.73622043797004
_cell_length_b       7.965371825352175
_cell_length_c       8.705632209777832
_cell_angle_alpha    116.21176239555768
_cell_angle_beta     115.19151685831466
_cell_angle_gamma    93.922946497756

_space_group_name_H-M_alt    "P 1"
_space_group_IT_number       1

loop_
  _space_group_symop_operation_xyz
  'x, y, z'

loop_
  _atom_site_type_symbol
  _atom_site_label
  _atom_site_symmetry_multiplicity
  _atom_site_fract_x
  _atom_site_fract_y
  _atom_site_fract_z
  _atom_site_occupancy
  Ce  Ce1       1.0  0.7439680099487305  0.18637843430042267  0.8029165863990784  1.0000
  Ce  Ce2       1.0  0.48746377229690546  0.7278992533683777  0.9056476950645447  1.0000
  Ce  Ce3       1.0  0.6397576332092285  0.8201789259910583  0.6083565354347229  1.0000
  Ce  Ce4       1.0  0.6406803131103516  0.7615075707435608  0.46491992473602295  1.0000
  Dy  Dy1       1.0  0.1266651153564453  0.08170538395643234  0.5846677422523499  1.0000
  Dy  Dy2       1.0  0.48344609141349787  0.768121600151062  0.20074425637722015  1.0000
  Dy  Dy3       1.0  0.20907762646675107  0.8160268664360046  0.5766542553901672  1.0000
  Ge  Ge1       1.0  0.21943654119968412  0.6958152651786804  0.9135216474533081  1.0000
  Ge  Ge2       1.0  0.1568482667207718  0.15212664008140564  0.774183988571167  1.0000
  Mg  Mg1       1.0  0.47871980071067805  0.9405115842819214  0.20795230567455292  1.0000
  Pr  Pr1       1.0  0.0003560985787771642  0.20884668827056885  0.32836395502090454  1.0000
  Se  Se1       1.0  0.8175883889198302  0.7952233552932739  0.9015618562698364  1.0000
  Se  Se2       1.0  0.5028749108314514  0.33873382210731506  0.7734160423278809  1.0000
  Se  Se3       1.0  0.6358638405799866  0.2085365653038025  0.36402517557144165  1.0000
  Se  Se4       1.0  0.7200236320495605  0.12120235711336136  0.5771107077598572  1.0000
