data_image0
_chemical_formula_structural       CeEuGe5Mg3RuSe4
_chemical_formula_sum              "Ce1 Eu1 Ge5 Mg3 Ru1 Se4"
_cell_length_a       6.292821263962332
_cell_length_b       7.597565196558988
_cell_length_c       9.524868965148926
_cell_angle_alpha    76.8656621856589
_cell_angle_beta     73.05193971148154
_cell_angle_gamma    66.793381442883

_space_group_name_H-M_alt    "P 1"
_space_group_IT_number       1

loop_
  _space_group_symop_operation_xyz
  'x, y, z'

loop_
  _atom_site_type_symbol
  _atom_site_label
  _atom_site_symmetry_multiplicity
  _atom_site_fract_x
  _atom_site_fract_y
  _atom_site_fract_z
  _atom_site_occupancy
  Ce  Ce1       1.0  0.5562681555747986  0.8380769491195679  0.04565973952412605  1.0000
  Eu  Eu1       1.0  0.30882465839385986  0.17982947826385498  0.7134767174720764  1.0000
  Ge  Ge1       1.0  0.08140899986028674  0.47803726792335505  0.2539884150028229  1.0000
  Ge  Ge2       1.0  0.36821371316909784  0.8317725658416748  0.04647097736597061  1.0000
  Ge  Ge3       1.0  0.4440186023712159  0.9357056617736815  0.9290894269943237  1.0000
  Ge  Ge4       1.0  0.5131697058677673  0.26971274614334106  0.3500712811946869  1.0000
  Ge  Ge5       1.0  0.2549531161785126  0.5551328063011169  0.7564807534217834  1.0000
  Mg  Mg1       1.0  0.28467488288879395  0.237986147403717  0.8478270769119263  1.0000
  Mg  Mg2       1.0  0.8963351249694823  0.9972330927848815  0.9262882471084595  1.0000
  Mg  Mg3       1.0  0.05414133518934249  0.3258762061595917  0.49993452429771423  1.0000
  Ru  Ru1       1.0  0.4925700724124908  0.829857349395752  0.0887357741594315  1.0000
  Se  Se1       1.0  0.60202956199646  0.9992888569831847  0.23942531645298004  1.0000
  Se  Se2       1.0  0.8846206068992614  0.45187059044837946  0.8527840375900269  1.0000
  Se  Se3       1.0  0.5643181204795837  0.8731307983398436  0.881188690662384  1.0000
  Se  Se4       1.0  0.5021628141403198  0.14845898747444153  0.8132650852203369  1.0000
