data_image0
_chemical_formula_structural       Ce4Cu3Ge3Se5
_chemical_formula_sum              "Ce4 Cu3 Ge3 Se5"
_cell_length_a       5.310316356056463
_cell_length_b       8.011228279664833
_cell_length_c       8.603822708129883
_cell_angle_alpha    122.64639284147957
_cell_angle_beta     89.93320917482035
_cell_angle_gamma    90.24403460565385

_space_group_name_H-M_alt    "P 1"
_space_group_IT_number       1

loop_
  _space_group_symop_operation_xyz
  'x, y, z'

loop_
  _atom_site_type_symbol
  _atom_site_label
  _atom_site_symmetry_multiplicity
  _atom_site_fract_x
  _atom_site_fract_y
  _atom_site_fract_z
  _atom_site_occupancy
  Ce  Ce1       1.0  0.5449796319007874  0.31436848640441895  0.5029609203338623  1.0000
  Ce  Ce2       1.0  0.04834764078259468  0.6656975150108337  0.5325348377227783  1.0000
  Ce  Ce3       1.0  0.05154642090201378  0.899541974067688  0.5457677245140076  1.0000
  Ce  Ce4       1.0  0.04975571483373642  0.7824413776397705  0.5432451367378235  1.0000
  Cu  Cu1       1.0  0.5437794327735901  0.5213000774383545  0.9251959919929504  1.0000
  Cu  Cu2       1.0  0.5558974146842957  0.11733389645814896  0.5456081628799438  1.0000
  Cu  Cu3       1.0  0.5483063459396362  0.6801908612251282  0.7572763562202454  1.0000
  Ge  Ge1       1.0  0.04954880475997925  0.697489321231842  0.8103541731834412  1.0000
  Ge  Ge2       1.0  0.5431325435638428  0.2946751117706299  0.8159711360931396  1.0000
  Ge  Ge3       1.0  0.04471563175320625  0.9795064330101013  0.24196885526180267  1.0000
  Se  Se1       1.0  0.04934006929397583  0.006977517623454332  0.7438689470291138  1.0000
  Se  Se2       1.0  0.05262370407581329  0.23842409253120422  0.8453003764152527  1.0000
  Se  Se3       1.0  0.04843117296695709  0.20172841846942902  0.1704825609922409  1.0000
  Se  Se4       1.0  0.04640600457787514  0.7106468081474304  0.08754614740610123  1.0000
  Se  Se5       1.0  0.5436822175979614  0.7126796841621399  0.013815046288073063  1.0000
