data_image0
_chemical_formula_structural       Ce5Ge3RbSe6
_chemical_formula_sum              "Ce5 Ge3 Rb1 Se6"
_cell_length_a       5.939112182385757
_cell_length_b       6.045739420952276
_cell_length_c       9.984593391418457
_cell_angle_alpha    90.56835503629448
_cell_angle_beta     90.71801298210403
_cell_angle_gamma    116.53182591612455

_space_group_name_H-M_alt    "P 1"
_space_group_IT_number       1

loop_
  _space_group_symop_operation_xyz
  'x, y, z'

loop_
  _atom_site_type_symbol
  _atom_site_label
  _atom_site_symmetry_multiplicity
  _atom_site_fract_x
  _atom_site_fract_y
  _atom_site_fract_z
  _atom_site_occupancy
  Ce  Ce1       1.0  0.6963694095611572  0.787294566631317  0.7315250635147095  1.0000
  Ce  Ce2       1.0  0.5031081438064575  0.7053594589233398  0.1152368187904358  1.0000
  Ce  Ce3       1.0  0.35584515333175654  0.920064628124237  0.8908596634864808  1.0000
  Ce  Ce4       1.0  0.9982234835624695  0.28925058245658875  0.8169540166854858  1.0000
  Ce  Ce5       1.0  0.2897551953792572  0.09474181383848189  0.06538218259811401  1.0000
  Ge  Ge1       1.0  0.18876904249191284  0.16951888799667358  0.4727059900760651  1.0000
  Ge  Ge2       1.0  0.7727009654045105  0.16253578662872314  0.09720970690250397  1.0000
  Ge  Ge3       1.0  0.3905004858970642  0.3465301990509033  0.8533709645271302  1.0000
  Rb  Rb1       1.0  0.09171162545681  0.3510695993900299  0.5181468725204468  1.0000
  Se  Se1       1.0  0.1412366032600402  0.766171097755432  0.8555145263671876  1.0000
  Se  Se2       1.0  0.12030217796564098  0.49969556927680964  0.5645944476127625  1.0000
  Se  Se3       1.0  0.6293802261352538  0.9208040237426757  0.8669411540031434  1.0000
  Se  Se4       1.0  0.10980127751827236  0.3793689310550689  0.037556231021881104  1.0000
  Se  Se5       1.0  0.6200010180473328  0.6849269866943359  0.6689134240150452  1.0000
  Se  Se6       1.0  0.22580263018608093  0.6929579377174377  0.6113982796669006  1.0000
