data_image0
_chemical_formula_structural       Ce2Cu2Ge5Se6
_chemical_formula_sum              "Ce2 Cu2 Ge5 Se6"
_cell_length_a       6.1232459992792005
_cell_length_b       9.052999605088683
_cell_length_c       9.600311279296875
_cell_angle_alpha    121.43102059804798
_cell_angle_beta     92.00548654155992
_cell_angle_gamma    92.72248010293818

_space_group_name_H-M_alt    "P 1"
_space_group_IT_number       1

loop_
  _space_group_symop_operation_xyz
  'x, y, z'

loop_
  _atom_site_type_symbol
  _atom_site_label
  _atom_site_symmetry_multiplicity
  _atom_site_fract_x
  _atom_site_fract_y
  _atom_site_fract_z
  _atom_site_occupancy
  Ce  Ce1       1.0  0.8887102007865906  0.9280045628547668  0.15931329131126395  1.0000
  Ce  Ce2       1.0  0.38303056359291077  0.07876858860254288  0.7968944907188416  1.0000
  Cu  Cu1       1.0  0.8776893615722656  0.9281120896339417  0.8029918074607849  1.0000
  Cu  Cu2       1.0  0.8792755603790283  0.47218888998031616  0.18261513113975525  1.0000
  Ge  Ge1       1.0  0.8657054901123047  0.6579798460006714  0.05081285163760185  1.0000
  Ge  Ge2       1.0  0.8815332055091858  0.03415670990943909  0.014386776834726334  1.0000
  Ge  Ge3       1.0  0.4054688513278961  0.3757333755493164  0.5572088360786438  1.0000
  Ge  Ge4       1.0  0.38259345293045044  0.1530812382698059  0.004078500438481569  1.0000
  Ge  Ge5       1.0  0.38357090950012207  0.7941105961799622  0.908107578754425  1.0000
  Se  Se1       1.0  0.378432035446167  0.21818900108337402  0.6896312832832336  1.0000
  Se  Se2       1.0  0.8631781935691833  0.7102084755897522  0.40420168638229365  1.0000
  Se  Se3       1.0  0.3704272508621216  0.05179926007986069  0.8517117500305176  1.0000
  Se  Se4       1.0  0.3468230962753296  0.7066519856452942  0.5492247343063354  1.0000
  Se  Se5       1.0  0.8290728330612183  0.6992761492729187  0.48694226145744324  1.0000
  Se  Se6       1.0  0.3670259416103363  0.4906662106513977  0.012027804739773273  1.0000
