data_image0
_chemical_formula_structural       Ce2Dy2Ge6Se5
_chemical_formula_sum              "Ce2 Dy2 Ge6 Se5"
_cell_length_a       6.0235479711190845
_cell_length_b       5.976313631911727
_cell_length_c       11.000459671020508
_cell_angle_alpha    104.5081433075275
_cell_angle_beta     106.47617858298838
_cell_angle_gamma    109.51059494345064

_space_group_name_H-M_alt    "P 1"
_space_group_IT_number       1

loop_
  _space_group_symop_operation_xyz
  'x, y, z'

loop_
  _atom_site_type_symbol
  _atom_site_label
  _atom_site_symmetry_multiplicity
  _atom_site_fract_x
  _atom_site_fract_y
  _atom_site_fract_z
  _atom_site_occupancy
  Ce  Ce1       1.0  0.34935426712036133  0.48592090606689453  0.14847886562347412  1.0000
  Ce  Ce2       1.0  0.6690570116043091  0.354112446308136  0.3714207708835602  1.0000
  Dy  Dy1       1.0  0.327818363904953  0.8557496666908264  0.27894505858421326  1.0000
  Dy  Dy2       1.0  0.5904664993286133  0.7109395265579224  0.5443355441093445  1.0000
  Ge  Ge1       1.0  0.7898979187011719  0.2377856969833374  0.8254597187042236  1.0000
  Ge  Ge2       1.0  0.17567884922027588  0.23033882677555084  0.34007903933525085  1.0000
  Ge  Ge3       1.0  0.14129941165447235  0.8390551805496216  0.9421188831329346  1.0000
  Ge  Ge4       1.0  0.1833256632089615  0.9194360375404358  0.1653826087713241  1.0000
  Ge  Ge5       1.0  0.9671742916107178  0.9650384783744812  0.22023095190525055  1.0000
  Ge  Ge6       1.0  0.9845531582832336  0.9310353398323059  0.16131012141704554  1.0000
  Se  Se1       1.0  0.16970182955265045  0.6113248467445374  0.2391301542520523  1.0000
  Se  Se2       1.0  0.4872806668281555  0.3344050347805023  0.8666765093803406  1.0000
  Se  Se3       1.0  0.6761112809181213  0.9590949416160583  0.8457527756690979  1.0000
  Se  Se4       1.0  0.5117312073707581  0.37387949228286743  0.9805107116699219  1.0000
  Se  Se5       1.0  0.8357370495796204  0.6630554795265198  0.12560999393463135  1.0000
