data_image0
_chemical_formula_structural       MnNi4SeSi2Sm4Ti
_chemical_formula_sum              "Mn1 Ni4 Se1 Si2 Sm4 Ti1"
_cell_length_a       3.890199477157885
_cell_length_b       7.082024426863945
_cell_length_c       8.007366180419922
_cell_angle_alpha    91.73110141998127
_cell_angle_beta     94.49154898707224
_cell_angle_gamma    89.97402826973422

_space_group_name_H-M_alt    "P 1"
_space_group_IT_number       1

loop_
  _space_group_symop_operation_xyz
  'x, y, z'

loop_
  _atom_site_type_symbol
  _atom_site_label
  _atom_site_symmetry_multiplicity
  _atom_site_fract_x
  _atom_site_fract_y
  _atom_site_fract_z
  _atom_site_occupancy
  Mn  Mn1       1.0  0.273171067237854  0.6131152510643005  0.971084475517273  1.0000
  Ni  Ni1       1.0  0.9175126552581788  0.1650756597518921  0.4538900852203369  1.0000
  Ni  Ni2       1.0  0.4076510965824128  0.5735445618629456  0.10305509716272354  1.0000
  Ni  Ni3       1.0  0.41336694359779363  0.10082758963108063  0.9593300819396973  1.0000
  Ni  Ni4       1.0  0.42186582088470465  0.16814956068992615  0.3779546618461609  1.0000
  Se  Se1       1.0  0.41870075464248663  0.5800484418869019  0.21779847145080566  1.0000
  Si  Si1       1.0  0.4065201878547669  0.7777909636497498  0.22022436559200287  1.0000
  Si  Si2       1.0  0.9083468317985536  0.3221590220928192  0.7872475385665894  1.0000
  Sm  Sm1       1.0  0.4113642275333405  0.9985601902008057  0.5304453372955322  1.0000
  Sm  Sm2       1.0  0.9077829122543336  0.859388530254364  0.3033200800418854  1.0000
  Sm  Sm3       1.0  0.9049870967864991  0.9113237261772156  0.8950909972190857  1.0000
  Sm  Sm4       1.0  0.9086039662361146  0.44314637780189514  0.9834216237068176  1.0000
  Ti  Ti1       1.0  0.40958201885223394  0.1571686863899231  0.46834462881088257  1.0000
