data_image0
_chemical_formula_structural       CsNi5Sm6Tl
_chemical_formula_sum              "Cs1 Ni5 Sm6 Tl1"
_cell_length_a       4.162708288271144
_cell_length_b       8.020910443785379
_cell_length_c       8.689162254333496
_cell_angle_alpha    95.3622993263897
_cell_angle_beta     90.28633380209165
_cell_angle_gamma    89.86916527904282

_space_group_name_H-M_alt    "P 1"
_space_group_IT_number       1

loop_
  _space_group_symop_operation_xyz
  'x, y, z'

loop_
  _atom_site_type_symbol
  _atom_site_label
  _atom_site_symmetry_multiplicity
  _atom_site_fract_x
  _atom_site_fract_y
  _atom_site_fract_z
  _atom_site_occupancy
  Cs  Cs1       1.0  0.6513329744338988  0.7973881959915162  0.8103384971618652  1.0000
  Ni  Ni1       1.0  0.6695319414138794  0.3072363436222077  0.8304054737091064  1.0000
  Ni  Ni2       1.0  0.6900219321250916  0.6589024662971498  0.5639026165008545  1.0000
  Ni  Ni3       1.0  0.16524004936218262  0.16733841598033908  0.22222450375556946  1.0000
  Ni  Ni4       1.0  0.6523052453994751  0.6545011997222902  0.4119119942188263  1.0000
  Ni  Ni5       1.0  0.669283926486969  0.6824989318847657  0.3246295154094696  1.0000
  Sm  Sm1       1.0  0.1605082005262375  0.2900991141796112  0.3467082977294922  1.0000
  Sm  Sm2       1.0  0.1698916256427765  0.6749662160873414  0.7821210026741028  1.0000
  Sm  Sm3       1.0  0.6549518704414368  0.4781706333160401  0.637612521648407  1.0000
  Sm  Sm4       1.0  0.17487868666648865  0.98615300655365  0.7873081564903259  1.0000
  Sm  Sm5       1.0  0.16861657798290253  0.5267338752746582  0.06115882843732835  1.0000
  Sm  Sm6       1.0  0.14786864817142487  0.44587439298629766  0.26042434573173523  1.0000
  Tl  Tl1       1.0  0.6408910155296326  0.9947551488876344  0.5290108919143677  1.0000
