data_image0
_chemical_formula_structural       IInNi5Sm5Sn
_chemical_formula_sum              "I1 In1 Ni5 Sm5 Sn1"
_cell_length_a       4.249387498128203
_cell_length_b       5.293875762671601
_cell_length_c       9.34293270111084
_cell_angle_alpha    89.04573000050037
_cell_angle_beta     89.61566742649542
_cell_angle_gamma    129.97502219275066

_space_group_name_H-M_alt    "P 1"
_space_group_IT_number       1

loop_
  _space_group_symop_operation_xyz
  'x, y, z'

loop_
  _atom_site_type_symbol
  _atom_site_label
  _atom_site_symmetry_multiplicity
  _atom_site_fract_x
  _atom_site_fract_y
  _atom_site_fract_z
  _atom_site_occupancy
  I   I1        1.0  0.06663433462381363  0.46438708901405334  0.4593597948551178  1.0000
  In  In1       1.0  0.5787108540534973  0.6188560128211975  0.9566773772239685  1.0000
  Ni  Ni1       1.0  0.04255683720111847  0.006966202054172754  0.6480250358581543  1.0000
  Ni  Ni2       1.0  0.049664150923490524  0.875069260597229  0.5943896770477295  1.0000
  Ni  Ni3       1.0  0.5738730430603027  0.31089574098587036  0.917266845703125  1.0000
  Ni  Ni4       1.0  0.5805366635322571  0.586067259311676  0.428916871547699  1.0000
  Ni  Ni5       1.0  0.04527578875422478  0.5364811420440674  0.8619447350502014  1.0000
  Sm  Sm1       1.0  0.025202888995409012  0.9836507439613342  0.9096110463142395  1.0000
  Sm  Sm2       1.0  0.1837507039308548  0.5446329116821289  0.6387644410133362  1.0000
  Sm  Sm3       1.0  0.5732144117355347  0.30205848813056946  0.31545662879943853  1.0000
  Sm  Sm4       1.0  0.5259437561035156  0.16840529441833496  0.33778345584869385  1.0000
  Sm  Sm5       1.0  0.0365859679877758  0.16789400577545166  0.8394957184791565  1.0000
  Sn  Sn1       1.0  0.5720271468162537  0.30402031540870667  0.6120521426200867  1.0000
