data_image0
_chemical_formula_structural       CsInNi6PrSSm3
_chemical_formula_sum              "Cs1 In1 Ni6 Pr1 S1 Sm3"
_cell_length_a       4.258170019858473
_cell_length_b       8.141273397827474
_cell_length_c       9.34848403930664
_cell_angle_alpha    93.5914306435129
_cell_angle_beta     90.07056954715189
_cell_angle_gamma    90.38705548432146

_space_group_name_H-M_alt    "P 1"
_space_group_IT_number       1

loop_
  _space_group_symop_operation_xyz
  'x, y, z'

loop_
  _atom_site_type_symbol
  _atom_site_label
  _atom_site_symmetry_multiplicity
  _atom_site_fract_x
  _atom_site_fract_y
  _atom_site_fract_z
  _atom_site_occupancy
  Cs  Cs1       1.0  0.600456178188324  0.8834009766578674  0.2962663173675537  1.0000
  In  In1       1.0  0.1104220375418663  0.2187628448009491  0.18926846981048584  1.0000
  Ni  Ni1       1.0  0.09947363287210464  0.7358407378196716  0.7560802102088928  1.0000
  Ni  Ni2       1.0  0.08900464326143265  0.016299396753311157  0.7954497933387756  1.0000
  Ni  Ni3       1.0  0.5766922831535339  0.8784621357917786  0.6965454816818237  1.0000
  Ni  Ni4       1.0  0.09969110786914825  0.21747101843357086  0.5163052082061768  1.0000
  Ni  Ni5       1.0  0.10188763588666916  0.3939262330532074  0.17990855872631073  1.0000
  Ni  Ni6       1.0  0.10752658545970917  0.9879751801490784  0.7994073033332825  1.0000
  Pr  Pr1       1.0  0.083505779504776  0.38230815529823303  0.758682906627655  1.0000
  S   S1        1.0  0.6033076643943787  0.7333817481994629  0.14508013427257538  1.0000
  Sm  Sm1       1.0  0.6143795847892761  0.2229515165090561  0.36583590507507324  1.0000
  Sm  Sm2       1.0  0.5494623184204102  0.574569046497345  0.0016975449398160041  1.0000
  Sm  Sm3       1.0  0.09393863379955292  0.531822919845581  0.16388636827468872  1.0000
