data_image0
_chemical_formula_structural       FeIn2Ni4Np3Sm3
_chemical_formula_sum              "Fe1 In2 Ni4 Np3 Sm3"
_cell_length_a       4.360545863945327
_cell_length_b       7.661002805764733
_cell_length_c       8.366135597229004
_cell_angle_alpha    93.63412831842227
_cell_angle_beta     88.85452462948618
_cell_angle_gamma    88.35414960156092

_space_group_name_H-M_alt    "P 1"
_space_group_IT_number       1

loop_
  _space_group_symop_operation_xyz
  'x, y, z'

loop_
  _atom_site_type_symbol
  _atom_site_label
  _atom_site_symmetry_multiplicity
  _atom_site_fract_x
  _atom_site_fract_y
  _atom_site_fract_z
  _atom_site_occupancy
  Fe  Fe1       1.0  0.9247288703918457  0.9888525605201722  0.7028486728668213  1.0000
  In  In1       1.0  0.4278387725353241  0.688682496547699  0.32197317481040955  1.0000
  In  In2       1.0  0.9212133288383484  0.9292883872985841  0.8133885860443115  1.0000
  Ni  Ni1       1.0  0.4411170780658722  0.670412003993988  0.47365114092826843  1.0000
  Ni  Ni2       1.0  0.4263256788253784  0.2589792311191559  0.3611830174922943  1.0000
  Ni  Ni3       1.0  0.9129583835601807  0.20197053253650665  0.18294237554073334  1.0000
  Ni  Ni4       1.0  0.4259696900844574  0.6080735921859741  0.02033429779112339  1.0000
  Np  Np1       1.0  0.4253833591938019  0.007517685648053885  0.45693060755729675  1.0000
  Np  Np2       1.0  0.41092824935913086  0.12325721234083177  0.5276720523834229  1.0000
  Np  Np3       1.0  0.9440059065818787  0.14720287919044495  0.057092536240816116  1.0000
  Sm  Sm1       1.0  0.9292353987693787  0.7338910102844238  0.07931166887283325  1.0000
  Sm  Sm2       1.0  0.4499352276325226  0.5337696671485901  0.1702050417661667  1.0000
  Sm  Sm3       1.0  0.9189569354057312  0.3678377568721771  0.5558093190193176  1.0000
