data_image0
_chemical_formula_structural       InNi3Np3Sm6
_chemical_formula_sum              "In1 Ni3 Np3 Sm6"
_cell_length_a       3.244570883737654
_cell_length_b       6.034857864390958
_cell_length_c       9.264396667480469
_cell_angle_alpha    90.40858395310494
_cell_angle_beta     84.73602684849554
_cell_angle_gamma    134.0413196086798

_space_group_name_H-M_alt    "P 1"
_space_group_IT_number       1

loop_
  _space_group_symop_operation_xyz
  'x, y, z'

loop_
  _atom_site_type_symbol
  _atom_site_label
  _atom_site_symmetry_multiplicity
  _atom_site_fract_x
  _atom_site_fract_y
  _atom_site_fract_z
  _atom_site_occupancy
  In  In1       1.0  0.26733237504959106  0.5628292560577393  0.5859694480895996  1.0000
  Ni  Ni1       1.0  0.3203970789909363  0.7516379356384277  0.04873018339276314  1.0000
  Ni  Ni2       1.0  0.7851048111915587  0.10441024601459503  0.2146507352590561  1.0000
  Ni  Ni3       1.0  0.8006885647773742  0.2949140667915344  0.3536577820777893  1.0000
  Np  Np1       1.0  0.29761531949043274  0.2901133596897125  0.3991064429283142  1.0000
  Np  Np2       1.0  0.29923027753829956  0.8139694333076477  0.5315163731575011  1.0000
  Np  Np3       1.0  0.28342607617378235  0.33143866062164307  0.15354086458683014  1.0000
  Sm  Sm1       1.0  0.2852722704410553  0.7159824967384338  0.8625618815422057  1.0000
  Sm  Sm2       1.0  0.280669629573822  0.8635243773460388  0.3057694435119629  1.0000
  Sm  Sm3       1.0  0.7584245800971984  0.6140682101249695  0.39931201934814453  1.0000
  Sm  Sm4       1.0  0.7641124725341796  0.5925087928771973  0.8613560795783997  1.0000
  Sm  Sm5       1.0  0.8085726499557494  0.07372350990772247  0.21323034167289734  1.0000
  Sm  Sm6       1.0  0.29790839552879333  0.015985805541276932  0.3109385669231415  1.0000
