data_image0
_chemical_formula_structural       LuPbSnZnZr2
_chemical_formula_sum              "Lu1 Pb1 Sn1 Zn1 Zr2"
_cell_length_a       4.025551276610136
_cell_length_b       6.503693804731287
_cell_length_c       7.353930950164795
_cell_angle_alpha    118.6637192871264
_cell_angle_beta     88.71717401686455
_cell_angle_gamma    88.87779558802623

_space_group_name_H-M_alt    "P 1"
_space_group_IT_number       1

loop_
  _space_group_symop_operation_xyz
  'x, y, z'

loop_
  _atom_site_type_symbol
  _atom_site_label
  _atom_site_symmetry_multiplicity
  _atom_site_fract_x
  _atom_site_fract_y
  _atom_site_fract_z
  _atom_site_occupancy
  Lu  Lu1       1.0  0.8266310095787048  0.17054735124111176  0.6962423324584961  1.0000
  Pb  Pb1       1.0  0.814091682434082  0.2629528343677521  0.31501370668411255  1.0000
  Sn  Sn1       1.0  0.31327834725379944  0.7904300689697266  0.16517575085163116  1.0000
  Zn  Zn1       1.0  0.5536490678787231  0.3415950536727905  0.7330141067504883  1.0000
  Zr  Zr1       1.0  0.31413233280181885  0.33290040493011475  0.9581617116928101  1.0000
  Zr  Zr2       1.0  0.7815736532211304  0.6419065594673157  0.1618254780769348  1.0000
