data_image0
_chemical_formula_structural       I2Zr4
_chemical_formula_sum              "I2 Zr4"
_cell_length_a       4.994436085620354
_cell_length_b       7.345236941925121
_cell_length_c       6.533404350280762
_cell_angle_alpha    130.71610932591946
_cell_angle_beta     83.47204966461607
_cell_angle_gamma    87.55015819753886

_space_group_name_H-M_alt    "P 1"
_space_group_IT_number       1

loop_
  _space_group_symop_operation_xyz
  'x, y, z'

loop_
  _atom_site_type_symbol
  _atom_site_label
  _atom_site_symmetry_multiplicity
  _atom_site_fract_x
  _atom_site_fract_y
  _atom_site_fract_z
  _atom_site_occupancy
  I   I1        1.0  0.1572209596633911  0.9045597314834595  0.668487787246704  1.0000
  I   I2        1.0  0.6528563499450684  0.19780327379703522  0.03547606244683262  1.0000
  Zr  Zr1       1.0  0.6542326211929321  0.8833729028701782  0.8155828118324279  1.0000
  Zr  Zr2       1.0  0.15376368165016174  0.4201146364212036  0.8443773984909058  1.0000
  Zr  Zr3       1.0  0.6526888012886047  0.38359546661376953  0.6283187866210938  1.0000
  Zr  Zr4       1.0  0.15345756709575653  0.85872882604599  0.8257689476013182  1.0000
