data_image0
_chemical_formula_structural       Ga3LiPtZnZr
_chemical_formula_sum              "Ga3 Li1 Pt1 Zn1 Zr1"
_cell_length_a       5.483962872425626
_cell_length_b       5.511718526066822
_cell_length_c       5.87920618057251
_cell_angle_alpha    66.03042714036185
_cell_angle_beta     69.36639191164637
_cell_angle_gamma    68.59808940706618

_space_group_name_H-M_alt    "P 1"
_space_group_IT_number       1

loop_
  _space_group_symop_operation_xyz
  'x, y, z'

loop_
  _atom_site_type_symbol
  _atom_site_label
  _atom_site_symmetry_multiplicity
  _atom_site_fract_x
  _atom_site_fract_y
  _atom_site_fract_z
  _atom_site_occupancy
  Ga  Ga1       1.0  0.7265160083770752  0.05300987511873245  0.02810019813477993  1.0000
  Ga  Ga2       1.0  0.728898286819458  0.4889981746673584  0.7212510704994202  1.0000
  Ga  Ga3       1.0  0.23507016897201538  0.06221124529838562  0.034123629331588745  1.0000
  Li  Li1       1.0  0.7066138386726379  0.596611738204956  0.9759950637817383  1.0000
  Pt  Pt1       1.0  0.7000961303710938  0.397075891494751  0.22256909310817719  1.0000
  Zn  Zn1       1.0  0.1942441612482071  0.31674715876579285  0.3830208480358124  1.0000
  Zr  Zr1       1.0  0.21140246093273163  0.3737434148788452  0.8003811240196228  1.0000
