data_image0
_chemical_formula_structural       Ga3PPdVZr
_chemical_formula_sum              "Ga3 P1 Pd1 V1 Zr1"
_cell_length_a       3.9023457041809553
_cell_length_b       3.9495646224940217
_cell_length_c       4.875452995300293
_cell_angle_alpha    135.88320068049637
_cell_angle_beta     88.95118195263905
_cell_angle_gamma    96.34419171217945

_space_group_name_H-M_alt    "P 1"
_space_group_IT_number       1

loop_
  _space_group_symop_operation_xyz
  'x, y, z'

loop_
  _atom_site_type_symbol
  _atom_site_label
  _atom_site_symmetry_multiplicity
  _atom_site_fract_x
  _atom_site_fract_y
  _atom_site_fract_z
  _atom_site_occupancy
  Ga  Ga1       1.0  0.8467253446578981  0.45682492852211  0.2022933065891266  1.0000
  Ga  Ga2       1.0  0.3608138859272003  0.7683265805244446  0.3495037853717804  1.0000
  Ga  Ga3       1.0  0.8547387123107911  0.08276166021823889  0.9671410918235779  1.0000
  P   P1        1.0  0.3395761549472809  0.7758994698524472  0.9950702786445617  1.0000
  Pd  Pd1       1.0  0.3377620279788971  0.5454797148704529  0.5144168734550476  1.0000
  V   V1        1.0  0.8397362232208253  0.8001553416252137  0.1955638974905014  1.0000
  Zr  Zr1       1.0  0.8443530797958375  0.484132081270218  0.5382907390594484  1.0000
