data_image0
_chemical_formula_structural       Ca3FGa3IPtV
_chemical_formula_sum              "Ca3 F1 Ga3 I1 Pt1 V1"
_cell_length_a       5.289845474240233
_cell_length_b       5.419692656816716
_cell_length_c       8.735836029052734
_cell_angle_alpha    90.99697846384714
_cell_angle_beta     89.7921210944792
_cell_angle_gamma    114.75499262994758

_space_group_name_H-M_alt    "P 1"
_space_group_IT_number       1

loop_
  _space_group_symop_operation_xyz
  'x, y, z'

loop_
  _atom_site_type_symbol
  _atom_site_label
  _atom_site_symmetry_multiplicity
  _atom_site_fract_x
  _atom_site_fract_y
  _atom_site_fract_z
  _atom_site_occupancy
  Ca  Ca1       1.0  0.8104239106178284  0.9545971155166626  0.05392676591873169  1.0000
  Ca  Ca2       1.0  0.31053754687309265  0.01821994036436081  0.29663485288619995  1.0000
  Ca  Ca3       1.0  0.8111146688461304  0.7264689207077026  0.47590380907058716  1.0000
  F   F1        1.0  0.8175153732299805  0.36927109956741333  0.2975784242153168  1.0000
  Ga  Ga1       1.0  0.8094216585159302  0.37384873628616333  0.09614627808332443  1.0000
  Ga  Ga2       1.0  0.8082926869392395  0.4101303219795227  0.2752053737640381  1.0000
  Ga  Ga3       1.0  0.30731484293937683  0.39486923813819885  0.19370527565479279  1.0000
  I   I1        1.0  0.3107239305973053  0.5357497334480286  0.6356034874916077  1.0000
  Pt  Pt1       1.0  0.3112192749977112  0.49457672238349915  0.9950439929962158  1.0000
  V   V1        1.0  0.31091225147247314  0.3920362889766693  0.473119854927063  1.0000
