data_image0
_chemical_formula_structural       Ca3Ga3HIPPt
_chemical_formula_sum              "Ca3 Ga3 H1 I1 P1 Pt1"
_cell_length_a       7.125809570595973
_cell_length_b       7.006275741613264
_cell_length_c       8.574494361877441
_cell_angle_alpha    104.60496816465108
_cell_angle_beta     106.06317123496868
_cell_angle_gamma    114.1272595685826

_space_group_name_H-M_alt    "P 1"
_space_group_IT_number       1

loop_
  _space_group_symop_operation_xyz
  'x, y, z'

loop_
  _atom_site_type_symbol
  _atom_site_label
  _atom_site_symmetry_multiplicity
  _atom_site_fract_x
  _atom_site_fract_y
  _atom_site_fract_z
  _atom_site_occupancy
  Ca  Ca1       1.0  0.1443297117948532  0.8558265566825867  0.7255403399467468  1.0000
  Ca  Ca2       1.0  0.1621016263961792  0.9289810061454773  0.3956765234470367  1.0000
  Ca  Ca3       1.0  0.6603237390518188  0.6292903423309326  0.28721815347671503  1.0000
  Ga  Ga1       1.0  0.4990496039390564  0.35537225008010864  0.046741239726543427  1.0000
  Ga  Ga2       1.0  0.8209890723228455  0.21584784984588623  0.5213373899459839  1.0000
  Ga  Ga3       1.0  0.6414175033569336  0.12005749344825745  0.1873560845851898  1.0000
  H   H1        1.0  0.14468906819820404  0.08981844037771225  0.18927928805351257  1.0000
  I   I1        1.0  0.14417104423046112  0.8453543186187744  0.842520534992218  1.0000
  P   P1        1.0  0.6986379027366638  0.765342116355896  0.1361393928527832  1.0000
  Pt  Pt1       1.0  0.41068747639656067  0.15704381465911865  0.8524313569068909  1.0000
