data_image0
_chemical_formula_structural       Ca10
_chemical_formula_sum              "Ca10"
_cell_length_a       6.5481952429508645
_cell_length_b       6.63481788986342
_cell_length_c       6.780078411102295
_cell_angle_alpha    106.99658029590695
_cell_angle_beta     103.02020323851102
_cell_angle_gamma    106.9999192449877

_space_group_name_H-M_alt    "P 1"
_space_group_IT_number       1

loop_
  _space_group_symop_operation_xyz
  'x, y, z'

loop_
  _atom_site_type_symbol
  _atom_site_label
  _atom_site_symmetry_multiplicity
  _atom_site_fract_x
  _atom_site_fract_y
  _atom_site_fract_z
  _atom_site_occupancy
  Ca  Ca1       1.0  0.5302119255065918  0.9872119426727296  0.38219207525253296  1.0000
  Ca  Ca2       1.0  0.5369980931282043  0.44983229041099554  0.6977317929267883  1.0000
  Ca  Ca3       1.0  0.03518599271774292  0.09799470752477647  0.6444148421287537  1.0000
  Ca  Ca4       1.0  0.03532702475786209  0.6749899983406067  0.98472261428833  1.0000
  Ca  Ca5       1.0  0.5370240211486816  0.16967855393886566  0.24392776191234586  1.0000
  Ca  Ca6       1.0  0.5361241698265076  0.4984583258628846  0.2872885167598724  1.0000
  Ca  Ca7       1.0  0.5150911211967468  0.7498940229415895  0.6486657857894897  1.0000
  Ca  Ca8       1.0  0.036594994366168976  0.013823612593114378  0.25685274600982666  1.0000
  Ca  Ca9       1.0  0.028145501390099532  0.1972470283508301  0.8533306121826172  1.0000
  Ca  Ca10      1.0  0.9036685824394226  0.33531445264816284  0.8715117573738098  1.0000
