data_image0
_chemical_formula_structural       Ca10
_chemical_formula_sum              "Ca10"
_cell_length_a       6.374822994561704
_cell_length_b       6.327973099405398
_cell_length_c       6.462796211242676
_cell_angle_alpha    102.21824149161638
_cell_angle_beta     108.43546653459336
_cell_angle_gamma    114.19886030409143

_space_group_name_H-M_alt    "P 1"
_space_group_IT_number       1

loop_
  _space_group_symop_operation_xyz
  'x, y, z'

loop_
  _atom_site_type_symbol
  _atom_site_label
  _atom_site_symmetry_multiplicity
  _atom_site_fract_x
  _atom_site_fract_y
  _atom_site_fract_z
  _atom_site_occupancy
  Ca  Ca1       1.0  0.3586483895778656  0.111712746322155  0.22235915064811707  1.0000
  Ca  Ca2       1.0  0.9102740883827208  0.9473239183425903  0.9602711796760559  1.0000
  Ca  Ca3       1.0  0.8760740756988524  0.10916634649038315  0.24348634481430054  1.0000
  Ca  Ca4       1.0  0.36367157101631165  0.10200682282447815  0.506241500377655  1.0000
  Ca  Ca5       1.0  0.8679012060165404  0.21292336285114288  0.8991712927818298  1.0000
  Ca  Ca6       1.0  0.5824986100196838  0.3464243412017822  0.45388761162757874  1.0000
  Ca  Ca7       1.0  0.8719093799591063  0.5136983394622803  0.3145671486854553  1.0000
  Ca  Ca8       1.0  0.9241281151771544  0.5782063007354736  0.12812842428684235  1.0000
  Ca  Ca9       1.0  0.8951271772384642  0.3172362744808197  0.7632408142089844  1.0000
  Ca  Ca10      1.0  0.8869858384132384  0.04049966111779213  0.7003799676895142  1.0000
