data_image0
_chemical_formula_structural       Ca2FGa3IPt2Zn
_chemical_formula_sum              "Ca2 F1 Ga3 I1 Pt2 Zn1"
_cell_length_a       5.57144638457177
_cell_length_b       5.999741484119674
_cell_length_c       6.9874958992004395
_cell_angle_alpha    89.31650234678646
_cell_angle_beta     91.02918145933985
_cell_angle_gamma    91.77457089509103

_space_group_name_H-M_alt    "P 1"
_space_group_IT_number       1

loop_
  _space_group_symop_operation_xyz
  'x, y, z'

loop_
  _atom_site_type_symbol
  _atom_site_label
  _atom_site_symmetry_multiplicity
  _atom_site_fract_x
  _atom_site_fract_y
  _atom_site_fract_z
  _atom_site_occupancy
  Ca  Ca1       1.0  0.4427920579910278  0.020191460847854614  0.08967293798923492  1.0000
  Ca  Ca2       1.0  0.9546822905540465  0.9891856908798218  0.10581888258457184  1.0000
  F   F1        1.0  0.9406463503837584  0.22098442912101746  0.8928106427192688  1.0000
  Ga  Ga1       1.0  0.4553748965263366  0.6157057285308838  0.40355509519577026  1.0000
  Ga  Ga2       1.0  0.45789083838462824  0.17206181585788727  0.19915321469306946  1.0000
  Ga  Ga3       1.0  0.9670632481575011  0.9256258010864258  0.9899702668190002  1.0000
  I   I1        1.0  0.4609288573265075  0.6270796060562134  0.04361821711063385  1.0000
  Pt  Pt1       1.0  0.9636617898941039  0.007832098752260208  0.2086125761270523  1.0000
  Pt  Pt2       1.0  0.9666944742202758  0.0523635670542717  0.4740506708621979  1.0000
  Zn  Zn1       1.0  0.7144610285758972  0.7194468379020691  0.5685022473335266  1.0000
