data_image0
_chemical_formula_structural       Ga4IN2PPtZn
_chemical_formula_sum              "Ga4 I1 N2 P1 Pt1 Zn1"
_cell_length_a       2.4594272173369194
_cell_length_b       5.675864734052274
_cell_length_c       6.2928948402404785
_cell_angle_alpha    88.55824948859791
_cell_angle_beta     120.3960749990773
_cell_angle_gamma    78.07328916793854

_space_group_name_H-M_alt    "P 1"
_space_group_IT_number       1

loop_
  _space_group_symop_operation_xyz
  'x, y, z'

loop_
  _atom_site_type_symbol
  _atom_site_label
  _atom_site_symmetry_multiplicity
  _atom_site_fract_x
  _atom_site_fract_y
  _atom_site_fract_z
  _atom_site_occupancy
  Ga  Ga1       1.0  0.42803409695625305  0.6292939186096191  0.0768713653087616  1.0000
  Ga  Ga2       1.0  0.9758964776992798  0.2916051745414734  0.34615346789360046  1.0000
  Ga  Ga3       1.0  0.4748685359954834  0.6209056973457336  0.9842491149902345  1.0000
  Ga  Ga4       1.0  0.7328851819038391  0.8345729112625122  0.9681425690650941  1.0000
  I   I1        1.0  0.20176063477993011  0.5203368663787842  0.5551704168319702  1.0000
  N   N1        1.0  0.9504490494728088  0.7843627333641052  0.5602073073387146  1.0000
  N   N2        1.0  0.4268949329853058  0.2656663656234741  0.29601696133613586  1.0000
  P   P1        1.0  0.024171287193894386  0.18844683468341827  0.7039854526519775  1.0000
  Pt  Pt1       1.0  0.35522302985191345  0.0715155154466629  0.8608543276786805  1.0000
  Zn  Zn1       1.0  0.4974776804447174  0.08387164771556854  0.681725263595581  1.0000
