data_image0
_chemical_formula_structural       GeHO6Os3
_chemical_formula_sum              "Ge1 H1 O6 Os3"
_cell_length_a       6.228694781416244
_cell_length_b       6.210121350383889
_cell_length_c       6.508827209472656
_cell_angle_alpha    58.95330407316221
_cell_angle_beta     58.98615708964415
_cell_angle_gamma    59.41731534472988

_space_group_name_H-M_alt    "P 1"
_space_group_IT_number       1

loop_
  _space_group_symop_operation_xyz
  'x, y, z'

loop_
  _atom_site_type_symbol
  _atom_site_label
  _atom_site_symmetry_multiplicity
  _atom_site_fract_x
  _atom_site_fract_y
  _atom_site_fract_z
  _atom_site_occupancy
  Ge  Ge1       1.0  0.296029269695282  0.8362325429916382  0.30368030071258545  1.0000
  H   H1        1.0  0.0374300479888916  0.6115514636039734  0.28280603885650635  1.0000
  O   O1        1.0  0.3101140558719635  0.14120997488498688  0.28491857647895813  1.0000
  O   O2        1.0  0.9635726213455201  0.01361679844558239  0.9966814517974851  1.0000
  O   O3        1.0  0.6528828740119934  0.18917503952980042  0.8693302869796753  1.0000
  O   O4        1.0  0.37762749195098877  0.2832077145576477  0.09461483359336853  1.0000
  O   O5        1.0  0.8528538346290588  0.6130797266960144  0.2910020053386688  1.0000
  O   O6        1.0  0.3549294173717499  0.4892970025539398  0.21738693118095398  1.0000
  Os  Os1       1.0  0.8609098196029663  0.6063120365142822  0.8989966511726379  1.0000
  Os  Os2       1.0  0.9773871898651124  0.5298528075218201  0.6521221399307251  1.0000
  Os  Os3       1.0  0.8431097865104675  0.7314552664756775  0.21409490704536438  1.0000
