data_image0
_chemical_formula_structural       AuGeO7SeSi
_chemical_formula_sum              "Au1 Ge1 O7 Se1 Si1"
_cell_length_a       6.97358445735777
_cell_length_b       7.108336420370479
_cell_length_c       7.258603096008301
_cell_angle_alpha    61.64614837522304
_cell_angle_beta     61.928798662106736
_cell_angle_gamma    62.12416687872371

_space_group_name_H-M_alt    "P 1"
_space_group_IT_number       1

loop_
  _space_group_symop_operation_xyz
  'x, y, z'

loop_
  _atom_site_type_symbol
  _atom_site_label
  _atom_site_symmetry_multiplicity
  _atom_site_fract_x
  _atom_site_fract_y
  _atom_site_fract_z
  _atom_site_occupancy
  Au  Au1       1.0  0.18624423444271088  0.6892139911651611  0.4342647194862366  1.0000
  Ge  Ge1       1.0  0.709088146686554  0.23915879428386688  0.4737800657749176  1.0000
  O   O1        1.0  0.6591739058494568  0.038608670234680176  0.3365527093410492  1.0000
  O   O2        1.0  0.8295981884002686  0.6279525756835938  0.7017211318016052  1.0000
  O   O3        1.0  0.32741695642471313  0.5287230014801025  0.29299625754356384  1.0000
  O   O4        1.0  0.6561140418052673  0.036628518253564835  0.4815092086791992  1.0000
  O   O5        1.0  0.5763506889343262  0.47496017813682556  0.5395625233650208  1.0000
  O   O6        1.0  0.030495399609208107  0.5430391430854797  0.9897592663764954  1.0000
  O   O7        1.0  0.32787826657295227  0.6285330057144165  0.906889796257019  1.0000
  Se  Se1       1.0  0.3443569839000702  0.15075425803661346  0.5959335565567017  1.0000
  Si  Si1       1.0  0.9700747132301331  0.7630264759063721  0.1871776431798935  1.0000
