data_image0
_chemical_formula_structural       NaOOs9
_chemical_formula_sum              "Na1 O1 Os9"
_cell_length_a       3.5151606921857983
_cell_length_b       7.059307316515498
_cell_length_c       6.8707356452941895
_cell_angle_alpha    131.23816229602244
_cell_angle_beta     88.39468886870249
_cell_angle_gamma    89.36924201426015

_space_group_name_H-M_alt    "P 1"
_space_group_IT_number       1

loop_
  _space_group_symop_operation_xyz
  'x, y, z'

loop_
  _atom_site_type_symbol
  _atom_site_label
  _atom_site_symmetry_multiplicity
  _atom_site_fract_x
  _atom_site_fract_y
  _atom_site_fract_z
  _atom_site_occupancy
  Na  Na1       1.0  0.7612861990928651  0.758937418460846  0.7113852500915527  1.0000
  O   O1        1.0  0.7718114852905275  0.6951733231544495  0.9334859848022461  1.0000
  Os  Os1       1.0  0.262066125869751  0.790248692035675  0.8833619952201843  1.0000
  Os  Os2       1.0  0.7628009915351869  0.9472297430038452  0.7016844153404237  1.0000
  Os  Os3       1.0  0.2614085078239441  0.3884536027908325  0.45937591791152954  1.0000
  Os  Os4       1.0  0.26288139820098877  0.7621961236000061  0.951324462890625  1.0000
  Os  Os5       1.0  0.7608760595321656  0.9321419596672058  0.5669070482254028  1.0000
  Os  Os6       1.0  0.26615020632743835  0.14922316372394562  0.028149116784334197  1.0000
  Os  Os7       1.0  0.26584523916244507  0.6053102612495422  0.13786646723747253  1.0000
  Os  Os8       1.0  0.7652810811996461  0.9306827783584595  0.6821710467338562  1.0000
  Os  Os9       1.0  0.7648180127143861  0.48674583435058594  0.12904673814773565  1.0000
