data_image0
_chemical_formula_structural       Na2OOs8
_chemical_formula_sum              "Na2 O1 Os8"
_cell_length_a       3.911471658396349
_cell_length_b       6.475119847734991
_cell_length_c       5.8069000244140625
_cell_angle_alpha    128.4962446411236
_cell_angle_beta     89.62884262391248
_cell_angle_gamma    86.31238046671999

_space_group_name_H-M_alt    "P 1"
_space_group_IT_number       1

loop_
  _space_group_symop_operation_xyz
  'x, y, z'

loop_
  _atom_site_type_symbol
  _atom_site_label
  _atom_site_symmetry_multiplicity
  _atom_site_fract_x
  _atom_site_fract_y
  _atom_site_fract_z
  _atom_site_occupancy
  Na  Na1       1.0  0.36504432559013367  0.8198462128639221  0.4876958727836608  1.0000
  Na  Na2       1.0  0.8641498684883118  0.969729483127594  0.2905653417110443  1.0000
  O   O1        1.0  0.36684635281562805  0.15510931611061096  0.761703610420227  1.0000
  Os  Os1       1.0  0.3676188290119171  0.49989354610443115  0.1510202139616013  1.0000
  Os  Os2       1.0  0.8669514060020447  0.19853776693344116  0.33395931124687195  1.0000
  Os  Os3       1.0  0.865034818649292  0.25359484553337097  0.005640340037643871  1.0000
  Os  Os4       1.0  0.8637782335281372  0.46294164657592773  0.8874821066856384  1.0000
  Os  Os5       1.0  0.8660141825675964  0.7638617753982544  0.7544305324554443  1.0000
  Os  Os6       1.0  0.3653603792190552  0.1066451445221901  0.3370206356048584  1.0000
  Os  Os7       1.0  0.3670547306537628  0.16015508770942688  0.7505550980567932  1.0000
  Os  Os8       1.0  0.8671778440475464  0.8370521664619446  0.148036241531372  1.0000
