data_image0
_chemical_formula_structural       GdNa2O4Os4
_chemical_formula_sum              "Gd1 Na2 O4 Os4"
_cell_length_a       6.2065004565249655
_cell_length_b       5.907962508165538
_cell_length_c       6.417294025421143
_cell_angle_alpha    61.05584800704176
_cell_angle_beta     60.539000521136714
_cell_angle_gamma    60.047871212897945

_space_group_name_H-M_alt    "P 1"
_space_group_IT_number       1

loop_
  _space_group_symop_operation_xyz
  'x, y, z'

loop_
  _atom_site_type_symbol
  _atom_site_label
  _atom_site_symmetry_multiplicity
  _atom_site_fract_x
  _atom_site_fract_y
  _atom_site_fract_z
  _atom_site_occupancy
  Gd  Gd1       1.0  0.2468980848789215  0.25827378034591675  0.1211070418357849  1.0000
  Na  Na1       1.0  0.7625852227210999  0.8105806708335876  0.43596953153610224  1.0000
  Na  Na2       1.0  0.2398412972688675  0.2556564211845398  0.239015519618988  1.0000
  O   O1        1.0  0.06471145898103714  0.4200471341609955  0.6655287146568298  1.0000
  O   O2        1.0  0.7525147795677185  0.3330957293510437  0.3906741738319396  1.0000
  O   O3        1.0  0.7749817371368408  0.49679338932037354  0.05482470244169228  1.0000
  O   O4        1.0  0.5035932660102844  0.8362044095993042  0.3533690273761748  1.0000
  Os  Os1       1.0  0.765089213848114  0.247355118393898  0.7350777387619019  1.0000
  Os  Os2       1.0  0.13758116960525513  0.07821083813905716  0.9985037446022033  1.0000
  Os  Os3       1.0  0.6647157073020935  0.0067104739136993885  0.778437614440918  1.0000
  Os  Os4       1.0  0.2607974410057068  0.8121976256370544  0.3110027611255646  1.0000
