data_image0
_chemical_formula_structural       NaNbO6Os3
_chemical_formula_sum              "Na1 Nb1 O6 Os3"
_cell_length_a       5.788724454303296
_cell_length_b       5.591864795130458
_cell_length_c       6.2648138999938965
_cell_angle_alpha    63.675386067990914
_cell_angle_beta     61.81259143905578
_cell_angle_gamma    60.829929093129216

_space_group_name_H-M_alt    "P 1"
_space_group_IT_number       1

loop_
  _space_group_symop_operation_xyz
  'x, y, z'

loop_
  _atom_site_type_symbol
  _atom_site_label
  _atom_site_symmetry_multiplicity
  _atom_site_fract_x
  _atom_site_fract_y
  _atom_site_fract_z
  _atom_site_occupancy
  Na  Na1       1.0  0.2404736876487732  0.32293084263801575  0.20076510310173035  1.0000
  Nb  Nb1       1.0  0.2302735298871994  0.5866550207138062  0.9080227613449097  1.0000
  O   O1        1.0  0.9637442231178284  0.5058438777923584  0.33239161968231196  1.0000
  O   O2        1.0  0.5292801856994629  0.68267422914505  0.23589088022708893  1.0000
  O   O3        1.0  0.4663833975791931  0.776546061038971  0.635543167591095  1.0000
  O   O4        1.0  0.9838628768920898  0.294803261756897  0.3653947412967681  1.0000
  O   O5        1.0  0.9550871253013611  0.25264567136764526  0.37704983353614796  1.0000
  O   O6        1.0  0.9904332756996155  0.9682987928390503  0.9918901920318604  1.0000
  Os  Os1       1.0  0.04760205000638962  0.26754745841026306  0.544121265411377  1.0000
  Os  Os2       1.0  0.6675373911857605  0.5093884468078613  0.75835120677948  1.0000
  Os  Os3       1.0  0.5446557998657227  0.4315449297428131  0.9856663942337036  1.0000
