data_image0
_chemical_formula_structural       AgBaIn2STiV
_chemical_formula_sum              "Ag1 Ba1 In2 S1 Ti1 V1"
_cell_length_a       4.597603158208035
_cell_length_b       4.907255742528249
_cell_length_c       8.387056350708008
_cell_angle_alpha    90.03923884904101
_cell_angle_beta     89.75291131066182
_cell_angle_gamma    118.92536352991984

_space_group_name_H-M_alt    "P 1"
_space_group_IT_number       1

loop_
  _space_group_symop_operation_xyz
  'x, y, z'

loop_
  _atom_site_type_symbol
  _atom_site_label
  _atom_site_symmetry_multiplicity
  _atom_site_fract_x
  _atom_site_fract_y
  _atom_site_fract_z
  _atom_site_occupancy
  Ag  Ag1       1.0  0.701340913772583  0.8390782475471497  0.8224867582321167  1.0000
  Ba  Ba1       1.0  0.9555931687355042  0.4425809979438782  0.41658666729927063  1.0000
  In  In1       1.0  0.05011466518044472  0.8804219365119934  0.317170113325119  1.0000
  In  In2       1.0  0.40538036823272705  0.9546889066696167  0.5840997099876404  1.0000
  S   S1        1.0  0.4322056174278259  0.9310930371284485  0.5412499308586121  1.0000
  Ti  Ti1       1.0  0.5238022804260254  0.4220650792121887  0.07483947277069092  1.0000
  V   V1        1.0  0.3812223970890045  0.5856316089630127  0.07718664407730103  1.0000
