data_image0
_chemical_formula_structural       FLiP2Pb2PtV5
_chemical_formula_sum              "F1 Li1 P2 Pb2 Pt1 V5"
_cell_length_a       4.556989503415465
_cell_length_b       5.821305746925875
_cell_length_c       6.474359035491943
_cell_angle_alpha    125.12261122946165
_cell_angle_beta     89.23777627114002
_cell_angle_gamma    85.62848855881143

_space_group_name_H-M_alt    "P 1"
_space_group_IT_number       1

loop_
  _space_group_symop_operation_xyz
  'x, y, z'

loop_
  _atom_site_type_symbol
  _atom_site_label
  _atom_site_symmetry_multiplicity
  _atom_site_fract_x
  _atom_site_fract_y
  _atom_site_fract_z
  _atom_site_occupancy
  F   F1        1.0  0.38128775358200073  0.14467041194438934  0.9224575161933899  1.0000
  Li  Li1       1.0  0.4122820794582367  0.05128926411271095  0.10850510746240616  1.0000
  P   P1        1.0  0.4192669093608856  0.9603983163833618  0.9652411937713623  1.0000
  P   P2        1.0  0.9128010272979736  0.9858149886131287  0.19584718346595764  1.0000
  Pb  Pb1       1.0  0.14951558411121368  0.2420755922794342  0.6249447464942932  1.0000
  Pb  Pb2       1.0  0.914242148399353  0.3129397928714752  0.3532775044441223  1.0000
  Pt  Pt1       1.0  0.9181904792785645  0.8927974700927734  0.9827325344085693  1.0000
  V   V1        1.0  0.415252149105072  0.9472291469573975  0.07973769307136529  1.0000
  V   V2        1.0  0.41539666056632996  0.4960993826389313  0.32757025957107544  1.0000
  V   V3        1.0  0.900007963180542  0.0997101292014122  0.6690160632133484  1.0000
  V   V4        1.0  0.41607406735420227  0.930407702922821  0.15541782975196838  1.0000
  V   V5        1.0  0.9128798842430115  0.2591661512851715  0.6062169075012207  1.0000
