data_image0
_chemical_formula_structural       FV11
_chemical_formula_sum              "F1 V11"
_cell_length_a       4.606008262661785
_cell_length_b       3.9160357618698236
_cell_length_c       5.622920513153076
_cell_angle_alpha    136.76975412150813
_cell_angle_beta     91.70636807185087
_cell_angle_gamma    90.7805245642356

_space_group_name_H-M_alt    "P 1"
_space_group_IT_number       1

loop_
  _space_group_symop_operation_xyz
  'x, y, z'

loop_
  _atom_site_type_symbol
  _atom_site_label
  _atom_site_symmetry_multiplicity
  _atom_site_fract_x
  _atom_site_fract_y
  _atom_site_fract_z
  _atom_site_occupancy
  F   F1        1.0  0.5291564464569092  0.47916838526725775  0.634457528591156  1.0000
  V   V1        1.0  0.04892677813768387  0.4305175244808198  0.4960494041442872  1.0000
  V   V2        1.0  0.57697594165802  0.8714818358421327  0.4341736733913422  1.0000
  V   V3        1.0  0.06528493762016296  0.5764986872673036  0.23015511035919192  1.0000
  V   V4        1.0  0.5620326995849609  0.22017300128936784  0.7013055682182313  1.0000
  V   V5        1.0  0.5732570886611938  0.29152196645736705  0.6411885023117067  1.0000
  V   V6        1.0  0.5366003513336182  0.5296390652656555  0.020054262131452553  1.0000
  V   V7        1.0  0.22389815747737885  0.22346849739551544  0.018381340429186814  1.0000
  V   V8        1.0  0.048159319907426834  0.5767359137535095  0.11800619214773178  1.0000
  V   V9        1.0  0.5442872047424316  0.9643363356590274  0.9003232717514039  1.0000
  V   V10       1.0  0.043063148856163025  0.48477914929389954  0.13167811930179596  1.0000
  V   V11       1.0  0.5482935905456543  0.8037719130516053  0.9321979284286499  1.0000
