data_image0
_chemical_formula_structural       F2GaV8Zr
_chemical_formula_sum              "F2 Ga1 V8 Zr1"
_cell_length_a       5.253869959987892
_cell_length_b       4.291371477809057
_cell_length_c       6.5777907371521
_cell_angle_alpha    154.9702814853506
_cell_angle_beta     89.23313028966592
_cell_angle_gamma    83.95450845332078

_space_group_name_H-M_alt    "P 1"
_space_group_IT_number       1

loop_
  _space_group_symop_operation_xyz
  'x, y, z'

loop_
  _atom_site_type_symbol
  _atom_site_label
  _atom_site_symmetry_multiplicity
  _atom_site_fract_x
  _atom_site_fract_y
  _atom_site_fract_z
  _atom_site_occupancy
  F   F1        1.0  0.3046557903289795  0.6870839595794677  0.6168250441551208  1.0000
  F   F2        1.0  0.7812960147857666  0.6467163562774659  0.11534638702869421  1.0000
  Ga  Ga1       1.0  0.9704718589782715  0.7038281559944152  0.5038006901741028  1.0000
  V   V1        1.0  0.7907998561859131  0.9475635886192321  0.17383742332458496  1.0000
  V   V2        1.0  0.7916722893714905  0.7078356146812439  0.14716395735740664  1.0000
  V   V3        1.0  0.977911114692688  0.8627653121948244  0.8284167051315309  1.0000
  V   V4        1.0  0.2716325521469116  0.9525521993637086  0.10870662331581127  1.0000
  V   V5        1.0  0.795278012752533  0.10557410120964049  0.3577083349227905  1.0000
  V   V6        1.0  0.26638010144233704  0.5816934704780579  0.9366024136543274  1.0000
  V   V7        1.0  0.8128461241722107  0.7130967974662781  0.5131993293762207  1.0000
  V   V8        1.0  0.4480285346508026  0.17839264869689941  0.20948992669582367  1.0000
  Zr  Zr1       1.0  0.31296396255493164  0.3114450275897979  0.45740774273872375  1.0000
