data_image0
_chemical_formula_structural       Ag9FO2
_chemical_formula_sum              "Ag9 F1 O2"
_cell_length_a       4.549895434193576
_cell_length_b       6.276967741179066
_cell_length_c       6.507762432098389
_cell_angle_alpha    124.48523087010827
_cell_angle_beta     90.89929580883778
_cell_angle_gamma    89.66309614800265

_space_group_name_H-M_alt    "P 1"
_space_group_IT_number       1

loop_
  _space_group_symop_operation_xyz
  'x, y, z'

loop_
  _atom_site_type_symbol
  _atom_site_label
  _atom_site_symmetry_multiplicity
  _atom_site_fract_x
  _atom_site_fract_y
  _atom_site_fract_z
  _atom_site_occupancy
  Ag  Ag1       1.0  0.7260125279426575  0.7235046029090881  0.10725010931491845  1.0000
  Ag  Ag2       1.0  0.7270684838294983  0.10098452866077423  0.2647203505039215  1.0000
  Ag  Ag3       1.0  0.22448153793811798  0.9516026973724365  0.7932204604148865  1.0000
  Ag  Ag4       1.0  0.22585031390190125  0.49302050471305847  0.31291040778160095  1.0000
  Ag  Ag5       1.0  0.23364201188087463  0.0841350108385086  0.06697973608970642  1.0000
  Ag  Ag6       1.0  0.2262503206729889  0.19373488426208496  0.27564096450805664  1.0000
  Ag  Ag7       1.0  0.2274746149778366  0.2052382230758667  0.9663470983505249  1.0000
  Ag  Ag8       1.0  0.7263003587722778  0.7279737591743469  0.38231456279754633  1.0000
  Ag  Ag9       1.0  0.22552137076854706  0.4711976647377014  0.6961902976036072  1.0000
  F   F1        1.0  0.22764728963375092  0.05347490683197975  0.09238163381814957  1.0000
  O   O1        1.0  0.2470404952764511  0.09634552150964737  0.07116742432117461  1.0000
  O   O2        1.0  0.7315115928649902  0.272833913564682  0.10666666924953457  1.0000
