data_image0
_chemical_formula_structural       BrFLuOPtSeV6
_chemical_formula_sum              "Br1 F1 Lu1 O1 Pt1 Se1 V6"
_cell_length_a       6.217229407657795
_cell_length_b       6.886209863457887
_cell_length_c       8.452364921569824
_cell_angle_alpha    90.09421159984433
_cell_angle_beta     90.82055506391204
_cell_angle_gamma    88.49372972476849

_space_group_name_H-M_alt    "P 1"
_space_group_IT_number       1

loop_
  _space_group_symop_operation_xyz
  'x, y, z'

loop_
  _atom_site_type_symbol
  _atom_site_label
  _atom_site_symmetry_multiplicity
  _atom_site_fract_x
  _atom_site_fract_y
  _atom_site_fract_z
  _atom_site_occupancy
  Br  Br1       1.0  0.2059016227722168  0.09194827824831009  0.29239144921302795  1.0000
  F   F1        1.0  0.2808959186077118  0.43157318234443665  0.9186545610427856  1.0000
  Lu  Lu1       1.0  0.20952816307544708  0.9778565764427185  0.8361006379127502  1.0000
  O   O1        1.0  0.21077758073806763  0.37766239047050476  0.10646268725395203  1.0000
  Pt  Pt1       1.0  0.7115656733512878  0.7247783541679382  0.49641451239585876  1.0000
  Se  Se1       1.0  0.17647665739059448  0.8437230587005615  0.5067530274391174  1.0000
  V   V1        1.0  0.89753657579422  0.8163547515869141  0.39347031712532043  1.0000
  V   V2        1.0  0.21299435198307037  0.9110121130943298  0.9644792675971985  1.0000
  V   V3        1.0  0.7009584903717041  0.3061741292476654  0.43450143933296204  1.0000
  V   V4        1.0  0.7123757600784302  0.7783295512199402  0.6185181140899658  1.0000
  V   V5        1.0  0.7097266912460327  0.5148362517356873  0.9412710666656494  1.0000
  V   V6        1.0  0.21051454544067383  0.1952509880065918  0.3795034885406494  1.0000
