data_image0
_chemical_formula_structural       Ag11O
_chemical_formula_sum              "Ag11 O1"
_cell_length_a       4.9484675931214435
_cell_length_b       7.368537859414553
_cell_length_c       7.167866230010986
_cell_angle_alpha    124.87792739886463
_cell_angle_beta     89.48839275761694
_cell_angle_gamma    86.62276748421111

_space_group_name_H-M_alt    "P 1"
_space_group_IT_number       1

loop_
  _space_group_symop_operation_xyz
  'x, y, z'

loop_
  _atom_site_type_symbol
  _atom_site_label
  _atom_site_symmetry_multiplicity
  _atom_site_fract_x
  _atom_site_fract_y
  _atom_site_fract_z
  _atom_site_occupancy
  Ag  Ag1       1.0  0.20968523621559143  0.022783944383263588  0.1442490816116333  1.0000
  Ag  Ag2       1.0  0.21241024136543277  0.9753773212432861  0.8333434462547303  1.0000
  Ag  Ag3       1.0  0.7083866000175476  0.9468668699264526  0.43755483627319336  1.0000
  Ag  Ag4       1.0  0.20868632197380066  0.8391268849372864  0.26127293705940247  1.0000
  Ag  Ag5       1.0  0.7101444005966187  0.3984133303165436  0.8475337028503418  1.0000
  Ag  Ag6       1.0  0.7087658047676086  0.335144579410553  0.3672119081020355  1.0000
  Ag  Ag7       1.0  0.7096717357635498  0.38775691390037537  0.1530545949935913  1.0000
  Ag  Ag8       1.0  0.210624560713768  0.5672539472579956  0.8178446292877197  1.0000
  Ag  Ag9       1.0  0.20944061875343323  0.8107484579086304  0.1721403747797013  1.0000
  Ag  Ag10      1.0  0.21027587354183197  0.48251426219940186  0.4970952868461609  1.0000
  Ag  Ag11      1.0  0.7102754712104797  0.18627604842185974  0.33092954754829407  1.0000
  O   O1        1.0  0.7185545563697815  0.027939695864915848  0.6735194325447083  1.0000
