data_image0
_chemical_formula_structural       Al4Zn5
_chemical_formula_sum              "Al4 Zn5"
_cell_length_a       4.83848839264226
_cell_length_b       5.0279553284639835
_cell_length_c       7.884636878967285
_cell_angle_alpha    77.88661595528892
_cell_angle_beta     68.18555955000731
_cell_angle_gamma    61.16233474190039

_space_group_name_H-M_alt    "P 1"
_space_group_IT_number       1

loop_
  _space_group_symop_operation_xyz
  'x, y, z'

loop_
  _atom_site_type_symbol
  _atom_site_label
  _atom_site_symmetry_multiplicity
  _atom_site_fract_x
  _atom_site_fract_y
  _atom_site_fract_z
  _atom_site_occupancy
  Al  Al1       1.0  0.5765446424484253  0.03862670809030533  0.29480990767478943  1.0000
  Al  Al2       1.0  0.002468801336362958  0.5351729393005371  0.4061777591705322  1.0000
  Al  Al3       1.0  0.2672949433326721  0.5896890163421631  0.4801267981529236  1.0000
  Al  Al4       1.0  0.7306680679321289  0.5276777744293213  0.6225534677505493  1.0000
  Zn  Zn1       1.0  0.25965094566345215  0.7259705662727356  0.2654164135456085  1.0000
  Zn  Zn2       1.0  0.6873578429222107  0.8931532502174377  0.9850874543190002  1.0000
  Zn  Zn3       1.0  0.7581639885902405  0.3516431450843811  0.1623566746711731  1.0000
  Zn  Zn4       1.0  0.25075843930244446  0.5233968496322632  0.5906112790107727  1.0000
  Zn  Zn5       1.0  0.2514866292476654  0.03765115514397621  0.7052500247955322  1.0000
