data_image0
_chemical_formula_structural       Al3BaGaZn4
_chemical_formula_sum              "Al3 Ba1 Ga1 Zn4"
_cell_length_a       4.7816231309817425
_cell_length_b       6.786596421963513
_cell_length_c       7.860905647277832
_cell_angle_alpha    121.30575343444113
_cell_angle_beta     88.44697171285725
_cell_angle_gamma    88.9601400218864

_space_group_name_H-M_alt    "P 1"
_space_group_IT_number       1

loop_
  _space_group_symop_operation_xyz
  'x, y, z'

loop_
  _atom_site_type_symbol
  _atom_site_label
  _atom_site_symmetry_multiplicity
  _atom_site_fract_x
  _atom_site_fract_y
  _atom_site_fract_z
  _atom_site_occupancy
  Al  Al1       1.0  0.5820900201797485  0.29133740067481995  0.4509568810462951  1.0000
  Al  Al2       1.0  0.08102351427078247  0.13265787065029144  0.79130220413208  1.0000
  Al  Al3       1.0  0.06215223670005798  0.537778913974762  0.4634640216827392  1.0000
  Ba  Ba1       1.0  0.5826208591461182  0.460648775100708  0.9476618170738219  1.0000
  Ga  Ga1       1.0  0.0758720338344574  0.10826458036899567  0.09874407947063445  1.0000
  Zn  Zn1       1.0  0.5753211975097656  0.6080114841461182  0.21789839863777158  1.0000
  Zn  Zn2       1.0  0.5715538263320923  0.9290022850036621  0.2946423292160034  1.0000
  Zn  Zn3       1.0  0.07138391584157944  0.7823324799537659  0.7946515679359435  1.0000
  Zn  Zn4       1.0  0.08788672089576721  0.11067064106464386  0.9504650235176085  1.0000
