data_image0
_chemical_formula_structural       Al3Cr2FeZn2Zr
_chemical_formula_sum              "Al3 Cr2 Fe1 Zn2 Zr1"
_cell_length_a       3.700968298652706
_cell_length_b       3.5848117042747405
_cell_length_c       6.4882731437683105
_cell_angle_alpha    142.9340222599902
_cell_angle_beta     89.67214170859066
_cell_angle_gamma    60.85341520110623

_space_group_name_H-M_alt    "P 1"
_space_group_IT_number       1

loop_
  _space_group_symop_operation_xyz
  'x, y, z'

loop_
  _atom_site_type_symbol
  _atom_site_label
  _atom_site_symmetry_multiplicity
  _atom_site_fract_x
  _atom_site_fract_y
  _atom_site_fract_z
  _atom_site_occupancy
  Al  Al1       1.0  0.25519156455993647  0.7411975860595704  0.6308526396751404  1.0000
  Al  Al2       1.0  0.755610764026642  0.41730463504791254  0.20127923786640164  1.0000
  Al  Al3       1.0  0.25606745481491083  0.11147953569889088  0.9305908679962159  1.0000
  Cr  Cr1       1.0  0.7533487081527711  0.12733295559883115  0.621788501739502  1.0000
  Cr  Cr2       1.0  0.7297094464302064  0.6113150715827942  0.20380856096744535  1.0000
  Fe  Fe1       1.0  0.7481991648674012  0.4401143789291382  0.9580162167549133  1.0000
  Zn  Zn1       1.0  0.2511885166168213  0.1149919629096985  0.11918451637029648  1.0000
  Zn  Zn2       1.0  0.2616048455238342  0.4396331310272218  0.47772955894470215  1.0000
  Zr  Zr1       1.0  0.7538421154022218  0.6515154838562012  0.4344940781593323  1.0000
