data_image0
_chemical_formula_structural       AsGa2IInOPbSeV5
_chemical_formula_sum              "As1 Ga2 I1 In1 O1 Pb1 Se1 V5"
_cell_length_a       6.316652459414498
_cell_length_b       6.4910230672464255
_cell_length_c       8.185942649841309
_cell_angle_alpha    108.11687317811904
_cell_angle_beta     92.82251079821344
_cell_angle_gamma    107.12716704616832

_space_group_name_H-M_alt    "P 1"
_space_group_IT_number       1

loop_
  _space_group_symop_operation_xyz
  'x, y, z'

loop_
  _atom_site_type_symbol
  _atom_site_label
  _atom_site_symmetry_multiplicity
  _atom_site_fract_x
  _atom_site_fract_y
  _atom_site_fract_z
  _atom_site_occupancy
  As  As1       1.0  0.43543878197669983  0.8480015397071838  0.30950722098350525  1.0000
  Ga  Ga1       1.0  0.4408498704433441  0.2501782476902008  0.7174359560012817  1.0000
  Ga  Ga2       1.0  0.9389309287071228  0.1006544828414917  0.32738423347473145  1.0000
  I   I1        1.0  0.4259001314640045  0.43949824571609497  0.30901092290878296  1.0000
  In  In1       1.0  0.7484427690505981  0.9101341366767883  0.30564534664154047  1.0000
  O   O1        1.0  0.8183958530426025  0.8836632966995239  0.9394941329956055  1.0000
  Pb  Pb1       1.0  0.9366005659103394  0.2128903716802597  0.2962048053741455  1.0000
  Se  Se1       1.0  0.9402998685836792  0.6863536238670349  0.14423580467700958  1.0000
  V   V1        1.0  0.9375407695770264  0.5519185066223145  0.2051558047533035  1.0000
  V   V2        1.0  0.4389140009880066  0.18512147665023804  0.13311316072940826  1.0000
  V   V3        1.0  0.936180591583252  0.5242197513580322  0.9076468348503113  1.0000
  V   V4        1.0  0.9372058510780334  0.390651136636734  0.4706786274909973  1.0000
  V   V5        1.0  0.4377254545688629  0.028348596766591072  0.14590205252170563  1.0000
