data_image0
_chemical_formula_structural       As2Ga2GeK2OPbUV3
_chemical_formula_sum              "As2 Ga2 Ge1 K2 O1 Pb1 U1 V3"
_cell_length_a       5.802712947060479
_cell_length_b       6.965183924390197
_cell_length_c       8.754576683044434
_cell_angle_alpha    81.05587169322337
_cell_angle_beta     72.57721956217038
_cell_angle_gamma    64.61671060805874

_space_group_name_H-M_alt    "P 1"
_space_group_IT_number       1

loop_
  _space_group_symop_operation_xyz
  'x, y, z'

loop_
  _atom_site_type_symbol
  _atom_site_label
  _atom_site_symmetry_multiplicity
  _atom_site_fract_x
  _atom_site_fract_y
  _atom_site_fract_z
  _atom_site_occupancy
  As  As1       1.0  0.7751365900039673  0.9659659266471863  0.8461173176765442  1.0000
  As  As2       1.0  0.6243205070495605  0.35242754220962524  0.09610694646835327  1.0000
  Ga  Ga1       1.0  0.2781558930873871  0.6182337403297424  0.3735990524291992  1.0000
  Ga  Ga2       1.0  0.4277770519256592  0.27715224027633667  0.6897504925727844  1.0000
  Ge  Ge1       1.0  0.9110678434371948  0.14795951545238495  0.9467732906341553  1.0000
  K   K1        1.0  0.8573828339576721  0.1509127914905548  0.9011516571044922  1.0000
  K   K2        1.0  0.6627277135848999  0.5774848461151123  0.8794959783554077  1.0000
  O   O1        1.0  0.1331566423177719  0.6236263513565063  0.08209764957427979  1.0000
  Pb  Pb1       1.0  0.3588312566280365  0.02872096188366413  0.3657954931259155  1.0000
  U   U1        1.0  0.1557084172964096  0.31595125794410706  0.8272944092750549  1.0000
  V   V1        1.0  0.3787492513656616  0.05092863366007805  0.33812516927719116  1.0000
  V   V2        1.0  0.3885148763656616  0.8680163621902466  0.9127064347267151  1.0000
  V   V3        1.0  0.8617386221885681  0.38471922278404236  0.35970979928970337  1.0000
