data_image0
_chemical_formula_structural       Ga6KO4Se2
_chemical_formula_sum              "Ga6 K1 O4 Se2"
_cell_length_a       6.122546519187224
_cell_length_b       5.996154503841406
_cell_length_c       5.860370635986328
_cell_angle_alpha    119.97137393464877
_cell_angle_beta     118.88438556854707
_cell_angle_gamma    101.91293729487839

_space_group_name_H-M_alt    "P 1"
_space_group_IT_number       1

loop_
  _space_group_symop_operation_xyz
  'x, y, z'

loop_
  _atom_site_type_symbol
  _atom_site_label
  _atom_site_symmetry_multiplicity
  _atom_site_fract_x
  _atom_site_fract_y
  _atom_site_fract_z
  _atom_site_occupancy
  Ga  Ga1       1.0  0.7539197206497192  0.20502655208110798  0.9462825059890747  1.0000
  Ga  Ga2       1.0  0.8421294689178467  0.12988595664501187  0.7849574685096741  1.0000
  Ga  Ga3       1.0  0.7308552861213684  0.4781381487846374  0.6312866806983948  1.0000
  Ga  Ga4       1.0  0.715118408203125  0.3285562992095947  0.3453650176525116  1.0000
  Ga  Ga5       1.0  0.2789013385772705  0.2864250242710113  0.21247096359729764  1.0000
  Ga  Ga6       1.0  0.29746508598327637  0.9083915948867798  0.7194743156433105  1.0000
  K   K1        1.0  0.30954527854919434  0.33067888021469116  0.014704431407153594  1.0000
  O   O1        1.0  0.31906098127365123  0.8922342061996461  0.23697517812252047  1.0000
  O   O2        1.0  0.35658374428749084  0.652759313583374  0.35021060705184937  1.0000
  O   O3        1.0  0.8446369171142577  0.5704519152641294  0.8280745744705199  1.0000
  O   O4        1.0  0.3178785741329193  0.07026326656341553  0.2870759069919586  1.0000
  Se  Se1       1.0  0.21790152788162231  0.3843001425266266  0.49725890159606934  1.0000
  Se  Se2       1.0  0.3544075191020964  0.7573756575584409  0.9032276868820189  1.0000
