data_image0
_chemical_formula_structural       Ga3GeIOSeV6
_chemical_formula_sum              "Ga3 Ge1 I1 O1 Se1 V6"
_cell_length_a       5.131046370816299
_cell_length_b       6.324485375972016
_cell_length_c       9.477865219116211
_cell_angle_alpha    91.68237424223618
_cell_angle_beta     89.8036927504717
_cell_angle_gamma    110.51839699366761

_space_group_name_H-M_alt    "P 1"
_space_group_IT_number       1

loop_
  _space_group_symop_operation_xyz
  'x, y, z'

loop_
  _atom_site_type_symbol
  _atom_site_label
  _atom_site_symmetry_multiplicity
  _atom_site_fract_x
  _atom_site_fract_y
  _atom_site_fract_z
  _atom_site_occupancy
  Ga  Ga1       1.0  0.8218035101890564  0.7691019773483276  0.030429422855377197  1.0000
  Ga  Ga2       1.0  0.4950988292694092  0.8522233963012695  0.9016290903091431  1.0000
  Ga  Ga3       1.0  0.01390661858022213  0.06805458664894104  0.09479464590549469  1.0000
  Ge  Ge1       1.0  0.9930055141448975  0.3168093264102936  0.3782787322998047  1.0000
  I   I1        1.0  0.9958755373954773  0.32903534173965454  0.26824286580085754  1.0000
  O   O1        1.0  0.9886921644210815  0.20733126997947693  0.593147873878479  1.0000
  Se  Se1       1.0  0.010778425261378288  0.8282637000083923  0.3990504741668701  1.0000
  V   V1        1.0  0.5020498037338257  0.21996676921844482  0.9930136203765869  1.0000
  V   V2        1.0  0.4972648322582245  0.5254318714141846  0.8910523653030396  1.0000
  V   V3        1.0  0.012045328505337238  0.5259646773338318  0.19700311124324799  1.0000
  V   V4        1.0  0.5087446570396423  0.8144782185554504  0.178103506565094  1.0000
  V   V5        1.0  0.486966997385025  0.7293626666069031  0.3083443343639374  1.0000
  V   V6        1.0  0.509789764881134  0.6983951926231384  0.5087111592292786  1.0000
