data_image0
_chemical_formula_structural       Ga5NaO4Se3
_chemical_formula_sum              "Ga5 Na1 O4 Se3"
_cell_length_a       5.748781860031905
_cell_length_b       6.186766562709685
_cell_length_c       6.1366987228393555
_cell_angle_alpha    103.30619182459232
_cell_angle_beta     91.42210064292799
_cell_angle_gamma    85.82669223848691

_space_group_name_H-M_alt    "P 1"
_space_group_IT_number       1

loop_
  _space_group_symop_operation_xyz
  'x, y, z'

loop_
  _atom_site_type_symbol
  _atom_site_label
  _atom_site_symmetry_multiplicity
  _atom_site_fract_x
  _atom_site_fract_y
  _atom_site_fract_z
  _atom_site_occupancy
  Ga  Ga1       1.0  0.7800087332725525  0.7107095718383789  0.2420334070920944  1.0000
  Ga  Ga2       1.0  0.7733848094940186  0.8996809720993042  0.343599796295166  1.0000
  Ga  Ga3       1.0  0.7717205882072449  0.6220712661743164  0.12689736485481262  1.0000
  Ga  Ga4       1.0  0.270860880613327  0.7648157477378845  0.3295755088329315  1.0000
  Ga  Ga5       1.0  0.7723824381828308  0.640710175037384  0.9368257522583007  1.0000
  Na  Na1       1.0  0.27310845255851746  0.08652354776859283  0.7229359745979308  1.0000
  O   O1        1.0  0.7674369215965271  0.7477729916572571  0.22899658977985385  1.0000
  O   O2        1.0  0.8443387746810913  0.2601597309112549  0.3809454143047332  1.0000
  O   O3        1.0  0.5017123222351074  0.5815206170082092  0.9369577765464782  1.0000
  O   O4        1.0  0.5236601829528809  0.06709973514080048  0.31374287605285645  1.0000
  Se  Se1       1.0  0.25596702098846436  0.9092770814895631  0.17796041071414945  1.0000
  Se  Se2       1.0  0.7681987285614014  0.1471826732158661  0.7978825569152831  1.0000
  Se  Se3       1.0  0.3874959647655487  0.6600143909454346  0.5686500668525696  1.0000
