data_image0
_chemical_formula_structural       CsGa2GeO2PbSbSe2UV2
_chemical_formula_sum              "Cs1 Ga2 Ge1 O2 Pb1 Sb1 Se2 U1 V2"
_cell_length_a       6.690913905306087
_cell_length_b       7.1550272443536755
_cell_length_c       9.378259658813477
_cell_angle_alpha    98.2894820204655
_cell_angle_beta     90.12136290135055
_cell_angle_gamma    100.77904065470553

_space_group_name_H-M_alt    "P 1"
_space_group_IT_number       1

loop_
  _space_group_symop_operation_xyz
  'x, y, z'

loop_
  _atom_site_type_symbol
  _atom_site_label
  _atom_site_symmetry_multiplicity
  _atom_site_fract_x
  _atom_site_fract_y
  _atom_site_fract_z
  _atom_site_occupancy
  Cs  Cs1       1.0  0.08421424776315689  0.9882689118385315  0.28222861886024475  1.0000
  Ga  Ga1       1.0  0.676232099533081  0.7979463338851929  0.4554847180843354  1.0000
  Ga  Ga2       1.0  0.02172394096851349  0.9710484743118286  0.49253675341606146  1.0000
  Ge  Ge1       1.0  0.08907875418663025  0.6061246991157532  0.7087807655334473  1.0000
  O   O1        1.0  0.7175906300544739  0.5432915091514587  0.04182437062263487  1.0000
  O   O2        1.0  0.565412700176239  0.7294535040855408  0.5519005656242371  1.0000
  Pb  Pb1       1.0  0.22244052588939667  0.7550641298294067  0.034989941865205765  1.0000
  Sb  Sb1       1.0  0.7451121211051941  0.2760029137134552  0.10669434815645218  1.0000
  Se  Se1       1.0  0.08523370325565338  0.6851158142089844  0.6678922772407532  1.0000
  Se  Se2       1.0  0.696502685546875  0.6790400743484497  0.6664023399353027  1.0000
  U   U1        1.0  0.6797372698783875  0.2680978775024414  0.34699851274490356  1.0000
  V   V1        1.0  0.5703082084655762  0.3967667818069458  0.683085560798645  1.0000
  V   V2        1.0  0.2382948398590088  0.5323769450187683  0.5648506283760071  1.0000
