data_image0
_chemical_formula_structural       GdP2Pd3Pt
_chemical_formula_sum              "Gd1 P2 Pd3 Pt1"
_cell_length_a       4.676556807018886
_cell_length_b       4.6836478682847
_cell_length_c       5.995114326477051
_cell_angle_alpha    114.45431266871667
_cell_angle_beta     87.25913922989477
_cell_angle_gamma    91.88683216353952

_space_group_name_H-M_alt    "P 1"
_space_group_IT_number       1

loop_
  _space_group_symop_operation_xyz
  'x, y, z'

loop_
  _atom_site_type_symbol
  _atom_site_label
  _atom_site_symmetry_multiplicity
  _atom_site_fract_x
  _atom_site_fract_y
  _atom_site_fract_z
  _atom_site_occupancy
  Gd  Gd1       1.0  0.5272696018218994  0.7215829491615295  0.9717177152633668  1.0000
  P   P1        1.0  0.5665704011917114  0.5956202149391174  0.6122147440910339  1.0000
  P   P2        1.0  0.5293655395507812  0.37695521116256714  0.17000289261341095  1.0000
  Pd  Pd1       1.0  0.018062856048345566  0.21653887629508972  0.7341309785842896  1.0000
  Pd  Pd2       1.0  0.5397084355354309  0.384774386882782  0.09154895693063736  1.0000
  Pd  Pd3       1.0  0.01773403212428093  0.9128738641738892  0.8793744444847108  1.0000
  Pt  Pt1       1.0  0.015706349164247513  0.9529339671134949  0.13994009792804718  1.0000
