data_image0
_chemical_formula_structural       CH2N4NdO8
_chemical_formula_sum              "C1 H2 N4 Nd1 O8"
_cell_length_a       6.7266362588029605
_cell_length_b       6.6004772850131115
_cell_length_c       7.945160388946533
_cell_angle_alpha    76.94009436700041
_cell_angle_beta     74.74125867757756
_cell_angle_gamma    63.77256404029345

_space_group_name_H-M_alt    "P 1"
_space_group_IT_number       1

loop_
  _space_group_symop_operation_xyz
  'x, y, z'

loop_
  _atom_site_type_symbol
  _atom_site_label
  _atom_site_symmetry_multiplicity
  _atom_site_fract_x
  _atom_site_fract_y
  _atom_site_fract_z
  _atom_site_occupancy
  C   C1        1.0  0.8136513829231262  0.3795184195041657  0.5177057385444641  1.0000
  H   H1        1.0  0.578710675239563  0.6016337871551514  0.7017524242401123  1.0000
  H   H2        1.0  0.4895770251750945  0.9999523758888246  0.8679416179656981  1.0000
  N   N1        1.0  0.10382838547229767  0.2951886057853699  0.03821169212460518  1.0000
  N   N2        1.0  0.10717926174402237  0.5385382771492004  0.5064184665679932  1.0000
  N   N3        1.0  0.31949105858802795  0.4006574749946595  0.395197182893753  1.0000
  N   N4        1.0  0.33831852674484253  0.3293642997741699  0.43282711505889887  1.0000
  Nd  Nd1       1.0  0.3007890284061432  0.27088549733161926  0.9862684607505797  1.0000
  O   O1        1.0  0.8682603240013123  0.25859782099723816  0.9056537747383117  1.0000
  O   O2        1.0  0.8570671081542969  0.8905485272407533  0.36838495731353765  1.0000
  O   O3        1.0  0.6119483709335327  0.41553097963333135  0.5676406621932983  1.0000
  O   O4        1.0  0.965155839920044  0.4988847374916077  0.980733036994934  1.0000
  O   O5        1.0  0.7609779238700867  0.5038766264915466  0.5276849269866943  1.0000
  O   O6        1.0  0.5438930988311768  0.7457831501960756  0.6291570067405701  1.0000
  O   O7        1.0  0.912267804145813  0.0024638965260237455  0.6423237919807434  1.0000
  O   O8        1.0  0.49256038665771484  0.0076703857630491265  0.45028531551361084  1.0000
