data_image0
_chemical_formula_structural       H3InN3NdO7Si
_chemical_formula_sum              "H3 In1 N3 Nd1 O7 Si1"
_cell_length_a       6.950343028641495
_cell_length_b       7.2088910429577675
_cell_length_c       7.689501762390137
_cell_angle_alpha    68.92647622019344
_cell_angle_beta     65.77836503681841
_cell_angle_gamma    63.48179195906829

_space_group_name_H-M_alt    "P 1"
_space_group_IT_number       1

loop_
  _space_group_symop_operation_xyz
  'x, y, z'

loop_
  _atom_site_type_symbol
  _atom_site_label
  _atom_site_symmetry_multiplicity
  _atom_site_fract_x
  _atom_site_fract_y
  _atom_site_fract_z
  _atom_site_occupancy
  H   H1        1.0  0.17035263776779175  0.2710099518299103  0.39567816257476807  1.0000
  H   H2        1.0  0.09209936857223518  0.9098508954048156  0.7976150512695312  1.0000
  H   H3        1.0  0.27581676840782166  0.7360041737556456  0.9494162797927856  1.0000
  In  In1       1.0  0.1660718321800232  0.18596610426902768  0.1121581494808197  1.0000
  N   N1        1.0  0.6308336853981018  0.4030163884162902  0.27523067593574524  1.0000
  N   N2        1.0  0.6282821893692017  0.32890555262565613  0.4117334187030792  1.0000
  N   N3        1.0  0.028207641094923037  0.2246134579181671  0.8738271594047546  1.0000
  Nd  Nd1       1.0  0.6689459681510925  0.1838371008634567  0.7500690221786499  1.0000
  O   O1        1.0  0.01824035309255123  0.5513297319412231  0.8977910280227661  1.0000
  O   O2        1.0  0.654041588306427  0.3868460655212402  0.8024045825004578  1.0000
  O   O3        1.0  0.1623748689889908  0.474138855934143  0.09180021286010742  1.0000
  O   O4        1.0  0.2049931436777115  0.6517074704170227  0.011583032086491585  1.0000
  O   O5        1.0  0.09656158089637759  0.8320385813713073  0.058802515268325806  1.0000
  O   O6        1.0  0.12307967990636826  0.34884771704673767  0.902592658996582  1.0000
  O   O7        1.0  0.04807111248373989  0.8276221156120299  0.4412146210670471  1.0000
  Si  Si1       1.0  0.09522300958633424  0.40483847260475153  0.287892609834671  1.0000
