data_image0
_chemical_formula_structural       H7NO6PdS
_chemical_formula_sum              "H7 N1 O6 Pd1 S1"
_cell_length_a       6.083528052762928
_cell_length_b       6.126796994841508
_cell_length_c       6.998519420623779
_cell_angle_alpha    85.09503347843143
_cell_angle_beta     76.0722944769275
_cell_angle_gamma    76.56584533183131

_space_group_name_H-M_alt    "P 1"
_space_group_IT_number       1

loop_
  _space_group_symop_operation_xyz
  'x, y, z'

loop_
  _atom_site_type_symbol
  _atom_site_label
  _atom_site_symmetry_multiplicity
  _atom_site_fract_x
  _atom_site_fract_y
  _atom_site_fract_z
  _atom_site_occupancy
  H   H1        1.0  0.18753282725811005  0.33389946818351746  0.9337849617004395  1.0000
  H   H2        1.0  0.6658148169517517  0.5813347697257996  0.9053341746330261  1.0000
  H   H3        1.0  0.1737338155508041  0.8609364032745362  0.7687089443206787  1.0000
  H   H4        1.0  0.7312130331993103  0.17674770951271057  0.6335846781730652  1.0000
  H   H5        1.0  0.7299137115478516  0.08171988278627396  0.16481225192546842  1.0000
  H   H6        1.0  0.4832133948802948  0.32437238097190857  0.9529919624328613  1.0000
  H   H7        1.0  0.6826009154319763  0.46469965577125555  0.4780978560447693  1.0000
  N   N1        1.0  0.1642062962055206  0.9725309610366822  0.3452535569667816  1.0000
  O   O1        1.0  0.4590854346752167  0.7976830005645753  0.997952401638031  1.0000
  O   O2        1.0  0.3791499435901642  0.7926086187362672  0.7331773638725281  1.0000
  O   O3        1.0  0.21750755608081818  0.65207839012146  0.06673026084899902  1.0000
  O   O4        1.0  0.9835385084152222  0.8228285312652589  0.8628008365631104  1.0000
  O   O5        1.0  0.8758134841918945  0.6296303272247314  0.8913824558258057  1.0000
  O   O6        1.0  0.18525077402591705  0.4133270680904389  0.05491895601153374  1.0000
  Pd  Pd1       1.0  0.5067218542098999  0.7103798985481262  0.2927420437335968  1.0000
  S   S1        1.0  0.2324794381856918  0.9693300724029542  0.6971681714057922  1.0000
