data_image0
_chemical_formula_structural       GeH7NO4S3
_chemical_formula_sum              "Ge1 H7 N1 O4 S3"
_cell_length_a       4.974632873626488
_cell_length_b       6.189816855452127
_cell_length_c       7.792431831359863
_cell_angle_alpha    109.19430227488378
_cell_angle_beta     90.18482598614756
_cell_angle_gamma    89.50891510997884

_space_group_name_H-M_alt    "P 1"
_space_group_IT_number       1

loop_
  _space_group_symop_operation_xyz
  'x, y, z'

loop_
  _atom_site_type_symbol
  _atom_site_label
  _atom_site_symmetry_multiplicity
  _atom_site_fract_x
  _atom_site_fract_y
  _atom_site_fract_z
  _atom_site_occupancy
  Ge  Ge1       1.0  0.8660776019096375  0.09007155150175095  0.1035894826054573  1.0000
  H   H1        1.0  0.36243459582328796  0.9946438074111937  0.34771493077278137  1.0000
  H   H2        1.0  0.3802308440208435  0.17190389335155487  0.7233003973960876  1.0000
  H   H3        1.0  0.868064820766449  0.2845935523509979  0.8423780798912048  1.0000
  H   H4        1.0  0.3580915927886963  0.5405336618423462  0.28355419635772705  1.0000
  H   H5        1.0  0.8593506217002869  0.10177766531705856  0.36280545592308044  1.0000
  H   H6        1.0  0.8620317578315735  0.9699099063873291  0.4978610873222351  1.0000
  H   H7        1.0  0.3705616295337677  0.907577633857727  0.28052130341529846  1.0000
  N   N1        1.0  0.8641409873962402  0.599876344203949  0.5752226710319519  1.0000
  O   O1        1.0  0.8538414239883423  0.6073037385940552  0.39253148436546326  1.0000
  O   O2        1.0  0.8409922122955322  0.5940893292427063  0.5643310546875  1.0000
  O   O3        1.0  0.3707137107849121  0.8079997301101685  0.20127680897712708  1.0000
  O   O4        1.0  0.3536735475063324  0.9741565585136414  0.33191579580307007  1.0000
  S   S1        1.0  0.8673102855682373  0.7716274261474609  0.4812767803668976  1.0000
  S   S2        1.0  0.8644182085990906  0.865949273109436  0.1089889258146286  1.0000
  S   S3        1.0  0.3735162019729614  0.16639763116836548  0.9416274428367615  1.0000
