data_image0
_chemical_formula_structural       HN2Nd8O3S2
_chemical_formula_sum              "H1 N2 Nd8 O3 S2"
_cell_length_a       6.084467074875963
_cell_length_b       6.888482358726051
_cell_length_c       7.291742324829102
_cell_angle_alpha    78.86696798942373
_cell_angle_beta     70.46245462337795
_cell_angle_gamma    70.78544511522004

_space_group_name_H-M_alt    "P 1"
_space_group_IT_number       1

loop_
  _space_group_symop_operation_xyz
  'x, y, z'

loop_
  _atom_site_type_symbol
  _atom_site_label
  _atom_site_symmetry_multiplicity
  _atom_site_fract_x
  _atom_site_fract_y
  _atom_site_fract_z
  _atom_site_occupancy
  H   H1        1.0  0.25132879614830017  0.1384231299161911  0.08099644631147383  1.0000
  N   N1        1.0  0.42428556084632874  0.339216411113739  0.9228834509849547  1.0000
  N   N2        1.0  0.9256820678710938  0.27478691935539246  0.2903293967247009  1.0000
  Nd  Nd1       1.0  0.28003668785095215  0.4975775182247162  0.8159307837486267  1.0000
  Nd  Nd2       1.0  0.4173445403575897  0.6454636454582214  0.5264932513237  1.0000
  Nd  Nd3       1.0  0.4236786961555481  0.7945260405540466  0.4233444333076477  1.0000
  Nd  Nd4       1.0  0.7480800151824951  0.5794551968574524  0.13653957843780518  1.0000
  Nd  Nd5       1.0  0.41713985800743103  0.18287469446659088  0.1609031856060028  1.0000
  Nd  Nd6       1.0  0.4289584159851074  0.2933766543865204  0.8937466144561766  1.0000
  Nd  Nd7       1.0  0.9204145669937134  0.9354560375213623  0.24016006290912625  1.0000
  Nd  Nd8       1.0  0.9179170727729797  0.6336384415626526  0.14416232705116272  1.0000
  O   O1        1.0  0.9353886246681213  0.12542641162872314  0.37482351064682007  1.0000
  O   O2        1.0  0.43326833844184875  0.19732776284217834  0.5627902150154114  1.0000
  O   O3        1.0  0.9317479133605957  0.9257851839065552  0.6054373383522034  1.0000
  S   S1        1.0  0.9386104345321655  0.052764419466257095  0.15404359996318814  1.0000
  S   S2        1.0  0.41122084856033325  0.202934131026268  0.25908103585243225  1.0000
