data_image0
_chemical_formula_structural       HN3Nd7O4S
_chemical_formula_sum              "H1 N3 Nd7 O4 S1"
_cell_length_a       6.983115224216506
_cell_length_b       7.251953035499976
_cell_length_c       7.709282875061035
_cell_angle_alpha    67.21983767301433
_cell_angle_beta     66.48725257308226
_cell_angle_gamma    65.00807207485407

_space_group_name_H-M_alt    "P 1"
_space_group_IT_number       1

loop_
  _space_group_symop_operation_xyz
  'x, y, z'

loop_
  _atom_site_type_symbol
  _atom_site_label
  _atom_site_symmetry_multiplicity
  _atom_site_fract_x
  _atom_site_fract_y
  _atom_site_fract_z
  _atom_site_occupancy
  H   H1        1.0  0.8145489692687988  0.6412322521209717  0.6632013320922852  1.0000
  N   N1        1.0  0.8047942519187927  0.08751734346151352  0.7925469875335693  1.0000
  N   N2        1.0  0.1281004399061203  0.6134440302848816  0.4293748438358307  1.0000
  N   N3        1.0  0.5623266696929932  0.2842073440551758  0.421976774930954  1.0000
  Nd  Nd1       1.0  0.34930670261383057  0.9236214160919191  0.3847011029720306  1.0000
  Nd  Nd2       1.0  0.8596884608268738  0.3903400897979737  0.026546739041805267  1.0000
  Nd  Nd3       1.0  0.6057415008544922  0.1383649855852127  0.2979469299316406  1.0000
  Nd  Nd4       1.0  0.3547985553741455  0.565994381904602  0.30596014857292175  1.0000
  Nd  Nd5       1.0  0.8465447425842285  0.8307600021362306  0.5768673419952393  1.0000
  Nd  Nd6       1.0  0.621351957321167  0.7032913565635682  0.9103760123252869  1.0000
  Nd  Nd7       1.0  0.6030123829841614  0.642386794090271  0.5643095374107361  1.0000
  O   O1        1.0  0.12843850255012512  0.14126913249492645  0.7389426231384277  1.0000
  O   O2        1.0  0.34645992517471313  0.7116588354110719  0.447929710149765  1.0000
  O   O3        1.0  0.31778326630592346  0.02842352166771889  0.12463635206222534  1.0000
  O   O4        1.0  0.5838826298713684  0.19739054143428805  0.9557066559791565  1.0000
  S   S1        1.0  0.8440696597099304  0.7319229841232301  0.4585852026939392  1.0000
