data_image0
_chemical_formula_structural       Al2BiCdFGeK2
_chemical_formula_sum              "Al2 Bi1 Cd1 F1 Ge1 K2"
_cell_length_a       5.785971153828495
_cell_length_b       5.777810555261008
_cell_length_c       7.378193378448486
_cell_angle_alpha    90.02303698152853
_cell_angle_beta     89.943130000049
_cell_angle_gamma    119.94597290263037

_space_group_name_H-M_alt    "P 1"
_space_group_IT_number       1

loop_
  _space_group_symop_operation_xyz
  'x, y, z'

loop_
  _atom_site_type_symbol
  _atom_site_label
  _atom_site_symmetry_multiplicity
  _atom_site_fract_x
  _atom_site_fract_y
  _atom_site_fract_z
  _atom_site_occupancy
  Al  Al1       1.0  0.1432555615901947  0.20784412324428558  0.4343896806240082  1.0000
  Al  Al2       1.0  0.5835424065589905  0.20250491797924042  0.43584156036376953  1.0000
  Bi  Bi1       1.0  0.650473952293396  0.781985878944397  0.607746422290802  1.0000
  Cd  Cd1       1.0  0.3193506896495819  0.11859265714883804  0.8397361040115356  1.0000
  F   F1        1.0  0.31714949011802673  0.12738187611103058  0.20439837872982025  1.0000
  Ge  Ge1       1.0  0.9846934080123901  0.4610949456691742  0.27349787950515747  1.0000
  K   K1        1.0  0.9825857281684875  0.45869478583335876  0.8154035806655884  1.0000
  K   K2        1.0  0.6511343121528625  0.7780201435089111  0.12562663853168488  1.0000
