data_image0
_chemical_formula_structural       AlCdClFHgKOTe
_chemical_formula_sum              "Al1 Cd1 Cl1 F1 Hg1 K1 O1 Te1"
_cell_length_a       6.2137358494268735
_cell_length_b       6.232718740293875
_cell_length_c       6.88338041305542
_cell_angle_alpha    90.09691265076098
_cell_angle_beta     89.9114459774867
_cell_angle_gamma    120.09112750732947

_space_group_name_H-M_alt    "P 1"
_space_group_IT_number       1

loop_
  _space_group_symop_operation_xyz
  'x, y, z'

loop_
  _atom_site_type_symbol
  _atom_site_label
  _atom_site_symmetry_multiplicity
  _atom_site_fract_x
  _atom_site_fract_y
  _atom_site_fract_z
  _atom_site_occupancy
  Al  Al1       1.0  0.8448962569236755  0.6691563725471497  0.020617565140128136  1.0000
  Cd  Cd1       1.0  0.5137775540351868  0.017360230907797813  0.07492438703775406  1.0000
  Cl  Cl1       1.0  0.5368718504905701  0.4325879216194153  0.27860853075981146  1.0000
  F   F1        1.0  0.11886449158191681  0.8923660516738892  0.1908263862133026  1.0000
  Hg  Hg1       1.0  0.21243800222873688  0.3469048738479614  0.0035316944122314453  1.0000
  K   K1        1.0  0.035849396139383316  0.5123493671417236  0.4986391067504882  1.0000
  O   O1        1.0  0.8799489736557007  0.36902010440826416  0.9155248403549193  1.0000
  Te  Te1       1.0  0.6302352547645569  0.8000765442848206  0.7637773156166077  1.0000
