data_image0
_chemical_formula_structural       FeNa3NiO5
_chemical_formula_sum              "Fe1 Na3 Ni1 O5"
_cell_length_a       5.6168733198988265
_cell_length_b       5.656114856370052
_cell_length_c       5.959909915924072
_cell_angle_alpha    106.82873272730016
_cell_angle_beta     106.24259159127642
_cell_angle_gamma    115.21278577874882

_space_group_name_H-M_alt    "P 1"
_space_group_IT_number       1

loop_
  _space_group_symop_operation_xyz
  'x, y, z'

loop_
  _atom_site_type_symbol
  _atom_site_label
  _atom_site_symmetry_multiplicity
  _atom_site_fract_x
  _atom_site_fract_y
  _atom_site_fract_z
  _atom_site_occupancy
  Fe  Fe1       1.0  0.07664172351360321  0.8405239582061768  0.25518721342086786  1.0000
  Na  Na1       1.0  0.8980828523635864  0.6228878498077393  0.5179903507232666  1.0000
  Na  Na2       1.0  0.5850990414619446  0.33175650238990784  0.4323275089263916  1.0000
  Na  Na3       1.0  0.3067701756954193  0.31552618741989136  0.9785142540931702  1.0000
  Ni  Ni1       1.0  0.6191539764404297  0.36766085028648376  0.6901279091835022  1.0000
  O   O1        1.0  0.9919416904449463  0.05396037921309471  0.6738804578781128  1.0000
  O   O2        1.0  0.6570882797241211  0.3370196521282196  0.2847667932510376  1.0000
  O   O3        1.0  0.6705873012542725  0.050334345549345016  0.22831887006759644  1.0000
  O   O4        1.0  0.41898655891418457  0.6859146952629089  0.013106069527566395  1.0000
  O   O5        1.0  0.6497547030448914  0.7152778506278992  0.6668918132781982  1.0000
