data_image0
_chemical_formula_structural       Fe2Na2O5P
_chemical_formula_sum              "Fe2 Na2 O5 P1"
_cell_length_a       5.239368958904031
_cell_length_b       5.9359239684305685
_cell_length_c       6.101248264312744
_cell_angle_alpha    107.58863560739216
_cell_angle_beta     103.74648564058027
_cell_angle_gamma    112.06176585272277

_space_group_name_H-M_alt    "P 1"
_space_group_IT_number       1

loop_
  _space_group_symop_operation_xyz
  'x, y, z'

loop_
  _atom_site_type_symbol
  _atom_site_label
  _atom_site_symmetry_multiplicity
  _atom_site_fract_x
  _atom_site_fract_y
  _atom_site_fract_z
  _atom_site_occupancy
  Fe  Fe1       1.0  0.8014352917671204  0.11166255176067352  0.462820440530777  1.0000
  Fe  Fe2       1.0  0.2907337546348572  0.09269780665636063  0.07014370709657669  1.0000
  Na  Na1       1.0  0.7841265797615051  0.6627522706985474  0.12587255239486694  1.0000
  Na  Na2       1.0  0.38126641511917114  0.9933914542198181  0.70838862657547  1.0000
  O   O1        1.0  0.3945721685886383  0.08165951073169708  0.704444408416748  1.0000
  O   O2        1.0  0.3627992868423462  0.7319276332855225  0.9461572170257568  1.0000
  O   O3        1.0  0.40407899022102356  0.8893002271652222  0.7130195498466492  1.0000
  O   O4        1.0  0.8272324800491333  0.23229914903640747  0.11335723102092743  1.0000
  O   O5        1.0  0.435544490814209  0.2668662965297699  0.5332711935043335  1.0000
  P   P1        1.0  0.2841297686100006  0.6080858707427979  0.38346031308174133  1.0000
