data_image0
_chemical_formula_structural       Fe3Na3O4
_chemical_formula_sum              "Fe3 Na3 O4"
_cell_length_a       3.204129764049394
_cell_length_b       6.855756774151347
_cell_length_c       6.197804927825928
_cell_angle_alpha    81.21764363660492
_cell_angle_beta     82.00833835508615
_cell_angle_gamma    80.3635834100833

_space_group_name_H-M_alt    "P 1"
_space_group_IT_number       1

loop_
  _space_group_symop_operation_xyz
  'x, y, z'

loop_
  _atom_site_type_symbol
  _atom_site_label
  _atom_site_symmetry_multiplicity
  _atom_site_fract_x
  _atom_site_fract_y
  _atom_site_fract_z
  _atom_site_occupancy
  Fe  Fe1       1.0  0.09518027305603027  0.5067004561424255  0.1813572347164154  1.0000
  Fe  Fe2       1.0  0.214538112282753  0.2398918867111206  0.7319736480712891  1.0000
  Fe  Fe3       1.0  0.031574733555316925  0.6607607007026672  0.29964792728424067  1.0000
  Na  Na1       1.0  0.6357298493385315  0.9957727193832397  0.635690450668335  1.0000
  Na  Na2       1.0  0.5659055113792419  0.6654070019721985  0.05166919529438019  1.0000
  Na  Na3       1.0  0.6332063674926758  0.009633698500692844  0.9526829123497009  1.0000
  O   O1        1.0  0.006355948746204376  0.6527721285820007  0.26469445228576655  1.0000
  O   O2        1.0  0.9949242472648622  0.40935182571411133  0.6148209571838379  1.0000
  O   O3        1.0  0.1549016684293747  0.08114223927259445  0.1435331553220749  1.0000
  O   O4        1.0  0.6400184631347656  0.6532287001609802  0.7448654770851135  1.0000
