data_image0
_chemical_formula_structural       Fe4Na3O3
_chemical_formula_sum              "Fe4 Na3 O3"
_cell_length_a       3.647200455518358
_cell_length_b       6.893353052084853
_cell_length_c       6.3585405349731445
_cell_angle_alpha    82.92887959269179
_cell_angle_beta     79.55249917243718
_cell_angle_gamma    83.75725033229753

_space_group_name_H-M_alt    "P 1"
_space_group_IT_number       1

loop_
  _space_group_symop_operation_xyz
  'x, y, z'

loop_
  _atom_site_type_symbol
  _atom_site_label
  _atom_site_symmetry_multiplicity
  _atom_site_fract_x
  _atom_site_fract_y
  _atom_site_fract_z
  _atom_site_occupancy
  Fe  Fe1       1.0  0.8572795391082764  0.7917135953903198  0.13245408236980438  1.0000
  Fe  Fe2       1.0  0.79692542552948  0.9936926960945129  0.2869078516960144  1.0000
  Fe  Fe3       1.0  0.778167188167572  0.8343770503997803  0.41565999388694763  1.0000
  Fe  Fe4       1.0  0.9499720335006713  0.05254166200757027  0.24940027296543119  1.0000
  Na  Na1       1.0  0.3026087284088135  0.0713714063167572  0.7860125303268433  1.0000
  Na  Na2       1.0  0.3001192510128021  0.5457007884979248  0.9107273817062377  1.0000
  Na  Na3       1.0  0.7996353507041931  0.539631724357605  0.048218000680208206  1.0000
  O   O1        1.0  0.8038809895515442  0.05659894272685051  0.26279646158218384  1.0000
  O   O2        1.0  0.2941182553768158  0.3607299029827118  0.611840009689331  1.0000
  O   O3        1.0  0.29706916213035583  0.0385628417134285  0.5997456312179565  1.0000
