data_image0
_chemical_formula_structural       Fe3Na3O4
_chemical_formula_sum              "Fe3 Na3 O4"
_cell_length_a       4.658583507229739
_cell_length_b       6.345940296094388
_cell_length_c       6.330228328704834
_cell_angle_alpha    89.51687109498681
_cell_angle_beta     97.61849849926558
_cell_angle_gamma    118.02428130360984

_space_group_name_H-M_alt    "P 1"
_space_group_IT_number       1

loop_
  _space_group_symop_operation_xyz
  'x, y, z'

loop_
  _atom_site_type_symbol
  _atom_site_label
  _atom_site_symmetry_multiplicity
  _atom_site_fract_x
  _atom_site_fract_y
  _atom_site_fract_z
  _atom_site_occupancy
  Fe  Fe1       1.0  0.012593865394592285  0.4127604067325592  0.7803328633308411  1.0000
  Fe  Fe2       1.0  0.46382972598075867  0.4295559227466583  0.4144843518733978  1.0000
  Fe  Fe3       1.0  0.6562398672103882  0.5166810154914856  0.9480225443840027  1.0000
  Na  Na1       1.0  0.44839972257614136  0.9567658305168152  0.23163409531116486  1.0000
  Na  Na2       1.0  0.6523604989051819  0.21501460671424866  0.6094345450401306  1.0000
  Na  Na3       1.0  0.15923884510993958  0.2064625769853592  0.6655104756355286  1.0000
  O   O1        1.0  0.3202429413795471  0.3862400949001312  0.08216261118650436  1.0000
  O   O2        1.0  0.10734526067972183  0.12508884072303772  0.5342783331871033  1.0000
  O   O3        1.0  0.24825194478034973  0.7447303533554077  0.14468610286712646  1.0000
  O   O4        1.0  0.7842746376991272  0.8225008845329285  0.9156939387321472  1.0000
