data_image0
_chemical_formula_structural       Fe2Na3O5
_chemical_formula_sum              "Fe2 Na3 O5"
_cell_length_a       4.584495950006663
_cell_length_b       6.187386668196542
_cell_length_c       5.873772144317627
_cell_angle_alpha    81.75403907388959
_cell_angle_beta     73.96184356425086
_cell_angle_gamma    76.07731698625831

_space_group_name_H-M_alt    "P 1"
_space_group_IT_number       1

loop_
  _space_group_symop_operation_xyz
  'x, y, z'

loop_
  _atom_site_type_symbol
  _atom_site_label
  _atom_site_symmetry_multiplicity
  _atom_site_fract_x
  _atom_site_fract_y
  _atom_site_fract_z
  _atom_site_occupancy
  Fe  Fe1       1.0  0.30893608927726746  0.00782733503729105  0.7815381884574889  1.0000
  Fe  Fe2       1.0  0.41271525621414185  0.1718519777059555  0.3619521856307983  1.0000
  Na  Na1       1.0  0.8728651404380798  0.10943925380706787  0.09501068294048308  1.0000
  Na  Na2       1.0  0.3830370604991913  0.4620707929134369  0.5921993851661682  1.0000
  Na  Na3       1.0  0.9413084983825684  0.6646227240562439  0.7567279934883117  1.0000
  O   O1        1.0  0.6985554099082947  0.7428277134895325  0.7488133907318114  1.0000
  O   O2        1.0  0.8936995267868042  0.21808458864688873  0.2671450078487396  1.0000
  O   O3        1.0  0.6453536152839661  0.7504895329475403  0.7967687845230101  1.0000
  O   O4        1.0  0.2444605827331543  0.04784179478883743  0.8373397588729857  1.0000
  O   O5        1.0  0.20191168785095215  0.7001608610153198  0.9575090408325194  1.0000
