data_image0
_chemical_formula_structural       Ga3V3
_chemical_formula_sum              "Ga3 V3"
_cell_length_a       3.527432907691298
_cell_length_b       4.30031444099823
_cell_length_c       5.792670726776123
_cell_angle_alpha    95.08991424690481
_cell_angle_beta     88.78362836448721
_cell_angle_gamma    89.95631497797912

_space_group_name_H-M_alt    "P 1"
_space_group_IT_number       1

loop_
  _space_group_symop_operation_xyz
  'x, y, z'

loop_
  _atom_site_type_symbol
  _atom_site_label
  _atom_site_symmetry_multiplicity
  _atom_site_fract_x
  _atom_site_fract_y
  _atom_site_fract_z
  _atom_site_occupancy
  Ga  Ga1       1.0  0.3498440086841583  0.12893302738666534  0.5353860855102539  1.0000
  Ga  Ga2       1.0  0.37624189257621765  0.3421296775341034  0.8268598318099976  1.0000
  Ga  Ga3       1.0  0.33713993430137634  0.7061740756034851  0.9588747024536134  1.0000
  V   V1        1.0  0.8682065606117249  0.1345437467098236  0.9639774560928346  1.0000
  V   V2        1.0  0.8269226551055908  0.7974448204040527  0.020274456590414047  1.0000
  V   V3        1.0  0.8838439583778381  0.06351370364427567  0.24980263411998752  1.0000
