data_image0
_chemical_formula_structural       Mg5Tb2
_chemical_formula_sum              "Mg5 Tb2"
_cell_length_a       4.953770821678382
_cell_length_b       4.915267861726576
_cell_length_c       6.782141208648682
_cell_angle_alpha    72.5702808755126
_cell_angle_beta     69.93473926528084
_cell_angle_gamma    65.44566346849399

_space_group_name_H-M_alt    "P 1"
_space_group_IT_number       1

loop_
  _space_group_symop_operation_xyz
  'x, y, z'

loop_
  _atom_site_type_symbol
  _atom_site_label
  _atom_site_symmetry_multiplicity
  _atom_site_fract_x
  _atom_site_fract_y
  _atom_site_fract_z
  _atom_site_occupancy
  Mg  Mg1       1.0  0.1518549770116806  0.8749016523361206  0.18739436566829681  1.0000
  Mg  Mg2       1.0  0.14491696655750275  0.44378191232681274  0.05597519502043724  1.0000
  Mg  Mg3       1.0  0.6597082018852234  0.7447866201400757  0.6421537399291992  1.0000
  Mg  Mg4       1.0  0.6335558891296387  0.16373972594738007  0.15340091288089752  1.0000
  Mg  Mg5       1.0  0.1550607681274414  0.2759464681148529  0.42402365803718567  1.0000
  Tb  Tb1       1.0  0.12961740791797638  0.6735662221908569  0.7565480470657349  1.0000
  Tb  Tb2       1.0  0.5193333625793457  0.9343234896659851  0.19054792821407318  1.0000
