data_image0
_chemical_formula_structural       ErI2MgPTb2
_chemical_formula_sum              "Er1 I2 Mg1 P1 Tb2"
_cell_length_a       6.298400231646499
_cell_length_b       6.428531346099547
_cell_length_c       7.0343732833862305
_cell_angle_alpha    72.4568826801096
_cell_angle_beta     65.41052238379474
_cell_angle_gamma    63.33555947425327

_space_group_name_H-M_alt    "P 1"
_space_group_IT_number       1

loop_
  _space_group_symop_operation_xyz
  'x, y, z'

loop_
  _atom_site_type_symbol
  _atom_site_label
  _atom_site_symmetry_multiplicity
  _atom_site_fract_x
  _atom_site_fract_y
  _atom_site_fract_z
  _atom_site_occupancy
  Er  Er1       1.0  0.4044400453567505  0.8130286335945129  0.22316719591617587  1.0000
  I   I1        1.0  0.777306079864502  0.7617313265800476  0.016013439744710922  1.0000
  I   I2        1.0  0.3974435031414032  0.9024475812911987  0.4826813936233521  1.0000
  Mg  Mg1       1.0  0.9306240081787109  0.9906799793243408  0.14270314574241638  1.0000
  P   P1        1.0  0.4155828058719635  0.7989398837089539  0.7968501448631288  1.0000
  Tb  Tb1       1.0  0.8641260862350464  0.24569739401340485  0.10970366001129152  1.0000
  Tb  Tb2       1.0  0.9133285284042358  0.6251857876777649  0.727465033531189  1.0000
