data_image0
_chemical_formula_structural       Co2FO3Sb7
_chemical_formula_sum              "Co2 F1 O3 Sb7"
_cell_length_a       4.92983873630441
_cell_length_b       6.958678472752848
_cell_length_c       7.700997352600098
_cell_angle_alpha    72.55129048379348
_cell_angle_beta     70.94665007216804
_cell_angle_gamma    67.82885686094806

_space_group_name_H-M_alt    "P 1"
_space_group_IT_number       1

loop_
  _space_group_symop_operation_xyz
  'x, y, z'

loop_
  _atom_site_type_symbol
  _atom_site_label
  _atom_site_symmetry_multiplicity
  _atom_site_fract_x
  _atom_site_fract_y
  _atom_site_fract_z
  _atom_site_occupancy
  Co  Co1       1.0  0.8900054097175598  0.8405032157897949  0.10768228769302368  1.0000
  Co  Co2       1.0  0.3833392560482025  0.32623928785324097  0.5381802916526794  1.0000
  F   F1        1.0  0.8868003487586975  0.694709837436676  0.15905439853668213  1.0000
  O   O1        1.0  0.09462577849626541  0.22327573597431183  0.15194006264209747  1.0000
  O   O2        1.0  0.5210047960281372  0.9559316039085388  0.08340155333280563  1.0000
  O   O3        1.0  0.39860033988952637  0.45173636078834534  0.4137989580631256  1.0000
  Sb  Sb1       1.0  0.35369592905044556  0.1950259506702423  0.7666518092155457  1.0000
  Sb  Sb2       1.0  0.6858829259872437  0.6774460673332214  0.2048303633928299  1.0000
  Sb  Sb3       1.0  0.4393711984157562  0.00888177752494812  0.6415076851844788  1.0000
  Sb  Sb4       1.0  0.34766921401023865  0.5142362117767334  0.526750922203064  1.0000
  Sb  Sb5       1.0  0.6891471147537231  0.17991776764392853  0.4284893870353699  1.0000
  Sb  Sb6       1.0  0.11198313534259796  0.6690182685852051  0.41298604011535645  1.0000
  Sb  Sb7       1.0  0.1075209379196167  0.6993805170059204  0.648247241973877  1.0000
