data_image0
_chemical_formula_structural       FOSSb10
_chemical_formula_sum              "F1 O1 S1 Sb10"
_cell_length_a       5.5130309052859925
_cell_length_b       6.201333460959395
_cell_length_c       8.115883827209473
_cell_angle_alpha    78.37017687117265
_cell_angle_beta     74.84151951556363
_cell_angle_gamma    67.70025928904857

_space_group_name_H-M_alt    "P 1"
_space_group_IT_number       1

loop_
  _space_group_symop_operation_xyz
  'x, y, z'

loop_
  _atom_site_type_symbol
  _atom_site_label
  _atom_site_symmetry_multiplicity
  _atom_site_fract_x
  _atom_site_fract_y
  _atom_site_fract_z
  _atom_site_occupancy
  F   F1        1.0  0.3823162615299225  0.8194410204887389  0.5787694454193115  1.0000
  O   O1        1.0  0.04679245874285698  0.5740545392036438  0.17259779572486877  1.0000
  S   S1        1.0  0.7062156200408936  0.7995128035545348  0.21058860421180725  1.0000
  Sb  Sb1       1.0  0.3441931903362274  0.2072924971580505  0.3557102084159851  1.0000
  Sb  Sb2       1.0  0.23063340783119207  0.81523460149765  0.21048247814178467  1.0000
  Sb  Sb3       1.0  0.05042131617665293  0.4729382991790771  0.48311969637870783  1.0000
  Sb  Sb4       1.0  0.51188725233078  0.6611770391464233  0.7689819931983948  1.0000
  Sb  Sb5       1.0  0.5421183109283447  0.6604727506637573  0.7245833277702332  1.0000
  Sb  Sb6       1.0  0.05147018656134607  0.11915167421102522  0.3254219591617584  1.0000
  Sb  Sb7       1.0  0.7276670932769775  0.9450260400772094  0.8791887164115906  1.0000
  Sb  Sb8       1.0  0.1087854281067849  0.9747201800346373  0.8642258644104003  1.0000
  Sb  Sb9       1.0  0.7168945074081421  0.4911398589611053  0.5552729368209839  1.0000
  Sb  Sb10      1.0  0.7067441344261169  0.31519514322280884  0.16835361719131467  1.0000
