data_image0
_chemical_formula_structural       Co3F2O3Sb5
_chemical_formula_sum              "Co3 F2 O3 Sb5"
_cell_length_a       5.895661793827652
_cell_length_b       6.174231302759124
_cell_length_c       6.138487339019775
_cell_angle_alpha    98.8497044667572
_cell_angle_beta     102.79698934554548
_cell_angle_gamma    96.36676569720326

_space_group_name_H-M_alt    "P 1"
_space_group_IT_number       1

loop_
  _space_group_symop_operation_xyz
  'x, y, z'

loop_
  _atom_site_type_symbol
  _atom_site_label
  _atom_site_symmetry_multiplicity
  _atom_site_fract_x
  _atom_site_fract_y
  _atom_site_fract_z
  _atom_site_occupancy
  Co  Co1       1.0  0.064945288002491  0.3122045695781708  0.8661455512046814  1.0000
  Co  Co2       1.0  0.6336252093315125  0.8720632195472718  0.7211428880691528  1.0000
  Co  Co3       1.0  0.08173865079879764  0.9754797816276551  0.04278647154569629  1.0000
  F   F1        1.0  0.8509728312492371  0.5954387187957764  0.2537180185317993  1.0000
  F   F2        1.0  0.35549062490463257  0.8357239365577699  0.3998446762561798  1.0000
  O   O1        1.0  0.3873436748981476  0.9714361429214479  0.8873595595359802  1.0000
  O   O2        1.0  0.03807564079761505  0.30466005206108093  0.6933567523956299  1.0000
  O   O3        1.0  0.5541062951087952  0.30384382605552673  0.9163439869880676  1.0000
  Sb  Sb1       1.0  0.6288206577301025  0.6545186042785645  0.9006324410438538  1.0000
  Sb  Sb2       1.0  0.05048416554927826  0.3117833435535431  0.8674787878990173  1.0000
  Sb  Sb3       1.0  0.8716661334037781  0.9350662827491761  0.8875789046287537  1.0000
  Sb  Sb4       1.0  0.6388797760009766  0.3650825619697571  0.6941965222358704  1.0000
  Sb  Sb5       1.0  0.36851054430007935  0.4280330836772919  0.2310706079006195  1.0000
