data_image0
_chemical_formula_structural       Co2F3O4Sb4
_chemical_formula_sum              "Co2 F3 O4 Sb4"
_cell_length_a       5.764035151947495
_cell_length_b       6.338710748200687
_cell_length_c       6.8958048820495605
_cell_angle_alpha    109.81430496631417
_cell_angle_beta     105.46720087548948
_cell_angle_gamma    107.85115075206821

_space_group_name_H-M_alt    "P 1"
_space_group_IT_number       1

loop_
  _space_group_symop_operation_xyz
  'x, y, z'

loop_
  _atom_site_type_symbol
  _atom_site_label
  _atom_site_symmetry_multiplicity
  _atom_site_fract_x
  _atom_site_fract_y
  _atom_site_fract_z
  _atom_site_occupancy
  Co  Co1       1.0  0.5891410708427429  0.47143802046775823  0.40062591433525085  1.0000
  Co  Co2       1.0  0.8383893370628357  0.6503875255584717  0.662687361240387  1.0000
  F   F1        1.0  0.5982154011726379  0.7354575395584106  0.6436119079589844  1.0000
  F   F2        1.0  0.3522641658782959  0.181609109044075  0.04346698150038719  1.0000
  F   F3        1.0  0.11279264092445376  0.4718186557292939  0.7150613069534302  1.0000
  O   O1        1.0  0.7905329465866089  0.8463782072067262  0.10466640442609787  1.0000
  O   O2        1.0  0.4661173224449158  0.8352567553520204  0.1250084787607193  1.0000
  O   O3        1.0  0.2941909432411194  0.19217148423194885  0.6152831315994263  1.0000
  O   O4        1.0  0.595281183719635  0.6167109608650208  0.3964869976043701  1.0000
  Sb  Sb1       1.0  0.8448795080184937  0.16020555794239044  0.35195308923721313  1.0000
  Sb  Sb2       1.0  0.0999431163072586  0.601629912853241  0.856248676776886  1.0000
  Sb  Sb3       1.0  0.10001640766859055  0.3093903958797455  0.10311450064182281  1.0000
  Sb  Sb4       1.0  0.08670634031295783  0.9745925664901735  0.44960722327232366  1.0000
