data_image0
_chemical_formula_structural       F3O2Sb7Sc
_chemical_formula_sum              "F3 O2 Sb7 Sc1"
_cell_length_a       5.173415071119165
_cell_length_b       6.729629724730792
_cell_length_c       8.300143241882324
_cell_angle_alpha    111.15578716869304
_cell_angle_beta     101.4562405781759
_cell_angle_gamma    88.42921852429598

_space_group_name_H-M_alt    "P 1"
_space_group_IT_number       1

loop_
  _space_group_symop_operation_xyz
  'x, y, z'

loop_
  _atom_site_type_symbol
  _atom_site_label
  _atom_site_symmetry_multiplicity
  _atom_site_fract_x
  _atom_site_fract_y
  _atom_site_fract_z
  _atom_site_occupancy
  F   F1        1.0  0.9534942507743835  0.9490565061569214  0.7712032794952393  1.0000
  F   F2        1.0  0.4644026458263397  0.257548987865448  0.5329617261886597  1.0000
  F   F3        1.0  0.6708194613456726  0.5089665055274963  0.46085092425346375  1.0000
  O   O1        1.0  0.45226043462753296  0.4865541160106659  0.6880661249160767  1.0000
  O   O2        1.0  0.23543933033943176  0.9291454553604126  0.7898759245872498  1.0000
  Sb  Sb1       1.0  0.4587254524230957  0.6937643885612488  0.3114313483238221  1.0000
  Sb  Sb2       1.0  0.6757305264472961  0.45553669333457947  0.39478474855422974  1.0000
  Sb  Sb3       1.0  0.9525166749954224  0.7472925782203674  0.6404491066932678  1.0000
  Sb  Sb4       1.0  0.6627286672592163  0.9190792441368103  0.07326832413673401  1.0000
  Sb  Sb5       1.0  0.9453102946281433  0.9618750214576721  0.9768925309181213  1.0000
  Sb  Sb6       1.0  0.16321346163749695  0.8521832227706909  0.8028069734573364  1.0000
  Sb  Sb7       1.0  0.16839653253555298  0.17478160560131073  0.07106515020132065  1.0000
  Sc  Sc1       1.0  0.19972193241119385  0.16426153481006622  0.9587517380714417  1.0000
