data_image0
_chemical_formula_structural       F2OSb10
_chemical_formula_sum              "F2 O1 Sb10"
_cell_length_a       6.6178292046142095
_cell_length_b       7.162681539340247
_cell_length_c       7.872856140136719
_cell_angle_alpha    69.6467503048162
_cell_angle_beta     67.51613657291985
_cell_angle_gamma    63.21244166921461

_space_group_name_H-M_alt    "P 1"
_space_group_IT_number       1

loop_
  _space_group_symop_operation_xyz
  'x, y, z'

loop_
  _atom_site_type_symbol
  _atom_site_label
  _atom_site_symmetry_multiplicity
  _atom_site_fract_x
  _atom_site_fract_y
  _atom_site_fract_z
  _atom_site_occupancy
  F   F1        1.0  0.06924238055944443  0.7827927470207214  0.8371093273162842  1.0000
  F   F2        1.0  0.9328356981277467  0.6135531067848206  0.968779683113098  1.0000
  O   O1        1.0  0.1131294220685959  0.04258083179593086  0.9702395200729369  1.0000
  Sb  Sb1       1.0  0.6392027139663696  0.26500168442726135  0.47659185528755177  1.0000
  Sb  Sb2       1.0  0.28857022523880005  0.03706072270870209  0.9339156746864318  1.0000
  Sb  Sb3       1.0  0.6101681590080261  0.018807612359523773  0.31909865140914917  1.0000
  Sb  Sb4       1.0  0.2529638111591339  0.2409183382987976  0.1270851194858551  1.0000
  Sb  Sb5       1.0  0.9058766961097718  0.5797954201698303  0.8093294501304626  1.0000
  Sb  Sb6       1.0  0.9849266409873964  0.48507884144783026  0.0876425951719284  1.0000
  Sb  Sb7       1.0  0.8756299614906312  0.792464017868042  0.8326409459114075  1.0000
  Sb  Sb8       1.0  0.5915284752845764  0.7805601358413696  0.8290626406669617  1.0000
  Sb  Sb9       1.0  0.24286217987537387  0.7393014430999756  0.46209862828254694  1.0000
  Sb  Sb10      1.0  0.2958603501319885  0.24733449518680575  0.18097074329853055  1.0000
