data_image0
_chemical_formula_structural       AsBrCoGeHINPbSb2
_chemical_formula_sum              "As1 Br1 Co1 Ge1 H1 I1 N1 Pb1 Sb2"
_cell_length_a       6.920963169029038
_cell_length_b       7.534224770144125
_cell_length_c       7.614191055297852
_cell_angle_alpha    111.09220984368922
_cell_angle_beta     90.2145412612391
_cell_angle_gamma    90.14541966154965

_space_group_name_H-M_alt    "P 1"
_space_group_IT_number       1

loop_
  _space_group_symop_operation_xyz
  'x, y, z'

loop_
  _atom_site_type_symbol
  _atom_site_label
  _atom_site_symmetry_multiplicity
  _atom_site_fract_x
  _atom_site_fract_y
  _atom_site_fract_z
  _atom_site_occupancy
  As  As1       1.0  0.6846346855163574  0.1154935732483864  0.08892703056335449  1.0000
  Br  Br1       1.0  0.7264136075973511  0.772309720516205  0.8210470676422119  1.0000
  Co  Co1       1.0  0.18585070967674255  0.1357061266899109  0.9162100553512573  1.0000
  Ge  Ge1       1.0  0.18014922738075256  0.5054337978363037  0.13716156780719763  1.0000
  H   H1        1.0  0.6878731846809387  0.768402934074402  0.056302074342966135  1.0000
  I   I1        1.0  0.6922253370285034  0.5402471423149109  0.19665020704269412  1.0000
  N   N1        1.0  0.1860668957233429  0.7459822297096254  0.3712193369865418  1.0000
  Pb  Pb1       1.0  0.19071103632450104  0.537401556968689  0.5358452200889587  1.0000
  Sb  Sb1       1.0  0.19881495833396912  0.5869234204292297  0.5448068380355835  1.0000
  Sb  Sb2       1.0  0.687689483165741  0.3126894235610962  0.04802216961979869  1.0000
