data_image0
_chemical_formula_structural       CrGeNPSbSm4Ti
_chemical_formula_sum              "Cr1 Ge1 N1 P1 Sb1 Sm4 Ti1"
_cell_length_a       6.21271020566187
_cell_length_b       7.922295909425188
_cell_length_c       8.568204879760742
_cell_angle_alpha    115.62985213538772
_cell_angle_beta     89.34527991926522
_cell_angle_gamma    89.85089473565937

_space_group_name_H-M_alt    "P 1"
_space_group_IT_number       1

loop_
  _space_group_symop_operation_xyz
  'x, y, z'

loop_
  _atom_site_type_symbol
  _atom_site_label
  _atom_site_symmetry_multiplicity
  _atom_site_fract_x
  _atom_site_fract_y
  _atom_site_fract_z
  _atom_site_occupancy
  Cr  Cr1       1.0  0.2852783501148224  0.13317018747329712  0.6953266263008118  1.0000
  Ge  Ge1       1.0  0.5594324469566345  0.4780939221382141  0.3771270513534546  1.0000
  N   N1        1.0  0.051729727536439896  0.3421364724636078  0.1537689715623856  1.0000
  P   P1        1.0  0.0676979273557663  0.8904719352722168  0.5708888173103333  1.0000
  Sb  Sb1       1.0  0.056332211941480644  0.566508948802948  0.09909890592098236  1.0000
  Sm  Sm1       1.0  0.5604923367500305  0.9199625849723816  0.24091768264770508  1.0000
  Sm  Sm2       1.0  0.05861261487007142  0.9692813754081726  0.9840592741966248  1.0000
  Sm  Sm3       1.0  0.05622996762394906  0.11681029945611954  0.39703693985939026  1.0000
  Sm  Sm4       1.0  0.5579700469970703  0.8945072889328003  0.677333414554596  1.0000
  Ti  Ti1       1.0  0.5536903142929077  0.6760887503623962  0.6053506135940552  1.0000
