data_image0
_chemical_formula_structural       B3CrSm6
_chemical_formula_sum              "B3 Cr1 Sm6"
_cell_length_a       4.257641370971512
_cell_length_b       4.968326422951644
_cell_length_c       6.34336519241333
_cell_angle_alpha    115.68071355375284
_cell_angle_beta     113.479933613402
_cell_angle_gamma    98.90486900866946

_space_group_name_H-M_alt    "P 1"
_space_group_IT_number       1

loop_
  _space_group_symop_operation_xyz
  'x, y, z'

loop_
  _atom_site_type_symbol
  _atom_site_label
  _atom_site_symmetry_multiplicity
  _atom_site_fract_x
  _atom_site_fract_y
  _atom_site_fract_z
  _atom_site_occupancy
  B   B1        1.0  0.8460755348205566  0.9198349118232727  0.14770740270614624  1.0000
  B   B2        1.0  0.3232136070728302  0.3961881101131439  0.9186129570007324  1.0000
  B   B3        1.0  0.835396945476532  0.49907565116882324  0.5639393329620361  1.0000
  Cr  Cr1       1.0  0.818862795829773  0.7466368675231934  0.598962128162384  1.0000
  Sm  Sm1       1.0  0.3208617866039276  0.02446361631155014  0.5136721134185791  1.0000
  Sm  Sm2       1.0  0.8210904002189636  0.17651689052581787  0.5587273240089417  1.0000
  Sm  Sm3       1.0  0.5959694981575012  0.46074625849723816  0.2389431744813919  1.0000
  Sm  Sm4       1.0  0.3193626403808594  0.8219925165176392  0.07346145808696754  1.0000
  Sm  Sm5       1.0  0.8223761320114136  0.027970336377620697  0.23662352561950684  1.0000
  Sm  Sm6       1.0  0.31972330808639526  0.8355497717857361  0.8610775470733643  1.0000
