data_image0
_chemical_formula_structural       B3Sm7
_chemical_formula_sum              "B3 Sm7"
_cell_length_a       5.550178506114551
_cell_length_b       5.870394492542265
_cell_length_c       8.59485912322998
_cell_angle_alpha    103.7998141643646
_cell_angle_beta     105.949988193288
_cell_angle_gamma    89.80079459207616

_space_group_name_H-M_alt    "P 1"
_space_group_IT_number       1

loop_
  _space_group_symop_operation_xyz
  'x, y, z'

loop_
  _atom_site_type_symbol
  _atom_site_label
  _atom_site_symmetry_multiplicity
  _atom_site_fract_x
  _atom_site_fract_y
  _atom_site_fract_z
  _atom_site_occupancy
  B   B1        1.0  0.6666156053543091  0.6522423028945923  0.8629255294799805  1.0000
  B   B2        1.0  0.17633278667926788  0.00018444554007146508  0.7153750658035278  1.0000
  B   B3        1.0  0.17898935079574585  0.4584996700286865  0.8143552541732788  1.0000
  Sm  Sm1       1.0  0.15039174258708954  0.47154319286346436  0.964542031288147  1.0000
  Sm  Sm2       1.0  0.16836000978946686  0.043070945888757706  0.28254106640815735  1.0000
  Sm  Sm3       1.0  0.6676128506660461  0.9599982500076294  0.48298007249832153  1.0000
  Sm  Sm4       1.0  0.4167879521846771  0.5657885670661926  0.6382617354393005  1.0000
  Sm  Sm5       1.0  0.16781100630760193  0.3267028331756592  0.3417864739894867  1.0000
  Sm  Sm6       1.0  0.6733005046844482  0.8463294506072998  0.16359460353851318  1.0000
  Sm  Sm7       1.0  0.6579049825668335  0.5506709218025208  0.8957204222679138  1.0000
