data_image0
_chemical_formula_structural       PRb6ScSiZr
_chemical_formula_sum              "P1 Rb6 Sc1 Si1 Zr1"
_cell_length_a       5.494985606972893
_cell_length_b       4.6050872955393105
_cell_length_c       7.964591026306152
_cell_angle_alpha    74.80796789715166
_cell_angle_beta     69.34847356565008
_cell_angle_gamma    55.46249144971065

_space_group_name_H-M_alt    "P 1"
_space_group_IT_number       1

loop_
  _space_group_symop_operation_xyz
  'x, y, z'

loop_
  _atom_site_type_symbol
  _atom_site_label
  _atom_site_symmetry_multiplicity
  _atom_site_fract_x
  _atom_site_fract_y
  _atom_site_fract_z
  _atom_site_occupancy
  P   P1        1.0  0.36873874068260193  0.0806225836277008  0.10585925728082658  1.0000
  Rb  Rb1       1.0  0.7427946329116821  0.6743741631507874  0.5961068272590637  1.0000
  Rb  Rb2       1.0  0.37034377455711365  0.03078916296362877  0.7766017317771912  1.0000
  Rb  Rb3       1.0  0.6470963358879089  0.5808156728744507  0.7562033534049988  1.0000
  Rb  Rb4       1.0  0.11861879378557205  0.6163997054100037  0.7612525820732117  1.0000
  Rb  Rb5       1.0  0.624445915222168  0.8077991604804993  0.35235878825187683  1.0000
  Rb  Rb6       1.0  0.12311852723360062  0.7708197236061096  0.4164627194404602  1.0000
  Sc  Sc1       1.0  0.12798647582530975  0.8011413812637329  0.6986179947853088  1.0000
  Si  Si1       1.0  0.570076584815979  0.40443965792655945  0.9956153035163879  1.0000
  Zr  Zr1       1.0  0.7014132738113403  0.4150656759738922  0.38441088795661926  1.0000
