data_image0
_chemical_formula_structural       In2LuP2Rb5
_chemical_formula_sum              "In2 Lu1 P2 Rb5"
_cell_length_a       5.894921574262311
_cell_length_b       5.767897058263576
_cell_length_c       8.985509872436523
_cell_angle_alpha    76.91407028339177
_cell_angle_beta     69.55153464168839
_cell_angle_gamma    65.70931736132039

_space_group_name_H-M_alt    "P 1"
_space_group_IT_number       1

loop_
  _space_group_symop_operation_xyz
  'x, y, z'

loop_
  _atom_site_type_symbol
  _atom_site_label
  _atom_site_symmetry_multiplicity
  _atom_site_fract_x
  _atom_site_fract_y
  _atom_site_fract_z
  _atom_site_occupancy
  In  In1       1.0  0.6490521430969238  0.8161147832870483  0.4668659567832947  1.0000
  In  In2       1.0  0.196792870759964  0.3904057443141937  0.3239610493183136  1.0000
  Lu  Lu1       1.0  0.19829827547073364  0.7889373302459717  0.7999617457389832  1.0000
  P   P1        1.0  0.6612563133239746  0.5235555768013  0.6934758424758911  1.0000
  P   P2        1.0  0.6744104027748108  0.7744896411895752  0.9944202899932861  1.0000
  Rb  Rb1       1.0  0.13340900838375092  0.8734586238861084  0.03209913522005081  1.0000
  Rb  Rb2       1.0  0.692855954170227  0.10015783458948135  0.4019150733947754  1.0000
  Rb  Rb3       1.0  0.9180233478546143  0.6244288086891174  0.15452386438846588  1.0000
  Rb  Rb4       1.0  0.18373045325279236  0.2545933425426483  0.39442944526672363  1.0000
  Rb  Rb5       1.0  0.6530370712280273  0.806233286857605  0.3507699966430664  1.0000
