data_image0
_chemical_formula_structural       LuPRb7S
_chemical_formula_sum              "Lu1 P1 Rb7 S1"
_cell_length_a       7.06667517905058
_cell_length_b       7.099785073825961
_cell_length_c       9.868520736694336
_cell_angle_alpha    72.08526413985753
_cell_angle_beta     70.73461705977839
_cell_angle_gamma    71.23888073719344

_space_group_name_H-M_alt    "P 1"
_space_group_IT_number       1

loop_
  _space_group_symop_operation_xyz
  'x, y, z'

loop_
  _atom_site_type_symbol
  _atom_site_label
  _atom_site_symmetry_multiplicity
  _atom_site_fract_x
  _atom_site_fract_y
  _atom_site_fract_z
  _atom_site_occupancy
  Lu  Lu1       1.0  0.2927228808403015  0.47195351123809814  0.4954175055027008  1.0000
  P   P1        1.0  0.7119958996772767  0.40180012583732605  0.4660472273826599  1.0000
  Rb  Rb1       1.0  0.215394601225853  0.8609356880187988  0.4099409878253937  1.0000
  Rb  Rb2       1.0  0.4589628875255585  0.1815759539604187  0.8835825324058533  1.0000
  Rb  Rb3       1.0  0.2561699450016022  0.3243533968925476  0.18306735157966614  1.0000
  Rb  Rb4       1.0  0.24675741791725161  0.8808048367500305  0.8913745880126953  1.0000
  Rb  Rb5       1.0  0.23762573301792148  0.5511063933372498  0.0659533143043518  1.0000
  Rb  Rb6       1.0  0.019558966159820557  0.13154099881649017  0.4596465229988098  1.0000
  Rb  Rb7       1.0  0.7635436058044435  0.12790067493915558  0.9593167304992676  1.0000
  S   S1        1.0  0.7419404387474061  0.9241055846214294  0.9533289074897766  1.0000
