data_image0
_chemical_formula_structural       Pd3Rb3S4
_chemical_formula_sum              "Pd3 Rb3 S4"
_cell_length_a       6.343870430234614
_cell_length_b       6.74704386815529
_cell_length_c       7.2618088722229
_cell_angle_alpha    69.38223397256279
_cell_angle_beta     66.12146045383791
_cell_angle_gamma    65.35752336849325

_space_group_name_H-M_alt    "P 1"
_space_group_IT_number       1

loop_
  _space_group_symop_operation_xyz
  'x, y, z'

loop_
  _atom_site_type_symbol
  _atom_site_label
  _atom_site_symmetry_multiplicity
  _atom_site_fract_x
  _atom_site_fract_y
  _atom_site_fract_z
  _atom_site_occupancy
  Pd  Pd1       1.0  0.5134609341621399  0.6336232423782349  0.3999070823192597  1.0000
  Pd  Pd2       1.0  0.7662442326545715  0.837274968624115  0.31635791063308716  1.0000
  Pd  Pd3       1.0  0.2628852128982544  0.2928540110588074  0.7602009177207947  1.0000
  Rb  Rb1       1.0  0.756503164768219  0.24182020127773285  0.3536893129348755  1.0000
  Rb  Rb2       1.0  0.7658075094223022  0.5947776436805725  0.6263380646705627  1.0000
  Rb  Rb3       1.0  0.2430602461099625  0.29781657457351685  0.06052952259778977  1.0000
  S   S1        1.0  0.1906408816576004  0.7727795243263245  0.4239874482154847  1.0000
  S   S2        1.0  0.10686255991458893  0.7038700580596924  0.35422250628471375  1.0000
  S   S3        1.0  0.7150895595550537  0.42932191491127014  0.43007749319076544  1.0000
  S   S4        1.0  0.08292272686958313  0.2134578824043274  0.8623390793800355  1.0000
