data_image0
_chemical_formula_structural       BrPPdRb6S
_chemical_formula_sum              "Br1 P1 Pd1 Rb6 S1"
_cell_length_a       6.569862260535694
_cell_length_b       6.641418565751612
_cell_length_c       7.779371738433838
_cell_angle_alpha    75.09723329426912
_cell_angle_beta     70.36308650959703
_cell_angle_gamma    71.4187851475408

_space_group_name_H-M_alt    "P 1"
_space_group_IT_number       1

loop_
  _space_group_symop_operation_xyz
  'x, y, z'

loop_
  _atom_site_type_symbol
  _atom_site_label
  _atom_site_symmetry_multiplicity
  _atom_site_fract_x
  _atom_site_fract_y
  _atom_site_fract_z
  _atom_site_occupancy
  Br  Br1       1.0  0.2580142915248871  0.1370408833026886  0.2536904513835907  1.0000
  P   P1        1.0  0.5026801228523254  0.24957360327243808  0.1883094608783722  1.0000
  Pd  Pd1       1.0  0.6747620701789856  0.536203920841217  0.6188830137252808  1.0000
  Rb  Rb1       1.0  0.8507279753684999  0.3010403513908386  0.043958380818367004  1.0000
  Rb  Rb2       1.0  0.9184520840644838  0.34743696451187134  0.5061580538749695  1.0000
  Rb  Rb3       1.0  0.9191571474075318  0.8116419315338136  0.9052106142044067  1.0000
  Rb  Rb4       1.0  0.9773027300834657  0.4337740242481232  0.5407910346984863  1.0000
  Rb  Rb5       1.0  0.6875498294830322  0.31189319491386414  0.8966121673583984  1.0000
  Rb  Rb6       1.0  0.35336485505104065  0.7780933976173402  0.6064151525497437  1.0000
  S   S1        1.0  0.932366967201233  0.5140296816825867  0.5832909345626831  1.0000
