data_image0
_chemical_formula_structural       OPd4S5
_chemical_formula_sum              "O1 Pd4 S5"
_cell_length_a       5.472869631290736
_cell_length_b       5.960059612348394
_cell_length_c       6.596446990966797
_cell_angle_alpha    85.06248073429069
_cell_angle_beta     84.70611178139076
_cell_angle_gamma    85.62859097172031

_space_group_name_H-M_alt    "P 1"
_space_group_IT_number       1

loop_
  _space_group_symop_operation_xyz
  'x, y, z'

loop_
  _atom_site_type_symbol
  _atom_site_label
  _atom_site_symmetry_multiplicity
  _atom_site_fract_x
  _atom_site_fract_y
  _atom_site_fract_z
  _atom_site_occupancy
  O   O1        1.0  0.24204881489276886  0.8133435249328613  0.050789974629879  1.0000
  Pd  Pd1       1.0  0.7542080879211426  0.12701427936553955  0.7177922129631042  1.0000
  Pd  Pd2       1.0  0.7298568487167358  0.9911382794380188  0.3083879351615906  1.0000
  Pd  Pd3       1.0  0.2546576261520386  0.02991923876106739  0.9293572902679443  1.0000
  Pd  Pd4       1.0  0.9968770742416382  0.1739106923341751  0.7171561121940613  1.0000
  S   S1        1.0  0.256661981344223  0.505679726600647  0.5154568552970886  1.0000
  S   S2        1.0  0.7651879787445068  0.22471946477890015  0.8755779266357422  1.0000
  S   S3        1.0  0.7474602460861206  0.8306112885475159  0.41064122319221497  1.0000
  S   S4        1.0  0.28706541657447815  0.17579519748687744  0.7120855450630188  1.0000
  S   S5        1.0  0.25901317596435547  0.9018601179122925  0.3893183171749115  1.0000
