data_image0
_chemical_formula_structural       CoGeNbPtScTiTl2Tm
_chemical_formula_sum              "Co1 Ge1 Nb1 Pt1 Sc1 Ti1 Tl2 Tm1"
_cell_length_a       5.974722075063418
_cell_length_b       6.075050907965897
_cell_length_c       5.919251918792725
_cell_angle_alpha    106.94185910577724
_cell_angle_beta     101.75451720839212
_cell_angle_gamma    92.47196519977793

_space_group_name_H-M_alt    "P 1"
_space_group_IT_number       1

loop_
  _space_group_symop_operation_xyz
  'x, y, z'

loop_
  _atom_site_type_symbol
  _atom_site_label
  _atom_site_symmetry_multiplicity
  _atom_site_fract_x
  _atom_site_fract_y
  _atom_site_fract_z
  _atom_site_occupancy
  Co  Co1       1.0  0.33383601903915405  0.8243134617805481  0.6379569172859192  1.0000
  Ge  Ge1       1.0  0.8388679027557373  0.3683624267578125  0.06894225627183914  1.0000
  Nb  Nb1       1.0  0.36379173398017883  0.19935940206050873  0.9316369891166688  1.0000
  Pt  Pt1       1.0  0.9495249390602112  0.17644479870796204  0.4768227338790894  1.0000
  Sc  Sc1       1.0  0.6290255188941956  0.07483579963445663  0.622970461845398  1.0000
  Ti  Ti1       1.0  0.8528344631195068  0.8801410794258118  0.6022448539733887  1.0000
  Tl  Tl1       1.0  0.8385998606681824  0.8824069499969482  0.7138628959655762  1.0000
  Tl  Tl2       1.0  0.33709126710891724  0.19283127784729004  0.8385516405105592  1.0000
  Tm  Tm1       1.0  0.8372721672058105  0.9125617146492004  0.6239070296287537  1.0000
