data_image0
_chemical_formula_structural       Ca2ClCoGeIrPtSc2
_chemical_formula_sum              "Ca2 Cl1 Co1 Ge1 Ir1 Pt1 Sc2"
_cell_length_a       5.278025066953398
_cell_length_b       6.226752212653503
_cell_length_c       6.225993633270264
_cell_angle_alpha    124.20402998646276
_cell_angle_beta     89.36125392323447
_cell_angle_gamma    90.11216904841393

_space_group_name_H-M_alt    "P 1"
_space_group_IT_number       1

loop_
  _space_group_symop_operation_xyz
  'x, y, z'

loop_
  _atom_site_type_symbol
  _atom_site_label
  _atom_site_symmetry_multiplicity
  _atom_site_fract_x
  _atom_site_fract_y
  _atom_site_fract_z
  _atom_site_occupancy
  Ca  Ca1       1.0  0.2381015866994858  0.6661521196365356  0.7058554887771606  1.0000
  Ca  Ca2       1.0  0.7360602021217346  0.33131131529808044  0.17002727091312408  1.0000
  Cl  Cl1       1.0  0.7375333309173584  0.22806203365325928  0.27414581179618835  1.0000
  Co  Co1       1.0  0.23820485174655917  0.20252026617527008  0.05484332889318465  1.0000
  Ge  Ge1       1.0  0.23793284595012668  0.6467008590698242  0.08477470278739929  1.0000
  Ir  Ir1       1.0  0.7379804849624634  0.8573917746543884  0.3859033584594726  1.0000
  Pt  Pt1       1.0  0.737593948841095  0.1435755342245102  0.36036014556884766  1.0000
  Sc  Sc1       1.0  0.23667894303798678  0.11926717311143875  0.8315486311912537  1.0000
  Sc  Sc2       1.0  0.7376948595046997  0.16701793670654297  0.3627636432647705  1.0000
