data_image0
_chemical_formula_structural       LaNa6Te2
_chemical_formula_sum              "La1 Na6 Te2"
_cell_length_a       5.1279825495163065
_cell_length_b       5.014655828132818
_cell_length_c       10.324485778808594
_cell_angle_alpha    89.7447614998897
_cell_angle_beta     90.89426493537516
_cell_angle_gamma    90.51546939905008

_space_group_name_H-M_alt    "P 1"
_space_group_IT_number       1

loop_
  _space_group_symop_operation_xyz
  'x, y, z'

loop_
  _atom_site_type_symbol
  _atom_site_label
  _atom_site_symmetry_multiplicity
  _atom_site_fract_x
  _atom_site_fract_y
  _atom_site_fract_z
  _atom_site_occupancy
  La  La1       1.0  0.22067438066005707  0.4138243496417999  0.34212788939476013  1.0000
  Na  Na1       1.0  0.7162936925888062  0.7662141919136047  0.7892503142356873  1.0000
  Na  Na2       1.0  0.7093136310577393  0.48891422152519226  0.42439213395118713  1.0000
  Na  Na3       1.0  0.7261521816253662  0.43824681639671326  0.15659530460834503  1.0000
  Na  Na4       1.0  0.22491830587387085  0.20562121272087097  0.6222785115242004  1.0000
  Na  Na5       1.0  0.7208300828933716  0.9019429087638855  0.9890750050544739  1.0000
  Na  Na6       1.0  0.22100722789764404  0.754185676574707  0.4297061860561371  1.0000
  Te  Te1       1.0  0.21820488572120667  0.3944154381752014  0.9944413900375366  1.0000
  Te  Te2       1.0  0.7224880456924438  0.5735159516334534  0.06940581649541855  1.0000
