data_image0
_chemical_formula_structural       ClI2IrNaPt2TcTl
_chemical_formula_sum              "Cl1 I2 Ir1 Na1 Pt2 Tc1 Tl1"
_cell_length_a       6.073905103347408
_cell_length_b       5.76962593718182
_cell_length_c       5.750052452087402
_cell_angle_alpha    110.93927940465387
_cell_angle_beta     107.59484529936014
_cell_angle_gamma    95.62189165974203

_space_group_name_H-M_alt    "P 1"
_space_group_IT_number       1

loop_
  _space_group_symop_operation_xyz
  'x, y, z'

loop_
  _atom_site_type_symbol
  _atom_site_label
  _atom_site_symmetry_multiplicity
  _atom_site_fract_x
  _atom_site_fract_y
  _atom_site_fract_z
  _atom_site_occupancy
  Cl  Cl1       1.0  0.035833533853292465  0.1869034767150879  0.39920493960380554  1.0000
  I   I1        1.0  0.5554177761077881  0.7438353300094604  0.9681004881858826  1.0000
  I   I2        1.0  0.5600590109825134  0.9634553790092468  0.2729999125003815  1.0000
  Ir  Ir1       1.0  0.5571770071983337  0.6112800240516663  0.08071575313806542  1.0000
  Na  Na1       1.0  0.5603147149085999  0.9060304760932922  0.7816269397735596  1.0000
  Pt  Pt1       1.0  0.06628018617630005  0.20749102532863617  0.8670136332511902  1.0000
  Pt  Pt2       1.0  0.5479006171226501  0.07082142680883408  0.10352460294961933  1.0000
  Tc  Tc1       1.0  0.5534118413925171  0.942878246307373  0.37815326452255255  1.0000
  Tl  Tl1       1.0  0.057740572839975364  0.11351166665554047  0.12573902308940887  1.0000
