data_image0
_chemical_formula_structural       CaGeNa4Te3
_chemical_formula_sum              "Ca1 Ge1 Na4 Te3"
_cell_length_a       5.489744823731981
_cell_length_b       5.880771976238197
_cell_length_c       9.255898475646973
_cell_angle_alpha    113.12860679461265
_cell_angle_beta     91.5560229817575
_cell_angle_gamma    106.82605594454556

_space_group_name_H-M_alt    "P 1"
_space_group_IT_number       1

loop_
  _space_group_symop_operation_xyz
  'x, y, z'

loop_
  _atom_site_type_symbol
  _atom_site_label
  _atom_site_symmetry_multiplicity
  _atom_site_fract_x
  _atom_site_fract_y
  _atom_site_fract_z
  _atom_site_occupancy
  Ca  Ca1       1.0  0.6823967695236206  0.6694119572639465  0.5459024906158447  1.0000
  Ge  Ge1       1.0  0.1835402250289917  0.2805418372154236  0.5258567333221436  1.0000
  Na  Na1       1.0  0.1883944422006607  0.27927350997924805  0.3019043207168579  1.0000
  Na  Na2       1.0  0.685400128364563  0.8624036908149719  0.3640462458133698  1.0000
  Na  Na3       1.0  0.1878637671470642  0.5310139656066895  0.733557939529419  1.0000
  Na  Na4       1.0  0.6895437240600586  0.9859753251075745  0.3923750817775727  1.0000
  Te  Te1       1.0  0.1939852386713028  0.9673654437065125  0.27205067873001104  1.0000
  Te  Te2       1.0  0.18116171658039093  0.6627376675605774  0.9252057671546936  1.0000
  Te  Te3       1.0  0.6820858716964722  0.2722344994544983  0.4978737235069275  1.0000
