data_image0
_chemical_formula_structural       I2Li5P
_chemical_formula_sum              "I2 Li5 P1"
_cell_length_a       5.180828880904625
_cell_length_b       5.5553846736770085
_cell_length_c       6.464445114135742
_cell_angle_alpha    104.19316294470408
_cell_angle_beta     96.14885979225616
_cell_angle_gamma    110.76955368945268

_space_group_name_H-M_alt    "P 1"
_space_group_IT_number       1

loop_
  _space_group_symop_operation_xyz
  'x, y, z'

loop_
  _atom_site_type_symbol
  _atom_site_label
  _atom_site_symmetry_multiplicity
  _atom_site_fract_x
  _atom_site_fract_y
  _atom_site_fract_z
  _atom_site_occupancy
  I   I1        1.0  0.611514687538147  0.12216106057167053  0.6336225867271423  1.0000
  I   I2        1.0  0.4278312623500824  0.7030029892921448  0.8666198253631591  1.0000
  Li  Li1       1.0  0.6204032301902771  0.37737134099006653  0.9831736087799071  1.0000
  Li  Li2       1.0  0.6028184294700623  0.28881025314331055  0.9781632423400878  1.0000
  Li  Li3       1.0  0.10941328853368759  0.5030156970024109  0.41010183095932  1.0000
  Li  Li4       1.0  0.11316892504692078  0.679739236831665  0.27095624804496765  1.0000
  Li  Li5       1.0  0.6611909866333008  0.2088967263698578  0.6126627326011658  1.0000
  P   P1        1.0  0.11376244574785233  0.23630180954933167  0.742154598236084  1.0000
