data_image0
_chemical_formula_structural       ILi3NiPTbZn
_chemical_formula_sum              "I1 Li3 Ni1 P1 Tb1 Zn1"
_cell_length_a       4.670685625877699
_cell_length_b       4.499476820871436
_cell_length_c       5.566554546356201
_cell_angle_alpha    89.82335351475349
_cell_angle_beta     99.99142512273072
_cell_angle_gamma    103.91351315931601

_space_group_name_H-M_alt    "P 1"
_space_group_IT_number       1

loop_
  _space_group_symop_operation_xyz
  'x, y, z'

loop_
  _atom_site_type_symbol
  _atom_site_label
  _atom_site_symmetry_multiplicity
  _atom_site_fract_x
  _atom_site_fract_y
  _atom_site_fract_z
  _atom_site_occupancy
  I   I1        1.0  0.629126787185669  0.9109381437301636  0.2150236815214157  1.0000
  Li  Li1       1.0  0.31643345952033997  0.5257514715194702  0.520750105381012  1.0000
  Li  Li2       1.0  0.7247107625007629  0.5812016129493713  0.9805643558502197  1.0000
  Li  Li3       1.0  0.6865569353103638  0.5072552561759949  0.574713945388794  1.0000
  Ni  Ni1       1.0  0.5300182104110718  0.216640442609787  0.34522107243537903  1.0000
  P   P1        1.0  0.05681305378675461  0.17367641627788544  0.7089765667915344  1.0000
  Tb  Tb1       1.0  0.14533257484436035  0.6579503417015076  0.27185648679733276  1.0000
  Zn  Zn1       1.0  0.0569242499768734  0.06978882849216461  0.4699230492115021  1.0000
