data_image0
_chemical_formula_structural       NiO2SU5
_chemical_formula_sum              "Ni1 O2 S1 U5"
_cell_length_a       4.955686280051361
_cell_length_b       6.138590084440141
_cell_length_c       7.280107498168945
_cell_angle_alpha    113.10395549071437
_cell_angle_beta     109.71348584637418
_cell_angle_gamma    88.87223050906914

_space_group_name_H-M_alt    "P 1"
_space_group_IT_number       1

loop_
  _space_group_symop_operation_xyz
  'x, y, z'

loop_
  _atom_site_type_symbol
  _atom_site_label
  _atom_site_symmetry_multiplicity
  _atom_site_fract_x
  _atom_site_fract_y
  _atom_site_fract_z
  _atom_site_occupancy
  Ni  Ni1       1.0  0.5912395119667053  0.9413039684295654  0.9443655610084534  1.0000
  O   O1        1.0  0.24680031836032867  0.45496097207069397  0.46251198649406433  1.0000
  O   O2        1.0  0.08525707572698593  0.9491340517997742  0.6094584465026855  1.0000
  S   S1        1.0  0.06423187255859375  0.23499849438667297  0.6007749438285828  1.0000
  U   U1        1.0  0.6154664158821106  0.7243889570236206  0.5990407466888428  1.0000
  U   U2        1.0  0.3246236741542816  0.20925772190093994  0.25341200828552246  1.0000
  U   U3        1.0  0.10929133743047714  0.4614323675632477  0.013359864242374926  1.0000
  U   U4        1.0  0.5958034992218018  0.9397519826889038  0.2361724078655243  1.0000
  U   U5        1.0  0.743251383304596  0.43394267559051514  0.22614040970802307  1.0000
