data_image0
_chemical_formula_structural       HIO2U5
_chemical_formula_sum              "H1 I1 O2 U5"
_cell_length_a       6.6222641297655755
_cell_length_b       6.73995386350094
_cell_length_c       6.804246425628662
_cell_angle_alpha    108.52379499032537
_cell_angle_beta     110.71615877245232
_cell_angle_gamma    109.65857887087176

_space_group_name_H-M_alt    "P 1"
_space_group_IT_number       1

loop_
  _space_group_symop_operation_xyz
  'x, y, z'

loop_
  _atom_site_type_symbol
  _atom_site_label
  _atom_site_symmetry_multiplicity
  _atom_site_fract_x
  _atom_site_fract_y
  _atom_site_fract_z
  _atom_site_occupancy
  H   H1        1.0  0.6775480508804321  0.07817134261131287  0.6216061115264893  1.0000
  I   I1        1.0  0.8244237899780273  0.88543301820755  0.11721289902925491  1.0000
  O   O1        1.0  0.1241091638803482  0.40665706992149353  0.6489978432655334  1.0000
  O   O2        1.0  0.678014874458313  0.39068928360939026  0.9725230932235718  1.0000
  U   U1        1.0  0.8394481539726257  0.8797425031661987  0.30588358640670776  1.0000
  U   U2        1.0  0.33014950156211853  0.9086018204689026  0.8069950938224792  1.0000
  U   U3        1.0  0.8414117693901062  0.8745400309562683  0.8078963756561279  1.0000
  U   U4        1.0  0.32861995697021484  0.4021450877189636  0.30852749943733215  1.0000
  U   U5        1.0  0.8310525417327881  0.3908862769603729  0.6213531494140625  1.0000
