data_image0
_chemical_formula_structural       O4TiU4
_chemical_formula_sum              "O4 Ti1 U4"
_cell_length_a       1.558715330557285
_cell_length_b       3.9536616166040006
_cell_length_c       9.410487174987793
_cell_angle_alpha    93.16411850722258
_cell_angle_beta     112.8696714236608
_cell_angle_gamma    32.46782088020683

_space_group_name_H-M_alt    "P 1"
_space_group_IT_number       1

loop_
  _space_group_symop_operation_xyz
  'x, y, z'

loop_
  _atom_site_type_symbol
  _atom_site_label
  _atom_site_symmetry_multiplicity
  _atom_site_fract_x
  _atom_site_fract_y
  _atom_site_fract_z
  _atom_site_occupancy
  O   O1        1.0  0.2087267339229584  0.2269195169210434  0.5399138331413269  1.0000
  O   O2        1.0  0.2839568555355072  0.6834582686424255  0.007527814712375415  1.0000
  O   O3        1.0  0.7769294381141664  0.6664048433303833  0.8485009670257568  1.0000
  O   O4        1.0  0.7767711877822877  0.43322908878326416  0.914183497428894  1.0000
  Ti  Ti1       1.0  0.7696489095687867  0.5438068509101868  0.6800704598426819  1.0000
  U   U1        1.0  0.27788054943084717  0.04961646348237991  0.9089376330375671  1.0000
  U   U2        1.0  0.2852364182472229  0.05594521760940552  0.3273770809173584  1.0000
  U   U3        1.0  0.7747183442115785  0.371829092502594  0.08265177905559543  1.0000
  U   U4        1.0  0.3147352337837219  0.7675784826278687  0.28564175963401794  1.0000
