data_image0
_chemical_formula_structural       O4Te3U2
_chemical_formula_sum              "O4 Te3 U2"
_cell_length_a       4.071975476679498
_cell_length_b       5.027468533030025
_cell_length_c       10.127089500427246
_cell_angle_alpha    89.80791295315578
_cell_angle_beta     88.96638789422333
_cell_angle_gamma    90.27261407109812

_space_group_name_H-M_alt    "P 1"
_space_group_IT_number       1

loop_
  _space_group_symop_operation_xyz
  'x, y, z'

loop_
  _atom_site_type_symbol
  _atom_site_label
  _atom_site_symmetry_multiplicity
  _atom_site_fract_x
  _atom_site_fract_y
  _atom_site_fract_z
  _atom_site_occupancy
  O   O1        1.0  0.02924414537847042  0.45152321457862854  0.08348041772842407  1.0000
  O   O2        1.0  0.5184987187385559  0.8294533491134644  0.04511929303407669  1.0000
  O   O3        1.0  0.5301209092140198  0.17707926034927368  0.7227946519851683  1.0000
  O   O4        1.0  0.026892876252532005  0.08821971714496613  0.34747275710105896  1.0000
  Te  Te1       1.0  0.03239107504487038  0.3673384487628937  0.5924718976020813  1.0000
  Te  Te2       1.0  0.5252742767333984  0.5966113209724426  0.34078073501586914  1.0000
  Te  Te3       1.0  0.030938146635890007  0.7825594544410706  0.09300348162651062  1.0000
  U   U1        1.0  0.014362750574946404  0.3606676757335663  0.851029098033905  1.0000
  U   U2        1.0  0.5402511358261108  0.8617063760757446  0.13174650073051453  1.0000
