data_image0
_chemical_formula_structural       O5TiU3
_chemical_formula_sum              "O5 Ti1 U3"
_cell_length_a       4.595826991631912
_cell_length_b       5.83579028048959
_cell_length_c       5.768110275268555
_cell_angle_alpha    120.20454280855647
_cell_angle_beta     110.8304800451347
_cell_angle_gamma    89.92809258446

_space_group_name_H-M_alt    "P 1"
_space_group_IT_number       1

loop_
  _space_group_symop_operation_xyz
  'x, y, z'

loop_
  _atom_site_type_symbol
  _atom_site_label
  _atom_site_symmetry_multiplicity
  _atom_site_fract_x
  _atom_site_fract_y
  _atom_site_fract_z
  _atom_site_occupancy
  O   O1        1.0  0.9194788932800293  0.18114778399467468  0.03184953331947327  1.0000
  O   O2        1.0  0.808287501335144  0.668266773223877  0.3368132412433624  1.0000
  O   O3        1.0  0.9429129362106323  0.1353243887424469  0.14157576858997345  1.0000
  O   O4        1.0  0.457868754863739  0.6898440718650818  0.12294744700193405  1.0000
  O   O5        1.0  0.4185245633125305  0.9169021248817444  0.03636784106492996  1.0000
  Ti  Ti1       1.0  0.06791200488805771  0.6425833702087402  0.743224561214447  1.0000
  U   U1        1.0  0.9526225924491882  0.1777111142873764  0.40328729152679443  1.0000
  U   U2        1.0  0.46775832772254944  0.8231027722358704  0.9874202013015747  1.0000
  U   U3        1.0  0.46803346276283264  0.3194062113761902  0.6057897210121155  1.0000
