data_image0
_chemical_formula_structural       O5Te2U2
_chemical_formula_sum              "O5 Te2 U2"
_cell_length_a       5.191141863916022
_cell_length_b       5.824553362915348
_cell_length_c       8.67322063446045
_cell_angle_alpha    92.60190214779749
_cell_angle_beta     89.46842182887963
_cell_angle_gamma    114.76134250606276

_space_group_name_H-M_alt    "P 1"
_space_group_IT_number       1

loop_
  _space_group_symop_operation_xyz
  'x, y, z'

loop_
  _atom_site_type_symbol
  _atom_site_label
  _atom_site_symmetry_multiplicity
  _atom_site_fract_x
  _atom_site_fract_y
  _atom_site_fract_z
  _atom_site_occupancy
  O   O1        1.0  0.21706925332546237  0.6366730332374573  0.4844387173652649  1.0000
  O   O2        1.0  0.4913987517356873  0.1644771546125412  0.1244141086935997  1.0000
  O   O3        1.0  0.8974220156669618  0.17831477522850037  0.8669058680534363  1.0000
  O   O4        1.0  0.8651795387268068  0.48062843084335327  0.9766930341720581  1.0000
  O   O5        1.0  0.3860848546028137  0.9741584062576294  0.40289101004600525  1.0000
  Te  Te1       1.0  0.0822315663099289  0.47313424944877625  0.8010802268981934  1.0000
  Te  Te2       1.0  0.5768311023712158  0.8205362558364868  0.1209898367524147  1.0000
  U   U1        1.0  0.6106612086296082  0.31103697419166565  0.6273928880691528  1.0000
  U   U2        1.0  0.16694219410419464  0.9838077425956726  0.9780452251434326  1.0000
