data_image0
_chemical_formula_structural       DyGe2Rb7
_chemical_formula_sum              "Dy1 Ge2 Rb7"
_cell_length_a       6.876950973705006
_cell_length_b       7.298859788155685
_cell_length_c       8.489325523376465
_cell_angle_alpha    108.01076660524978
_cell_angle_beta     96.50090246517752
_cell_angle_gamma    104.81455568715265

_space_group_name_H-M_alt    "P 1"
_space_group_IT_number       1

loop_
  _space_group_symop_operation_xyz
  'x, y, z'

loop_
  _atom_site_type_symbol
  _atom_site_label
  _atom_site_symmetry_multiplicity
  _atom_site_fract_x
  _atom_site_fract_y
  _atom_site_fract_z
  _atom_site_occupancy
  Dy  Dy1       1.0  0.9875800609588623  0.438996821641922  0.3987888991832733  1.0000
  Ge  Ge1       1.0  0.995536744594574  0.8291795253753662  0.13856413960456848  1.0000
  Ge  Ge2       1.0  0.4818330407142639  0.28279781341552734  0.7017321586608887  1.0000
  Rb  Rb1       1.0  0.9966078400611877  0.2253551036119461  0.8725805878639221  1.0000
  Rb  Rb2       1.0  0.49363207817077637  0.541817843914032  0.5169579982757568  1.0000
  Rb  Rb3       1.0  0.9920203685760498  0.7351775765419006  0.6182571649551392  1.0000
  Rb  Rb4       1.0  0.4911485016345978  0.4207412004470825  0.541052520275116  1.0000
  Rb  Rb5       1.0  0.49131813645362854  0.3996226489543915  0.9980137348175049  1.0000
  Rb  Rb6       1.0  0.4880234897136688  0.4189894497394562  0.8567478060722351  1.0000
  Rb  Rb7       1.0  0.49283450841903687  0.5858503580093384  0.6444383859634399  1.0000
