data_image0
_chemical_formula_structural       ClGe2Rb7
_chemical_formula_sum              "Cl1 Ge2 Rb7"
_cell_length_a       5.222797444123429
_cell_length_b       7.990398444800489
_cell_length_c       9.525235176086426
_cell_angle_alpha    90.07655913804396
_cell_angle_beta     90.51187707928125
_cell_angle_gamma    98.39071866305899

_space_group_name_H-M_alt    "P 1"
_space_group_IT_number       1

loop_
  _space_group_symop_operation_xyz
  'x, y, z'

loop_
  _atom_site_type_symbol
  _atom_site_label
  _atom_site_symmetry_multiplicity
  _atom_site_fract_x
  _atom_site_fract_y
  _atom_site_fract_z
  _atom_site_occupancy
  Cl  Cl1       1.0  0.814792573451996  0.7127365469932556  0.5295047760009766  1.0000
  Ge  Ge1       1.0  0.31161701679229736  0.18395234644412994  0.7298195362091064  1.0000
  Ge  Ge2       1.0  0.29945528507232666  0.5961596369743347  0.8192243576049805  1.0000
  Rb  Rb1       1.0  0.3041306734085083  0.5428616404533386  0.2699035406112671  1.0000
  Rb  Rb2       1.0  0.3169226050376892  0.7334977388381958  0.259214848279953  1.0000
  Rb  Rb3       1.0  0.8210269212722779  0.0819239690899849  0.020235799252986908  1.0000
  Rb  Rb4       1.0  0.8050711154937745  0.27026206254959106  0.7463276982307434  1.0000
  Rb  Rb5       1.0  0.7996796965599061  0.16216973960399628  0.5433306694030762  1.0000
  Rb  Rb6       1.0  0.8069941997528077  0.15885333716869354  0.08022632449865341  1.0000
  Rb  Rb7       1.0  0.31732112169265747  0.7990661263465881  0.9847012162208557  1.0000
