data_image0
_chemical_formula_structural       ClGe2Rb6U
_chemical_formula_sum              "Cl1 Ge2 Rb6 U1"
_cell_length_a       6.96895010302357
_cell_length_b       7.0627237268498195
_cell_length_c       8.074224472045898
_cell_angle_alpha    115.13227096945326
_cell_angle_beta     113.86814132085816
_cell_angle_gamma    99.00049209109824

_space_group_name_H-M_alt    "P 1"
_space_group_IT_number       1

loop_
  _space_group_symop_operation_xyz
  'x, y, z'

loop_
  _atom_site_type_symbol
  _atom_site_label
  _atom_site_symmetry_multiplicity
  _atom_site_fract_x
  _atom_site_fract_y
  _atom_site_fract_z
  _atom_site_occupancy
  Cl  Cl1       1.0  0.05204501375555992  0.8020906448364258  0.3304183185100556  1.0000
  Ge  Ge1       1.0  0.384988933801651  0.3373976945877075  0.10001061111688614  1.0000
  Ge  Ge2       1.0  0.8015011548995972  0.4441465437412262  0.2738500237464905  1.0000
  Rb  Rb1       1.0  0.7596978545188904  0.8312254548072815  0.18349216878414154  1.0000
  Rb  Rb2       1.0  0.5745863318443298  0.1285822093486786  0.6532828211784363  1.0000
  Rb  Rb3       1.0  0.5565375089645386  0.6811411380767822  0.85652095079422  1.0000
  Rb  Rb4       1.0  0.3752385377883911  0.9711262583732605  0.3268856406211853  1.0000
  Rb  Rb5       1.0  0.06405104696750641  0.6074081659317017  0.1785388737916947  1.0000
  Rb  Rb6       1.0  0.9146517515182495  0.7652696371078491  0.42678695917129517  1.0000
  U   U1        1.0  0.24884773790836334  0.8080771565437317  0.838481605052948  1.0000
