data_image0
_chemical_formula_structural       CClGePtRb6
_chemical_formula_sum              "C1 Cl1 Ge1 Pt1 Rb6"
_cell_length_a       6.55994039520547
_cell_length_b       6.785716440824776
_cell_length_c       8.640939712524414
_cell_angle_alpha    103.22793929535148
_cell_angle_beta     102.91974142366736
_cell_angle_gamma    105.06461916572077

_space_group_name_H-M_alt    "P 1"
_space_group_IT_number       1

loop_
  _space_group_symop_operation_xyz
  'x, y, z'

loop_
  _atom_site_type_symbol
  _atom_site_label
  _atom_site_symmetry_multiplicity
  _atom_site_fract_x
  _atom_site_fract_y
  _atom_site_fract_z
  _atom_site_occupancy
  C   C1        1.0  0.9126328229904174  0.386618971824646  0.6848948001861572  1.0000
  Cl  Cl1       1.0  0.9091417789459227  0.3564624786376953  0.33847713470458984  1.0000
  Ge  Ge1       1.0  0.43051561713218683  0.6293472647666931  0.04544554278254509  1.0000
  Pt  Pt1       1.0  0.924793779850006  0.9240202307701111  0.22641538083553314  1.0000
  Rb  Rb1       1.0  0.43381702899932856  0.8960838913917542  0.42283639311790466  1.0000
  Rb  Rb2       1.0  0.7171602845191956  0.48825177550315857  0.8605890274047852  1.0000
  Rb  Rb3       1.0  0.4287658333778381  0.1643649786710739  0.3727610409259796  1.0000
  Rb  Rb4       1.0  0.9199005365371703  0.7842920422554016  0.43915876746177673  1.0000
  Rb  Rb5       1.0  0.40561345219612116  0.5282070636749268  0.9987200498580933  1.0000
  Rb  Rb6       1.0  0.9293943047523497  0.7636549472808838  0.43243637681007385  1.0000
