data_image0
_chemical_formula_structural       Rb10
_chemical_formula_sum              "Rb10"
_cell_length_a       6.559717396609069
_cell_length_b       7.457062188718222
_cell_length_c       8.947540283203125
_cell_angle_alpha    90.99275287637384
_cell_angle_beta     93.26020390079867
_cell_angle_gamma    100.23692896936498

_space_group_name_H-M_alt    "P 1"
_space_group_IT_number       1

loop_
  _space_group_symop_operation_xyz
  'x, y, z'

loop_
  _atom_site_type_symbol
  _atom_site_label
  _atom_site_symmetry_multiplicity
  _atom_site_fract_x
  _atom_site_fract_y
  _atom_site_fract_z
  _atom_site_occupancy
  Rb  Rb1       1.0  0.5108283758163452  0.4545845687389374  0.7827460765838623  1.0000
  Rb  Rb2       1.0  0.5143751502037048  0.8153688311576843  0.06168612465262413  1.0000
  Rb  Rb3       1.0  0.5123153328895569  0.8431069850921631  0.0005152749363332987  1.0000
  Rb  Rb4       1.0  0.011650324799120426  0.6008349657058716  0.374356746673584  1.0000
  Rb  Rb5       1.0  0.013972238637506962  0.45448756217956543  0.6451054811477661  1.0000
  Rb  Rb6       1.0  0.012729115784168243  0.23853671550750732  0.0966770127415657  1.0000
  Rb  Rb7       1.0  0.01264598872512579  0.20256751775741577  0.9600780010223389  1.0000
  Rb  Rb8       1.0  0.5131411552429199  0.9207944273948669  0.24342899024486542  1.0000
  Rb  Rb9       1.0  0.012141893617808819  0.23028689622879028  0.3164225220680237  1.0000
  Rb  Rb10      1.0  0.01400742493569851  0.8137847185134888  0.4428708851337433  1.0000
