data_image0
_chemical_formula_structural       ClRb7U2
_chemical_formula_sum              "Cl1 Rb7 U2"
_cell_length_a       7.646381636777683
_cell_length_b       7.3395479046115195
_cell_length_c       7.935689926147461
_cell_angle_alpha    115.12590092063614
_cell_angle_beta     117.4134690246983
_cell_angle_gamma    94.49288354668035

_space_group_name_H-M_alt    "P 1"
_space_group_IT_number       1

loop_
  _space_group_symop_operation_xyz
  'x, y, z'

loop_
  _atom_site_type_symbol
  _atom_site_label
  _atom_site_symmetry_multiplicity
  _atom_site_fract_x
  _atom_site_fract_y
  _atom_site_fract_z
  _atom_site_occupancy
  Cl  Cl1       1.0  0.6383054852485657  0.6132521033287048  0.9935768842697144  1.0000
  Rb  Rb1       1.0  0.5744979977607727  0.9032622575759888  0.5300514698028564  1.0000
  Rb  Rb2       1.0  0.8543474674224854  0.2514408230781555  0.4662891626358032  1.0000
  Rb  Rb3       1.0  0.8502472043037415  0.916468620300293  0.9903290867805481  1.0000
  Rb  Rb4       1.0  0.3357774317264557  0.3937729597091675  0.5955836772918701  1.0000
  Rb  Rb5       1.0  0.8195331692695618  0.3895449936389923  0.32361918687820435  1.0000
  Rb  Rb6       1.0  0.8304637670516968  0.0996856614947319  0.40116044878959656  1.0000
  Rb  Rb7       1.0  0.3423905372619629  0.27527138590812683  0.8040018081665039  1.0000
  U   U1        1.0  0.34738561511039734  0.5919556021690369  0.5562225580215454  1.0000
  U   U2        1.0  0.3286858797073364  0.3015224039554596  0.9888269901275635  1.0000
