data_image0
_chemical_formula_structural       H2Ho7S
_chemical_formula_sum              "H2 Ho7 S1"
_cell_length_a       5.149660135830813
_cell_length_b       7.101647009005178
_cell_length_c       7.360976219177246
_cell_angle_alpha    117.97112502300357
_cell_angle_beta     90.38676637118203
_cell_angle_gamma    88.98273114084917

_space_group_name_H-M_alt    "P 1"
_space_group_IT_number       1

loop_
  _space_group_symop_operation_xyz
  'x, y, z'

loop_
  _atom_site_type_symbol
  _atom_site_label
  _atom_site_symmetry_multiplicity
  _atom_site_fract_x
  _atom_site_fract_y
  _atom_site_fract_z
  _atom_site_occupancy
  H   H1        1.0  0.03309079632163048  0.6218796968460083  0.5737510919570923  1.0000
  H   H2        1.0  0.5288925170898438  0.35386207699775696  0.86726975440979  1.0000
  Ho  Ho1       1.0  0.033391304314136505  0.7127074003219604  0.6487820148468018  1.0000
  Ho  Ho2       1.0  0.5338583588600159  0.6055377125740051  0.3779451251029968  1.0000
  Ho  Ho3       1.0  0.030010661110281944  0.0852174237370491  0.9352650046348571  1.0000
  Ho  Ho4       1.0  0.030880674719810486  0.11784981936216354  0.4286687672138214  1.0000
  Ho  Ho5       1.0  0.5332583785057068  0.9975901246070862  0.6385610699653625  1.0000
  Ho  Ho6       1.0  0.02793162688612938  0.9932660460472107  0.21346545219421387  1.0000
  Ho  Ho7       1.0  0.5307489633560181  0.45735788345336914  0.3515641689300537  1.0000
  S   S1        1.0  0.5338985323905945  0.7530970573425293  0.8802122473716736  1.0000
