data_image0
_chemical_formula_structural       HHo7S2
_chemical_formula_sum              "H1 Ho7 S2"
_cell_length_a       5.262981922534238
_cell_length_b       7.096836020465397
_cell_length_c       7.503963947296143
_cell_angle_alpha    116.94794449360533
_cell_angle_beta     89.99379107956892
_cell_angle_gamma    89.44065478937767

_space_group_name_H-M_alt    "P 1"
_space_group_IT_number       1

loop_
  _space_group_symop_operation_xyz
  'x, y, z'

loop_
  _atom_site_type_symbol
  _atom_site_label
  _atom_site_symmetry_multiplicity
  _atom_site_fract_x
  _atom_site_fract_y
  _atom_site_fract_z
  _atom_site_occupancy
  H   H1        1.0  0.3860365152359009  0.2673054039478302  0.5965648293495178  1.0000
  Ho  Ho1       1.0  0.046040184795856476  0.268901526927948  0.7920497059822083  1.0000
  Ho  Ho2       1.0  0.5513585209846497  0.020103029906749725  0.06515593826770782  1.0000
  Ho  Ho3       1.0  0.8104457855224609  0.2927541136741638  0.19588063657283783  1.0000
  Ho  Ho4       1.0  0.5523566603660583  0.45892372727394104  0.6754299998283386  1.0000
  Ho  Ho5       1.0  0.04864467680454254  0.5018615126609802  0.15161494910717008  1.0000
  Ho  Ho6       1.0  0.31383755803108215  0.5840147137641907  0.3361334204673767  1.0000
  Ho  Ho7       1.0  0.5454437732696533  0.004867333918809891  0.8924683928489685  1.0000
  S   S1        1.0  0.055537085980176926  0.7676934003829956  0.8003882765769958  1.0000
  S   S2        1.0  0.5549520254135132  0.757271409034729  0.9574206471443176  1.0000
