data_image0
_chemical_formula_structural       AsHHo5S3
_chemical_formula_sum              "As1 H1 Ho5 S3"
_cell_length_a       4.988333460535526
_cell_length_b       7.401611426941317
_cell_length_c       7.614502906799316
_cell_angle_alpha    118.8946004927664
_cell_angle_beta     88.03998528742392
_cell_angle_gamma    89.97221049800743

_space_group_name_H-M_alt    "P 1"
_space_group_IT_number       1

loop_
  _space_group_symop_operation_xyz
  'x, y, z'

loop_
  _atom_site_type_symbol
  _atom_site_label
  _atom_site_symmetry_multiplicity
  _atom_site_fract_x
  _atom_site_fract_y
  _atom_site_fract_z
  _atom_site_occupancy
  As  As1       1.0  0.3680453598499298  0.9001508951187134  0.0982349067926407  1.0000
  H   H1        1.0  0.8636136651039124  0.02136942371726036  0.8712098598480226  1.0000
  Ho  Ho1       1.0  0.37475326657295227  0.4334135055541992  0.871936321258545  1.0000
  Ho  Ho2       1.0  0.8564859628677368  0.9465247988700867  0.903039038181305  1.0000
  Ho  Ho3       1.0  0.8770468235015869  0.4633540213108063  0.5291832089424133  1.0000
  Ho  Ho4       1.0  0.8709750771522522  0.20057308673858643  0.5861805081367493  1.0000
  Ho  Ho5       1.0  0.36699286103248596  0.18789105117321014  0.23839654028415683  1.0000
  S   S1        1.0  0.8765113353729248  0.7142071723937988  0.20808103680610654  1.0000
  S   S2        1.0  0.8703582286834717  0.6688714623451233  0.7476837635040284  1.0000
  S   S3        1.0  0.3579421937465668  0.35945871472358704  0.39494740962982183  1.0000
