data_image0
_chemical_formula_structural       AlHHo6NiS
_chemical_formula_sum              "Al1 H1 Ho6 Ni1 S1"
_cell_length_a       4.958608608620409
_cell_length_b       7.481388619539819
_cell_length_c       7.505972385406494
_cell_angle_alpha    116.97388104753391
_cell_angle_beta     89.11804690134338
_cell_angle_gamma    89.30372343947992

_space_group_name_H-M_alt    "P 1"
_space_group_IT_number       1

loop_
  _space_group_symop_operation_xyz
  'x, y, z'

loop_
  _atom_site_type_symbol
  _atom_site_label
  _atom_site_symmetry_multiplicity
  _atom_site_fract_x
  _atom_site_fract_y
  _atom_site_fract_z
  _atom_site_occupancy
  Al  Al1       1.0  0.2877386212348938  0.7627521753311157  0.46819609403610235  1.0000
  H   H1        1.0  0.7566185593605042  0.15344186127185822  0.3270006477832794  1.0000
  Ho  Ho1       1.0  0.28451821208000183  0.168911412358284  0.11075612902641298  1.0000
  Ho  Ho2       1.0  0.7783874273300171  0.4999101459980011  0.6447907090187073  1.0000
  Ho  Ho3       1.0  0.28537705540657043  0.7595968842506409  0.538545548915863  1.0000
  Ho  Ho4       1.0  0.7734522223472595  0.551843523979187  0.4025460183620453  1.0000
  Ho  Ho5       1.0  0.28310373425483704  0.19835224747657776  0.9396058917045593  1.0000
  Ho  Ho6       1.0  0.263993501663208  0.4154236912727356  0.1446548700332642  1.0000
  Ni  Ni1       1.0  0.781225860118866  0.03555053472518921  0.8371512293815613  1.0000
  S   S1        1.0  0.7850666642189026  0.17579133808612823  0.8256483674049377  1.0000
