data_image0
_chemical_formula_structural       As2Ho6LaS
_chemical_formula_sum              "As2 Ho6 La1 S1"
_cell_length_a       5.277820388618887
_cell_length_b       6.243357923094594
_cell_length_c       7.840763092041016
_cell_angle_alpha    112.66227510272353
_cell_angle_beta     109.39809438888997
_cell_angle_gamma    86.29332437453799

_space_group_name_H-M_alt    "P 1"
_space_group_IT_number       1

loop_
  _space_group_symop_operation_xyz
  'x, y, z'

loop_
  _atom_site_type_symbol
  _atom_site_label
  _atom_site_symmetry_multiplicity
  _atom_site_fract_x
  _atom_site_fract_y
  _atom_site_fract_z
  _atom_site_occupancy
  As  As1       1.0  0.7289397716522217  0.977211058139801  0.8510938882827758  1.0000
  As  As2       1.0  0.2163468897342682  0.9174072742462158  0.5955211520195006  1.0000
  Ho  Ho1       1.0  0.7484250068664551  0.06094956025481224  0.2008535265922546  1.0000
  Ho  Ho2       1.0  0.7357380986213684  0.4096479117870331  0.550413429737091  1.0000
  Ho  Ho3       1.0  0.20758864283561707  0.21488431096076965  0.09289666265249251  1.0000
  Ho  Ho4       1.0  0.7196719646453857  0.7164231538772583  0.2805857956409454  1.0000
  Ho  Ho5       1.0  0.23643121123313904  0.4724406599998474  0.3699952661991119  1.0000
  Ho  Ho6       1.0  0.255380779504776  0.2534257471561432  0.23094457387924192  1.0000
  La  La1       1.0  0.698928713798523  0.28980308771133423  0.06431706249713898  1.0000
  S   S1        1.0  0.7353115081787109  0.34817659854888916  0.07263041287660597  1.0000
