data_image0
_chemical_formula_structural       AgAs2Ho6S
_chemical_formula_sum              "Ag1 As2 Ho6 S1"
_cell_length_a       4.40851928250332
_cell_length_b       5.88939318304873
_cell_length_c       8.922054290771484
_cell_angle_alpha    113.42542350454026
_cell_angle_beta     90.45695509893923
_cell_angle_gamma    89.44791313801484

_space_group_name_H-M_alt    "P 1"
_space_group_IT_number       1

loop_
  _space_group_symop_operation_xyz
  'x, y, z'

loop_
  _atom_site_type_symbol
  _atom_site_label
  _atom_site_symmetry_multiplicity
  _atom_site_fract_x
  _atom_site_fract_y
  _atom_site_fract_z
  _atom_site_occupancy
  Ag  Ag1       1.0  0.1307355761528015  0.13358262181282043  0.061900582164525986  1.0000
  As  As1       1.0  0.6281816363334656  0.9054575562477112  0.3152205348014831  1.0000
  As  As2       1.0  0.6276091933250427  0.4573913812637329  0.5509629845619202  1.0000
  Ho  Ho1       1.0  0.1380375176668167  0.8746699690818787  0.6777236461639404  1.0000
  Ho  Ho2       1.0  0.6264623999595642  0.39489850401878357  0.19296580553054807  1.0000
  Ho  Ho3       1.0  0.12028590589761734  0.551868200302124  0.9125405550003052  1.0000
  Ho  Ho4       1.0  0.12117325514554977  0.8340870141983032  0.8741421699523926  1.0000
  Ho  Ho5       1.0  0.6386321187019348  0.27876362204551697  0.027575887739658345  1.0000
  Ho  Ho6       1.0  0.12314574420452118  0.8333256244659424  0.990913987159729  1.0000
  S   S1        1.0  0.12243320047855377  0.8317485451698303  0.18173265457153318  1.0000
