data_image0
_chemical_formula_structural       Al5LaS3Tl
_chemical_formula_sum              "Al5 La1 S3 Tl1"
_cell_length_a       6.246690199134214
_cell_length_b       6.807091699045652
_cell_length_c       7.6376118659973145
_cell_angle_alpha    118.59387009930013
_cell_angle_beta     111.38313073208798
_cell_angle_gamma    89.32149040958912

_space_group_name_H-M_alt    "P 1"
_space_group_IT_number       1

loop_
  _space_group_symop_operation_xyz
  'x, y, z'

loop_
  _atom_site_type_symbol
  _atom_site_label
  _atom_site_symmetry_multiplicity
  _atom_site_fract_x
  _atom_site_fract_y
  _atom_site_fract_z
  _atom_site_occupancy
  Al  Al1       1.0  0.1673656404018402  0.14026586711406708  0.6967135071754456  1.0000
  Al  Al2       1.0  0.40273085236549383  0.17088107764720917  0.6880939602851868  1.0000
  Al  Al3       1.0  0.30662405490875244  0.5626930594444275  0.08284289389848709  1.0000
  Al  Al4       1.0  0.4130148887634278  0.3335832357406616  0.698066234588623  1.0000
  Al  Al5       1.0  0.15445978939533234  0.8270231485366821  0.9494433403015137  1.0000
  La  La1       1.0  0.25185054540634155  0.007209454663097858  0.48285117745399475  1.0000
  S   S1        1.0  0.8606752753257753  0.9894502758979797  0.2273096740245819  1.0000
  S   S2        1.0  0.8028381466865541  0.6403920650482178  0.3106195628643036  1.0000
  S   S3        1.0  0.5036230087280273  0.14501439034938812  0.9531885385513306  1.0000
  Tl  Tl1       1.0  0.2755623161792755  0.6486796140670776  0.9484868049621582  1.0000
