data_image0
_chemical_formula_structural       Al5S2ScSiTl
_chemical_formula_sum              "Al5 S2 Sc1 Si1 Tl1"
_cell_length_a       5.5252182730327934
_cell_length_b       6.482896014437396
_cell_length_c       7.824497222900391
_cell_angle_alpha    121.09674927601873
_cell_angle_beta     108.51528518616725
_cell_angle_gamma    88.00369169925072

_space_group_name_H-M_alt    "P 1"
_space_group_IT_number       1

loop_
  _space_group_symop_operation_xyz
  'x, y, z'

loop_
  _atom_site_type_symbol
  _atom_site_label
  _atom_site_symmetry_multiplicity
  _atom_site_fract_x
  _atom_site_fract_y
  _atom_site_fract_z
  _atom_site_occupancy
  Al  Al1       1.0  0.7044751048088074  0.5790427923202515  0.8328027725219725  1.0000
  Al  Al2       1.0  0.9623802900314331  0.8665761351585389  0.6401152610778807  1.0000
  Al  Al3       1.0  0.7471734881401062  0.19695052504539493  0.33763149380683893  1.0000
  Al  Al4       1.0  0.09399092942476273  0.34178316593170166  0.7062050104141234  1.0000
  Al  Al5       1.0  0.504978358745575  0.12923911213874817  0.20121455192565915  1.0000
  S   S1        1.0  0.6469002366065979  0.27487656474113464  0.10404498875141142  1.0000
  S   S2        1.0  0.8404366970062256  0.26804494857788086  0.7149659991264342  1.0000
  Sc  Sc1       1.0  0.9494008421897888  0.8380075097084047  0.8742626309394835  1.0000
  Si  Si1       1.0  0.41207364201545715  0.1282031089067459  0.015728652477264404  1.0000
  Tl  Tl1       1.0  0.45368921756744385  0.8571053743362428  0.8656708002090453  1.0000
