data_image0
_chemical_formula_structural       Al3AsCd2LaS3
_chemical_formula_sum              "Al3 As1 Cd2 La1 S3"
_cell_length_a       5.7038028221987584
_cell_length_b       7.2754962530552945
_cell_length_c       7.168358325958252
_cell_angle_alpha    123.68049298845825
_cell_angle_beta     87.67648092908313
_cell_angle_gamma    90.43151657476272

_space_group_name_H-M_alt    "P 1"
_space_group_IT_number       1

loop_
  _space_group_symop_operation_xyz
  'x, y, z'

loop_
  _atom_site_type_symbol
  _atom_site_label
  _atom_site_symmetry_multiplicity
  _atom_site_fract_x
  _atom_site_fract_y
  _atom_site_fract_z
  _atom_site_occupancy
  Al  Al1       1.0  0.7688505053520203  0.8361448645591736  0.8748816251754761  1.0000
  Al  Al2       1.0  0.2589958906173706  0.3072980046272278  0.8121595978736877  1.0000
  Al  Al3       1.0  0.2600357234477997  0.7995432019233704  0.15906912088394165  1.0000
  As  As1       1.0  0.7627651691436768  0.3112977147102356  0.5319679975509644  1.0000
  Cd  Cd1       1.0  0.49795857071876526  0.6854820251464844  0.6603847146034241  1.0000
  Cd  Cd2       1.0  0.2551738917827606  0.19904351234436035  0.3171590566635132  1.0000
  La  La1       1.0  0.7672021389007568  0.29398539662361145  0.17180989682674408  1.0000
  S   S1        1.0  0.5070528388023376  0.7009924054145813  0.4333423972129822  1.0000
  S   S2        1.0  0.7689518332481384  0.9571837186813354  0.6008245944976807  1.0000
  S   S3        1.0  0.26027151942253113  0.5928418636322021  0.012047574855387273  1.0000
