data_image0
_chemical_formula_structural       Al5CdLaS3
_chemical_formula_sum              "Al5 Cd1 La1 S3"
_cell_length_a       5.631095913968061
_cell_length_b       7.177518766415002
_cell_length_c       7.927557468414307
_cell_angle_alpha    118.7169251491673
_cell_angle_beta     109.28005034983532
_cell_angle_gamma    88.27769374544373

_space_group_name_H-M_alt    "P 1"
_space_group_IT_number       1

loop_
  _space_group_symop_operation_xyz
  'x, y, z'

loop_
  _atom_site_type_symbol
  _atom_site_label
  _atom_site_symmetry_multiplicity
  _atom_site_fract_x
  _atom_site_fract_y
  _atom_site_fract_z
  _atom_site_occupancy
  Al  Al1       1.0  0.4972666800022125  0.9829729795455934  0.8971214294433593  1.0000
  Al  Al2       1.0  0.24188771843910217  0.5719294548034668  0.11725167930126189  1.0000
  Al  Al3       1.0  0.511268675327301  0.7071147561073303  0.0300751831382513  1.0000
  Al  Al4       1.0  0.6564404964447021  0.9753841757774354  0.6141855120658875  1.0000
  Al  Al5       1.0  0.5058406591415405  0.20732775330543518  0.4538763761520385  1.0000
  Cd  Cd1       1.0  0.16457568109035492  0.46701562404632574  0.16010291874408722  1.0000
  La  La1       1.0  0.40162894129753113  0.39537450671195984  0.27391043305397034  1.0000
  S   S1        1.0  0.47435110807418823  0.9365150332450868  0.08018934726715088  1.0000
  S   S2        1.0  0.02490322105586531  0.9590964913368226  0.9206102490425109  1.0000
  S   S3        1.0  0.539428174495697  0.4564626514911652  0.9086009263992308  1.0000
