data_image0
_chemical_formula_structural       Al6S4
_chemical_formula_sum              "Al6 S4"
_cell_length_a       5.217066462066398
_cell_length_b       6.287034856649298
_cell_length_c       7.666928291320801
_cell_angle_alpha    91.69029479060225
_cell_angle_beta     70.26736054333949
_cell_angle_gamma    63.16724378185441

_space_group_name_H-M_alt    "P 1"
_space_group_IT_number       1

loop_
  _space_group_symop_operation_xyz
  'x, y, z'

loop_
  _atom_site_type_symbol
  _atom_site_label
  _atom_site_symmetry_multiplicity
  _atom_site_fract_x
  _atom_site_fract_y
  _atom_site_fract_z
  _atom_site_occupancy
  Al  Al1       1.0  0.14622406661510473  0.4980745911598205  0.7084090113639832  1.0000
  Al  Al2       1.0  0.4359580874443054  0.6788654327392578  0.8699415922164917  1.0000
  Al  Al3       1.0  0.8130736947059632  0.7945486307144164  0.9737907648086548  1.0000
  Al  Al4       1.0  0.9350150227546692  0.8346047997474669  0.4234238266944885  1.0000
  Al  Al5       1.0  0.6279121041297913  0.4909374117851257  0.6326130032539368  1.0000
  Al  Al6       1.0  0.16897082328796392  0.4753991067409515  0.18045085668563843  1.0000
  S   S1        1.0  0.4674316942691803  0.1802237629890442  0.16875045001506805  1.0000
  S   S2        1.0  0.400473177433014  0.9909104108810424  0.13248562812805173  1.0000
  S   S3        1.0  0.8168462514877319  0.7092092037200928  0.9506851434707642  1.0000
  S   S4        1.0  0.8140058517456055  0.6431909799575806  0.29713812470436096  1.0000
