data_image0
_chemical_formula_structural       Cd5La2S3
_chemical_formula_sum              "Cd5 La2 S3"
_cell_length_a       5.242123386614967
_cell_length_b       7.702066238719902
_cell_length_c       7.413655757904053
_cell_angle_alpha    120.74893390315712
_cell_angle_beta     87.31204746824724
_cell_angle_gamma    89.93442851535369

_space_group_name_H-M_alt    "P 1"
_space_group_IT_number       1

loop_
  _space_group_symop_operation_xyz
  'x, y, z'

loop_
  _atom_site_type_symbol
  _atom_site_label
  _atom_site_symmetry_multiplicity
  _atom_site_fract_x
  _atom_site_fract_y
  _atom_site_fract_z
  _atom_site_occupancy
  Cd  Cd1       1.0  0.2867494225502014  0.2020469307899475  0.24421076476573944  1.0000
  Cd  Cd2       1.0  0.7441710829734802  0.06216076761484146  0.12779921293258667  1.0000
  Cd  Cd3       1.0  0.7645021080970764  0.8191846013069153  0.11070616543292999  1.0000
  Cd  Cd4       1.0  0.2752877473831177  0.6946877241134644  0.5386348366737366  1.0000
  Cd  Cd5       1.0  0.2695015072822571  0.567034125328064  0.7000280022621155  1.0000
  La  La1       1.0  0.761765718460083  0.6917544007301331  0.5116363763809203  1.0000
  La  La2       1.0  0.01982954889535904  0.0746600329875946  0.8113284707069397  1.0000
  S   S1        1.0  0.7522037029266357  0.6990743279457092  0.7855132818222046  1.0000
  S   S2        1.0  0.4968059062957763  0.6694087386131287  0.5512651801109314  1.0000
  S   S3        1.0  0.26025569438934326  0.23348109424114227  0.9988945722579956  1.0000
