data_image0
_chemical_formula_structural       S7Sc2
_chemical_formula_sum              "S7 Sc2"
_cell_length_a       5.636018093518599
_cell_length_b       6.65565687911385
_cell_length_c       8.207579612731934
_cell_angle_alpha    90.45565702158852
_cell_angle_beta     92.46992339382584
_cell_angle_gamma    89.48211830574783

_space_group_name_H-M_alt    "P 1"
_space_group_IT_number       1

loop_
  _space_group_symop_operation_xyz
  'x, y, z'

loop_
  _atom_site_type_symbol
  _atom_site_label
  _atom_site_symmetry_multiplicity
  _atom_site_fract_x
  _atom_site_fract_y
  _atom_site_fract_z
  _atom_site_occupancy
  S   S1        1.0  0.007102008908987045  0.5952366590499878  0.3043181002140045  1.0000
  S   S2        1.0  0.7844437956809998  0.9181551933288574  0.5482147336006165  1.0000
  S   S3        1.0  0.3047243058681488  0.41249772906303406  0.17027263343334198  1.0000
  S   S4        1.0  0.17098203301429749  0.20689214766025543  0.7840935587882996  1.0000
  S   S5        1.0  0.8112457990646362  0.9150896668434143  0.8412064909934998  1.0000
  S   S6        1.0  0.2910700738430023  0.3275090456008911  0.9952261447906494  1.0000
  S   S7        1.0  0.6603690981864929  0.2333669513463974  0.5408071279525757  1.0000
  Sc  Sc1       1.0  0.5487011075019836  0.8308051824569702  0.16136649250984192  1.0000
  Sc  Sc2       1.0  0.012329377233982086  0.7201316356658936  0.20079481601715088  1.0000
