data_image0
_chemical_formula_structural       CoS6ScSi
_chemical_formula_sum              "Co1 S6 Sc1 Si1"
_cell_length_a       5.712015201392746
_cell_length_b       6.283266272179933
_cell_length_c       7.57075834274292
_cell_angle_alpha    89.760221602709
_cell_angle_beta     89.33406396169904
_cell_angle_gamma    90.10665408693335

_space_group_name_H-M_alt    "P 1"
_space_group_IT_number       1

loop_
  _space_group_symop_operation_xyz
  'x, y, z'

loop_
  _atom_site_type_symbol
  _atom_site_label
  _atom_site_symmetry_multiplicity
  _atom_site_fract_x
  _atom_site_fract_y
  _atom_site_fract_z
  _atom_site_occupancy
  Co  Co1       1.0  0.9592272639274598  0.1699196845293045  0.6163763999938964  1.0000
  S   S1        1.0  0.8807925581932069  0.09857668727636337  0.7109301090240477  1.0000
  S   S2        1.0  0.1894722282886505  0.8473159074783325  0.8566241860389708  1.0000
  S   S3        1.0  0.4579268395900727  0.35994139313697815  0.9084476232528685  1.0000
  S   S4        1.0  0.7015053629875183  0.5206884741783142  0.2674085795879364  1.0000
  S   S5        1.0  0.20105503499507904  0.5175575017929077  0.27485230565071106  1.0000
  S   S6        1.0  0.6238976716995239  0.8571274280548096  0.4917225539684295  1.0000
  Sc  Sc1       1.0  0.21588148176670077  0.029747528955340385  0.44682118296623224  1.0000
  Si  Si1       1.0  0.7042863368988037  0.283080518245697  0.7232444882392882  1.0000
