data_image0
_chemical_formula_structural       PtS8
_chemical_formula_sum              "Pt1 S8"
_cell_length_a       5.7068962153140665
_cell_length_b       6.1840612115721445
_cell_length_c       7.578409671783447
_cell_angle_alpha    93.24705283874962
_cell_angle_beta     91.82395400091345
_cell_angle_gamma    89.687292696552

_space_group_name_H-M_alt    "P 1"
_space_group_IT_number       1

loop_
  _space_group_symop_operation_xyz
  'x, y, z'

loop_
  _atom_site_type_symbol
  _atom_site_label
  _atom_site_symmetry_multiplicity
  _atom_site_fract_x
  _atom_site_fract_y
  _atom_site_fract_z
  _atom_site_occupancy
  Pt  Pt1       1.0  0.0038155370857566595  0.9602257013320923  0.5745077729225159  1.0000
  S   S1        1.0  0.9899234771728516  0.6756369471549988  0.555795431137085  1.0000
  S   S2        1.0  0.9117962121963501  0.24673056602478027  0.16209849715232852  1.0000
  S   S3        1.0  0.27715936303138733  0.938943088054657  0.5765217542648315  1.0000
  S   S4        1.0  0.004700612276792526  0.6576838493347168  0.8236355185508729  1.0000
  S   S5        1.0  0.40848785638809204  0.40698006749153137  0.9738972783088685  1.0000
  S   S6        1.0  0.5232858657836914  0.9489484429359436  0.5860963463783264  1.0000
  S   S7        1.0  0.4809987246990204  0.3269568681716919  0.28168103098869324  1.0000
  S   S8        1.0  0.42479249835014343  0.3218179941177368  0.32718232274055487  1.0000
