data_image0
_chemical_formula_structural       BK3S5
_chemical_formula_sum              "B1 K3 S5"
_cell_length_a       4.9786668110788055
_cell_length_b       6.401118065960785
_cell_length_c       7.689452171325684
_cell_angle_alpha    88.20686039331414
_cell_angle_beta     87.41592513169358
_cell_angle_gamma    91.8079129730402

_space_group_name_H-M_alt    "P 1"
_space_group_IT_number       1

loop_
  _space_group_symop_operation_xyz
  'x, y, z'

loop_
  _atom_site_type_symbol
  _atom_site_label
  _atom_site_symmetry_multiplicity
  _atom_site_fract_x
  _atom_site_fract_y
  _atom_site_fract_z
  _atom_site_occupancy
  B   B1        1.0  0.4157855808734894  0.7137810587882996  0.26238134503364563  1.0000
  K   K1        1.0  0.8939986228942872  0.2322186529636383  0.30803507566452026  1.0000
  K   K2        1.0  0.9894755482673646  0.7162208557128906  0.2663920223712921  1.0000
  K   K3        1.0  0.9378696084022523  0.6621865630149841  0.7342493534088135  1.0000
  S   S1        1.0  0.4769281446933747  0.2022288739681244  0.7616397738456726  1.0000
  S   S2        1.0  0.3866328001022339  0.022443100810050964  0.49290984869003296  1.0000
  S   S3        1.0  7.384526543319225e-05  0.6975345611572266  0.49343442916870117  1.0000
  S   S4        1.0  0.9011999964714051  0.521766185760498  0.28913614153862  1.0000
  S   S5        1.0  0.38219085335731506  0.5238574743270874  0.26952144503593445  1.0000
