data_image0
_chemical_formula_structural       K8S
_chemical_formula_sum              "K8 S1"
_cell_length_a       12.807514645575427
_cell_length_b       12.505846462612904
_cell_length_c       12.036079406738281
_cell_angle_alpha    88.9845910711595
_cell_angle_beta     89.65926506846115
_cell_angle_gamma    113.76312372124363

_space_group_name_H-M_alt    "P 1"
_space_group_IT_number       1

loop_
  _space_group_symop_operation_xyz
  'x, y, z'

loop_
  _atom_site_type_symbol
  _atom_site_label
  _atom_site_symmetry_multiplicity
  _atom_site_fract_x
  _atom_site_fract_y
  _atom_site_fract_z
  _atom_site_occupancy
  K   K1        1.0  0.8776326775550842  0.6793175339698792  0.8060268163681031  1.0000
  K   K2        1.0  0.7325981855392456  0.7629464864730835  0.7306421995162965  1.0000
  K   K3        1.0  0.06523815542459488  0.17338767647743225  0.5732449293136597  1.0000
  K   K4        1.0  0.3611276149749756  0.8778188228607178  0.07239670306444168  1.0000
  K   K5        1.0  0.3886491358280182  0.18453381955623627  0.1059134602546692  1.0000
  K   K6        1.0  0.22003254294395447  0.19136065244674683  0.567064106464386  1.0000
  K   K7        1.0  0.044481437653303146  0.19798138737678528  0.10284943133592607  1.0000
  K   K8        1.0  0.832159698009491  0.07055483758449554  0.6062243580818176  1.0000
  S   S1        1.0  0.3829520046710968  0.18996447324752808  0.6111849546432495  1.0000
