data_image0
_chemical_formula_structural       C4Hg6K2MnOPb
_chemical_formula_sum              "C4 Hg6 K2 Mn1 O1 Pb1"
_cell_length_a       6.830243922695622
_cell_length_b       8.400668766660523
_cell_length_c       8.864582061767578
_cell_angle_alpha    123.5401510987255
_cell_angle_beta     91.49359993587468
_cell_angle_gamma    92.44259329244747

_space_group_name_H-M_alt    "P 1"
_space_group_IT_number       1

loop_
  _space_group_symop_operation_xyz
  'x, y, z'

loop_
  _atom_site_type_symbol
  _atom_site_label
  _atom_site_symmetry_multiplicity
  _atom_site_fract_x
  _atom_site_fract_y
  _atom_site_fract_z
  _atom_site_occupancy
  C   C1        1.0  0.367716759443283  0.11154469102621078  0.8124567270278931  1.0000
  C   C2        1.0  0.5291240811347961  0.4411481022834778  0.06864210218191147  1.0000
  C   C3        1.0  0.018755940720438957  0.6123634576797485  0.867682933807373  1.0000
  C   C4        1.0  0.7910659909248351  0.7722598910331726  0.5100989937782288  1.0000
  Hg  Hg1       1.0  0.2918354570865631  0.5328124165534973  0.09946832060813904  1.0000
  Hg  Hg2       1.0  0.7873148918151854  0.8466733694076538  0.7499346137046814  1.0000
  Hg  Hg3       1.0  0.2899278998374939  0.46762457489967346  0.6746633052825928  1.0000
  Hg  Hg4       1.0  0.7913894057273864  0.6812684535980225  0.44822052121162415  1.0000
  Hg  Hg5       1.0  0.7916709780693053  0.6796326041221619  0.921155571937561  1.0000
  Hg  Hg6       1.0  0.3236430883407593  0.7898517847061157  0.10711972415447235  1.0000
  K   K1        1.0  0.5391805171966553  0.9060064554214478  0.009996272623538971  1.0000
  K   K2        1.0  0.053886260837316506  0.3203064501285553  0.29030871391296387  1.0000
  Mn  Mn1       1.0  0.3091762959957123  0.016172368079423904  0.025031350553035736  1.0000
  O   O1        1.0  0.04230453819036483  0.13417328894138336  0.11804360151290894  1.0000
  Pb  Pb1       1.0  0.7891108393669127  0.320420503616333  0.5469022393226624  1.0000
