data_image0
_chemical_formula_structural       C4CaClNNpO6Pb
_chemical_formula_sum              "C4 Ca1 Cl1 N1 Np1 O6 Pb1"
_cell_length_a       7.100405203528761
_cell_length_b       7.214122572727833
_cell_length_c       7.666164398193359
_cell_angle_alpha    71.61473874624905
_cell_angle_beta     65.78579049188384
_cell_angle_gamma    63.4792224746098

_space_group_name_H-M_alt    "P 1"
_space_group_IT_number       1

loop_
  _space_group_symop_operation_xyz
  'x, y, z'

loop_
  _atom_site_type_symbol
  _atom_site_label
  _atom_site_symmetry_multiplicity
  _atom_site_fract_x
  _atom_site_fract_y
  _atom_site_fract_z
  _atom_site_occupancy
  C   C1        1.0  0.413237988948822  0.6598368883132935  0.6355031728744508  1.0000
  C   C2        1.0  0.9928452372550964  0.3224716782569885  0.407587617635727  1.0000
  C   C3        1.0  0.5712339878082275  0.9433193206787109  0.9925738573074342  1.0000
  C   C4        1.0  0.5771383047103882  0.6269425749778748  0.08739557862281801  1.0000
  Ca  Ca1       1.0  0.15817518532276154  0.1358458250761032  0.6804980039596559  1.0000
  Cl  Cl1       1.0  0.9550525546073914  0.0835704505443573  0.7546989917755128  1.0000
  N   N1        1.0  0.8862889409065247  0.21559306979179382  0.0894756466150284  1.0000
  Np  Np1       1.0  0.5270109176635742  0.8468087911605835  0.5691261291503906  1.0000
  O   O1        1.0  0.9046311974525452  0.1531684249639511  0.552406370639801  1.0000
  O   O2        1.0  0.4250304400920868  0.14240702986717224  0.40983629226684576  1.0000
  O   O3        1.0  0.06757728010416031  0.5071857571601868  0.9375475645065309  1.0000
  O   O4        1.0  0.9049307703971863  0.5932816863059998  0.6314563751220704  1.0000
  O   O5        1.0  0.4222624897956848  0.1764049381017685  0.6254305839538575  1.0000
  O   O6        1.0  0.9264838695526123  0.5311457514762878  0.4472391307353974  1.0000
  Pb  Pb1       1.0  0.5196214914321899  0.9412413239479065  0.8250831961631776  1.0000
