data_image0
_chemical_formula_structural       C8ClGeHfHgOPbV
_chemical_formula_sum              "C8 Cl1 Ge1 Hf1 Hg1 O1 Pb1 V1"
_cell_length_a       5.650166446990773
_cell_length_b       8.628658246722637
_cell_length_c       9.089418411254883
_cell_angle_alpha    122.86425025008063
_cell_angle_beta     88.87652614839449
_cell_angle_gamma    90.52278379005676

_space_group_name_H-M_alt    "P 1"
_space_group_IT_number       1

loop_
  _space_group_symop_operation_xyz
  'x, y, z'

loop_
  _atom_site_type_symbol
  _atom_site_label
  _atom_site_symmetry_multiplicity
  _atom_site_fract_x
  _atom_site_fract_y
  _atom_site_fract_z
  _atom_site_occupancy
  C   C1        1.0  0.7614059448242188  0.9449074268341064  0.022728575393557646  1.0000
  C   C2        1.0  0.26384711265563965  0.39854857325553894  0.14123989641666412  1.0000
  C   C3        1.0  0.770010232925415  0.49024173617362976  0.991089105606079  1.0000
  C   C4        1.0  0.2624950706958771  0.8927045464515686  0.09470386058092117  1.0000
  C   C5        1.0  0.27172890305519104  0.9473281502723694  0.7899585366249084  1.0000
  C   C6        1.0  0.05243314802646637  0.12814545631408691  0.6797911524772644  1.0000
  C   C7        1.0  0.2821020185947418  0.640190839767456  0.5823467969894409  1.0000
  C   C8        1.0  0.5156487822532654  0.058031730353832245  0.1584814339876175  1.0000
  Cl  Cl1       1.0  0.7446144819259644  0.7961444854736328  0.026090528815984775  1.0000
  Ge  Ge1       1.0  0.2549363672733307  0.23151303827762604  0.32992658019065857  1.0000
  Hf  Hf1       1.0  0.2677156925201416  0.8847097158432007  0.05745074898004531  1.0000
  Hg  Hg1       1.0  0.7690905928611755  0.02128368802368641  0.5071443319320679  1.0000
  O   O1        1.0  0.7462113499641418  0.9034568071365356  0.6651548743247987  1.0000
  Pb  Pb1       1.0  0.7556389570236206  0.7198652029037476  0.8599618673324585  1.0000
  V   V1        1.0  0.7569689750671387  0.2860111892223358  0.16385480761528018  1.0000
