data_image0
_chemical_formula_structural       Hg9N4O2
_chemical_formula_sum              "Hg9 N4 O2"
_cell_length_a       6.544747481441611
_cell_length_b       9.088112738678245
_cell_length_c       9.165414810180664
_cell_angle_alpha    126.31438753597283
_cell_angle_beta     88.13670330841092
_cell_angle_gamma    93.24258733236859

_space_group_name_H-M_alt    "P 1"
_space_group_IT_number       1

loop_
  _space_group_symop_operation_xyz
  'x, y, z'

loop_
  _atom_site_type_symbol
  _atom_site_label
  _atom_site_symmetry_multiplicity
  _atom_site_fract_x
  _atom_site_fract_y
  _atom_site_fract_z
  _atom_site_occupancy
  Hg  Hg1       1.0  0.7670714259147644  0.49494937062263494  0.18316040933132172  1.0000
  Hg  Hg2       1.0  0.27838870882987976  0.9540167450904847  0.8294541239738464  1.0000
  Hg  Hg3       1.0  0.6044871807098389  0.18475942313671115  0.8599047064781189  1.0000
  Hg  Hg4       1.0  0.7849306464195251  0.7493715286254884  0.9358511567115784  1.0000
  Hg  Hg5       1.0  0.2262389063835144  0.6494534015655519  0.800761342048645  1.0000
  Hg  Hg6       1.0  0.22636353969573975  0.7325565814971925  0.8478830456733704  1.0000
  Hg  Hg7       1.0  0.7781620621681213  0.8401303291320802  0.13541321456432343  1.0000
  Hg  Hg8       1.0  0.5024259686470032  0.47346985340118414  0.2784230709075928  1.0000
  Hg  Hg9       1.0  0.7630736827850342  0.216235488653183  0.2836057245731354  1.0000
  N   N1        1.0  0.5367708206176758  0.6516965627670289  0.42740046977996826  1.0000
  N   N2        1.0  0.2091684490442276  0.9431684017181398  0.28923949599266047  1.0000
  N   N3        1.0  0.00854204781353474  0.4161300361156464  0.11132708191871643  1.0000
  N   N4        1.0  0.27969902753829956  0.8004701137542726  0.7473304271697998  1.0000
  O   O1        1.0  0.7297540307044983  0.2927668988704682  0.42610764503479004  1.0000
  O   O2        1.0  0.23296137154102325  0.6646470427513124  0.3282332420349121  1.0000
