data_image0
_chemical_formula_structural       C7CaHg4O2Pb
_chemical_formula_sum              "C7 Ca1 Hg4 O2 Pb1"
_cell_length_a       6.245999332154682
_cell_length_b       7.007366091939298
_cell_length_c       9.11656665802002
_cell_angle_alpha    92.88094458591522
_cell_angle_beta     89.04750003373343
_cell_angle_gamma    96.43785878811146

_space_group_name_H-M_alt    "P 1"
_space_group_IT_number       1

loop_
  _space_group_symop_operation_xyz
  'x, y, z'

loop_
  _atom_site_type_symbol
  _atom_site_label
  _atom_site_symmetry_multiplicity
  _atom_site_fract_x
  _atom_site_fract_y
  _atom_site_fract_z
  _atom_site_occupancy
  C   C1        1.0  0.45451861619949335  0.29488593339920044  0.04876495897769928  1.0000
  C   C2        1.0  0.9316211938858031  0.32853785157203674  0.7965965867042542  1.0000
  C   C3        1.0  0.9168283343315123  0.840682327747345  0.3262590169906616  1.0000
  C   C4        1.0  0.8005116581916808  0.9383326768875122  0.22579193115234375  1.0000
  C   C5        1.0  0.46104940772056574  0.25823986530303955  0.15214213728904724  1.0000
  C   C6        1.0  0.9773473143577575  0.21522723138332367  0.1311272829771042  1.0000
  C   C7        1.0  0.12293162941932677  0.4679602086544037  0.5423710346221924  1.0000
  Ca  Ca1       1.0  0.9403123855590819  0.12633034586906433  0.43591877818107605  1.0000
  Hg  Hg1       1.0  0.8982053995132445  0.8129679560661316  0.025562331080436713  1.0000
  Hg  Hg2       1.0  0.4426255822181701  0.2896490693092346  0.3445563316345215  1.0000
  Hg  Hg3       1.0  0.46366590261459345  0.7087605595588684  0.18683023750782013  1.0000
  Hg  Hg4       1.0  0.9494624137878417  0.4519059658050537  0.22108407318592072  1.0000
  O   O1        1.0  0.8374210596084594  0.05656100809574127  0.8455563187599182  1.0000
  O   O2        1.0  0.43107846379280085  0.8824590444564819  0.12123265117406845  1.0000
  Pb  Pb1       1.0  0.4064104557037353  0.1105477437376976  0.5015556216239929  1.0000
