data_image0
_chemical_formula_structural       Hg8KN4O2
_chemical_formula_sum              "Hg8 K1 N4 O2"
_cell_length_a       6.38409148463578
_cell_length_b       8.073465241331023
_cell_length_c       9.203047752380371
_cell_angle_alpha    109.05629726489677
_cell_angle_beta     89.79676694562494
_cell_angle_gamma    91.2854120365642

_space_group_name_H-M_alt    "P 1"
_space_group_IT_number       1

loop_
  _space_group_symop_operation_xyz
  'x, y, z'

loop_
  _atom_site_type_symbol
  _atom_site_label
  _atom_site_symmetry_multiplicity
  _atom_site_fract_x
  _atom_site_fract_y
  _atom_site_fract_z
  _atom_site_occupancy
  Hg  Hg1       1.0  0.7082219123840332  0.20684446394443512  0.319458544254303  1.0000
  Hg  Hg2       1.0  0.7018863558769226  0.9689723849296571  0.931483805179596  1.0000
  Hg  Hg3       1.0  0.703057050704956  0.22452940046787265  0.45340630412101746  1.0000
  Hg  Hg4       1.0  0.07951235771179199  0.8822078108787538  0.731566846370697  1.0000
  Hg  Hg5       1.0  0.7018471956253052  0.40078970789909363  0.05909579247236252  1.0000
  Hg  Hg6       1.0  0.7071138024330139  0.9829244017601014  0.8869052529335022  1.0000
  Hg  Hg7       1.0  0.21241754293441772  0.2899053394794464  0.6006445288658142  1.0000
  Hg  Hg8       1.0  0.197091743350029  0.7709581255912781  0.012731086462736178  1.0000
  K   K1        1.0  0.1984052062034607  0.2458017468452454  0.1542583853006363  1.0000
  N   N1        1.0  0.18050122261047363  0.16664065420627594  0.5548941493034363  1.0000
  N   N2        1.0  0.709050178527832  0.20877087116241455  0.3051055371761322  1.0000
  N   N3        1.0  0.16414089500904083  0.5185574889183044  0.17523352801799774  1.0000
  N   N4        1.0  0.3277752995491028  0.44244197010993963  0.2994265854358673  1.0000
  O   O1        1.0  0.3175906240940094  0.9058157205581666  0.2815259099006653  1.0000
  O   O2        1.0  0.2084500640630722  0.4060482680797577  0.5008254647254944  1.0000
