data_image0
_chemical_formula_structural       CdGe2Pd6
_chemical_formula_sum              "Cd1 Ge2 Pd6"
_cell_length_a       4.15352834580155
_cell_length_b       5.160249402670808
_cell_length_c       7.802985668182373
_cell_angle_alpha    99.83146129260835
_cell_angle_beta     91.7740837006465
_cell_angle_gamma    88.25551768043911

_space_group_name_H-M_alt    "P 1"
_space_group_IT_number       1

loop_
  _space_group_symop_operation_xyz
  'x, y, z'

loop_
  _atom_site_type_symbol
  _atom_site_label
  _atom_site_symmetry_multiplicity
  _atom_site_fract_x
  _atom_site_fract_y
  _atom_site_fract_z
  _atom_site_occupancy
  Cd  Cd1       1.0  0.4194766879081726  0.7840609550476074  0.5347325801849365  1.0000
  Ge  Ge1       1.0  0.42284655570983887  0.2852363586425781  0.05845802649855614  1.0000
  Ge  Ge2       1.0  0.9486595392227173  0.04704144969582558  0.5886431932449341  1.0000
  Pd  Pd1       1.0  0.9318190813064575  0.7839072942733765  0.7660351991653442  1.0000
  Pd  Pd2       1.0  0.44284263253211975  0.5494606494903564  0.568430483341217  1.0000
  Pd  Pd3       1.0  0.45471498370170593  0.5194099545478821  0.8777982592582703  1.0000
  Pd  Pd4       1.0  0.9327729344367981  0.7848266363143921  0.3805002272129059  1.0000
  Pd  Pd5       1.0  0.44514673948287964  0.03232906386256218  0.9989231824874878  1.0000
  Pd  Pd6       1.0  0.9453510642051697  0.2838838994503021  0.1937962919473648  1.0000
