data_image0
_chemical_formula_structural       Ge3Pd6
_chemical_formula_sum              "Ge3 Pd6"
_cell_length_a       5.109556460313416
_cell_length_b       5.789976494377055
_cell_length_c       6.281239986419678
_cell_angle_alpha    92.58661018859132
_cell_angle_beta     90.10661085982193
_cell_angle_gamma    107.04652443479996

_space_group_name_H-M_alt    "P 1"
_space_group_IT_number       1

loop_
  _space_group_symop_operation_xyz
  'x, y, z'

loop_
  _atom_site_type_symbol
  _atom_site_label
  _atom_site_symmetry_multiplicity
  _atom_site_fract_x
  _atom_site_fract_y
  _atom_site_fract_z
  _atom_site_occupancy
  Ge  Ge1       1.0  0.9765182137489319  0.3623686730861664  0.09062763303518297  1.0000
  Ge  Ge2       1.0  0.31884434819221497  0.7160274982452393  0.8575712442398072  1.0000
  Ge  Ge3       1.0  0.6031385064125061  0.30687564611434937  0.6044101119041443  1.0000
  Pd  Pd1       1.0  0.7562904357910156  0.17513686418533325  0.032387468963861465  1.0000
  Pd  Pd2       1.0  0.3191249966621399  0.392424076795578  0.5336731672286987  1.0000
  Pd  Pd3       1.0  0.6848379969596863  0.8427764177322389  0.3099959194660187  1.0000
  Pd  Pd4       1.0  0.23677112162113192  0.9484270215034486  0.322515606880188  1.0000
  Pd  Pd5       1.0  0.06039682775735859  0.9441311955451966  0.5599170923233032  1.0000
  Pd  Pd6       1.0  0.7552483081817627  0.7168530821800232  0.09702383726835252  1.0000
