data_image0
_chemical_formula_structural       CdGe3OPd4
_chemical_formula_sum              "Cd1 Ge3 O1 Pd4"
_cell_length_a       5.115014433364683
_cell_length_b       5.945101855459051
_cell_length_c       6.035177230834961
_cell_angle_alpha    93.38336896161428
_cell_angle_beta     91.34301466773789
_cell_angle_gamma    98.59170669775929

_space_group_name_H-M_alt    "P 1"
_space_group_IT_number       1

loop_
  _space_group_symop_operation_xyz
  'x, y, z'

loop_
  _atom_site_type_symbol
  _atom_site_label
  _atom_site_symmetry_multiplicity
  _atom_site_fract_x
  _atom_site_fract_y
  _atom_site_fract_z
  _atom_site_occupancy
  Cd  Cd1       1.0  0.36590513586997986  0.26455849409103394  0.2352931946516037  1.0000
  Ge  Ge1       1.0  0.5437752604484558  0.9027870893478394  0.7268384099006653  1.0000
  Ge  Ge2       1.0  0.8972987532615662  0.7672383189201355  0.26715245842933655  1.0000
  Ge  Ge3       1.0  0.9841685891151428  0.9076403379440308  0.7196468710899353  1.0000
  O   O1        1.0  0.19204939901828766  0.44425758719444275  0.035108648240566254  1.0000
  Pd  Pd1       1.0  0.4038677513599396  0.4731258749961853  0.5274534225463867  1.0000
  Pd  Pd2       1.0  0.37628769874572754  0.009423929266631603  0.21915003657341003  1.0000
  Pd  Pd3       1.0  0.20834043622016907  0.3944164216518402  0.7269738316535949  1.0000
  Pd  Pd4       1.0  0.7412633299827576  0.3985918164253235  0.16778354346752167  1.0000
