data_image0
_chemical_formula_structural       Cd4Ge2Pd3
_chemical_formula_sum              "Cd4 Ge2 Pd3"
_cell_length_a       4.9258691483670844
_cell_length_b       7.0621446879517356
_cell_length_c       8.101917266845703
_cell_angle_alpha    91.23911982025658
_cell_angle_beta     89.50640298968298
_cell_angle_gamma    89.42595311559795

_space_group_name_H-M_alt    "P 1"
_space_group_IT_number       1

loop_
  _space_group_symop_operation_xyz
  'x, y, z'

loop_
  _atom_site_type_symbol
  _atom_site_label
  _atom_site_symmetry_multiplicity
  _atom_site_fract_x
  _atom_site_fract_y
  _atom_site_fract_z
  _atom_site_occupancy
  Cd  Cd1       1.0  0.8944471478462219  0.6943688392639161  0.6505727171897889  1.0000
  Cd  Cd2       1.0  0.38487571477890015  0.19507095217704776  0.8183329701423645  1.0000
  Cd  Cd3       1.0  0.38241490721702576  0.6946499943733216  0.6382489800453186  1.0000
  Cd  Cd4       1.0  0.887508749961853  0.19338555634021762  0.2436280995607376  1.0000
  Ge  Ge1       1.0  0.41133201122283936  0.4686510860919953  0.7820695638656617  1.0000
  Ge  Ge2       1.0  0.9146972298622129  0.43455460667610174  0.0195440836250782  1.0000
  Pd  Pd1       1.0  0.3836575746536255  0.9510352015495301  0.632107675075531  1.0000
  Pd  Pd2       1.0  0.892126202583313  0.9614009857177735  0.5659292340278625  1.0000
  Pd  Pd3       1.0  0.3877476751804352  0.530553936958313  0.3069865107536316  1.0000
