data_image0
_chemical_formula_structural       CrH3In2Pd2Zr
_chemical_formula_sum              "Cr1 H3 In2 Pd2 Zr1"
_cell_length_a       5.948022560773898
_cell_length_b       5.83802255117319
_cell_length_c       5.482283592224121
_cell_angle_alpha    45.24305833030322
_cell_angle_beta     54.19655314156518
_cell_angle_gamma    56.61695482974682

_space_group_name_H-M_alt    "P 1"
_space_group_IT_number       1

loop_
  _space_group_symop_operation_xyz
  'x, y, z'

loop_
  _atom_site_type_symbol
  _atom_site_label
  _atom_site_symmetry_multiplicity
  _atom_site_fract_x
  _atom_site_fract_y
  _atom_site_fract_z
  _atom_site_occupancy
  Cr  Cr1       1.0  0.04662855714559555  0.2723914086818695  0.6478300094604492  1.0000
  H   H1        1.0  0.5433502793312073  0.8156833052635193  0.7439348697662354  1.0000
  H   H2        1.0  0.5706080794334412  0.2020028531551361  0.23158644139766693  1.0000
  H   H3        1.0  0.24758440256118774  0.12773892283439636  0.22932156920433044  1.0000
  In  In1       1.0  0.07767204195261002  0.31655576825141907  0.322412759065628  1.0000
  In  In2       1.0  0.5624228715896606  0.20404508709907532  0.05276485159993172  1.0000
  Pd  Pd1       1.0  0.5602914094924927  0.45344045758247375  0.5763134360313416  1.0000
  Pd  Pd2       1.0  0.19272394478321075  0.39848896861076355  0.15399961173534393  1.0000
  Zr  Zr1       1.0  0.5776695609092712  0.06621885299682617  0.1669507920742035  1.0000
