data_image0
_chemical_formula_structural       Ca7Pd2
_chemical_formula_sum              "Ca7 Pd2"
_cell_length_a       4.916934468546058
_cell_length_b       4.438812706766504
_cell_length_c       5.829236030578613
_cell_angle_alpha    100.47881590442385
_cell_angle_beta     89.54164317285397
_cell_angle_gamma    99.38709165307273

_space_group_name_H-M_alt    "P 1"
_space_group_IT_number       1

loop_
  _space_group_symop_operation_xyz
  'x, y, z'

loop_
  _atom_site_type_symbol
  _atom_site_label
  _atom_site_symmetry_multiplicity
  _atom_site_fract_x
  _atom_site_fract_y
  _atom_site_fract_z
  _atom_site_occupancy
  Ca  Ca1       1.0  0.47884729504585266  0.10659394413232803  0.915119469165802  1.0000
  Ca  Ca2       1.0  0.4822636842727661  0.4002707898616791  0.9372716546058656  1.0000
  Ca  Ca3       1.0  0.9815263152122498  0.6267379522323608  0.5973138809204102  1.0000
  Ca  Ca4       1.0  0.982564389705658  0.6358022689819336  0.9466229677200317  1.0000
  Ca  Ca5       1.0  0.47683680057525635  0.2853926718235016  0.1583053469657898  1.0000
  Ca  Ca6       1.0  0.9809561371803284  0.5585274696350098  0.9338940382003784  1.0000
  Ca  Ca7       1.0  0.9838593006134033  0.5871813297271729  0.022410616278648387  1.0000
  Pd  Pd1       1.0  0.7287377119064331  0.22011713683605194  0.3235902190208435  1.0000
  Pd  Pd2       1.0  0.4798824191093445  0.060515303164720535  0.5800668597221375  1.0000
