data_image0
_chemical_formula_structural       Ca2H2PPd3Si
_chemical_formula_sum              "Ca2 H2 P1 Pd3 Si1"
_cell_length_a       5.368948689331943
_cell_length_b       5.3809711890997
_cell_length_c       5.775969982147217
_cell_angle_alpha    67.87270410054654
_cell_angle_beta     67.2059687265389
_cell_angle_gamma    69.69732707034893

_space_group_name_H-M_alt    "P 1"
_space_group_IT_number       1

loop_
  _space_group_symop_operation_xyz
  'x, y, z'

loop_
  _atom_site_type_symbol
  _atom_site_label
  _atom_site_symmetry_multiplicity
  _atom_site_fract_x
  _atom_site_fract_y
  _atom_site_fract_z
  _atom_site_occupancy
  Ca  Ca1       1.0  0.47472149133682257  0.4425836503505707  0.40246134996414185  1.0000
  Ca  Ca2       1.0  0.4767931997776032  0.34548431634902954  0.4211813807487488  1.0000
  H   H1        1.0  0.02082984894514084  0.7821717858314514  0.8906028866767883  1.0000
  H   H2        1.0  0.4825147688388825  0.749387264251709  0.7320384383201599  1.0000
  P   P1        1.0  0.9719097614288331  0.9482175707817078  0.41306626796722407  1.0000
  Pd  Pd1       1.0  0.9897737503051759  0.9629183411598206  0.1561107635498047  1.0000
  Pd  Pd2       1.0  0.9935993552207948  0.5114761590957642  0.09360241144895554  1.0000
  Pd  Pd3       1.0  0.010156095959246159  0.08215802907943726  0.44297653436660767  1.0000
  Si  Si1       1.0  0.5021156668663025  0.911946177482605  0.5510746836662292  1.0000
