data_image0
_chemical_formula_structural       Ca7Pd2
_chemical_formula_sum              "Ca7 Pd2"
_cell_length_a       5.188478106170347
_cell_length_b       5.132366793180539
_cell_length_c       7.35875129699707
_cell_angle_alpha    89.09128644989026
_cell_angle_beta     89.39219451568574
_cell_angle_gamma    90.23681972505663

_space_group_name_H-M_alt    "P 1"
_space_group_IT_number       1

loop_
  _space_group_symop_operation_xyz
  'x, y, z'

loop_
  _atom_site_type_symbol
  _atom_site_label
  _atom_site_symmetry_multiplicity
  _atom_site_fract_x
  _atom_site_fract_y
  _atom_site_fract_z
  _atom_site_occupancy
  Ca  Ca1       1.0  0.727570652961731  0.290032297372818  0.7122462391853333  1.0000
  Ca  Ca2       1.0  0.7340177893638611  0.28051698207855225  0.9370340704917908  1.0000
  Ca  Ca3       1.0  0.23485434055328372  0.12851110100746155  0.936083972454071  1.0000
  Ca  Ca4       1.0  0.72428297996521  0.5033300518989563  0.6404712796211243  1.0000
  Ca  Ca5       1.0  0.7276068925857544  0.7755309343338013  0.5399628877639772  1.0000
  Ca  Ca6       1.0  0.22395902872085574  0.5090636014938354  0.6700587272644043  1.0000
  Ca  Ca7       1.0  0.22714737057685855  0.08394180238246918  0.6864534616470336  1.0000
  Pd  Pd1       1.0  0.2298206686973572  0.9700115323066711  0.9628438353538513  1.0000
  Pd  Pd2       1.0  0.22555312514305118  0.6454272866249084  0.06621167808771133  1.0000
