data_image0
_chemical_formula_structural       GaGe3PPbTaTbTl
_chemical_formula_sum              "Ga1 Ge3 P1 Pb1 Ta1 Tb1 Tl1"
_cell_length_a       4.7369684808202015
_cell_length_b       5.52909730206408
_cell_length_c       10.078262329101562
_cell_angle_alpha    103.14103406551864
_cell_angle_beta     91.58375415307702
_cell_angle_gamma    114.13629715870232

_space_group_name_H-M_alt    "P 1"
_space_group_IT_number       1

loop_
  _space_group_symop_operation_xyz
  'x, y, z'

loop_
  _atom_site_type_symbol
  _atom_site_label
  _atom_site_symmetry_multiplicity
  _atom_site_fract_x
  _atom_site_fract_y
  _atom_site_fract_z
  _atom_site_occupancy
  Ga  Ga1       1.0  0.7124766707420349  0.9253155589103699  0.16336481273174286  1.0000
  Ge  Ge1       1.0  0.2178010642528534  0.4580235779285431  0.3797338008880615  1.0000
  Ge  Ge2       1.0  0.724693238735199  0.9523712396621704  0.1796249896287918  1.0000
  Ge  Ge3       1.0  0.2100190818309784  0.7096092700958252  0.87409907579422  1.0000
  P   P1        1.0  0.2229306697845459  0.012301472947001457  0.41881105303764343  1.0000
  Pb  Pb1       1.0  0.33191919326782227  0.16886773705482483  0.6045297384262085  1.0000
  Ta  Ta1       1.0  0.9491043090820311  0.5214831233024597  0.11200225353240967  1.0000
  Tb  Tb1       1.0  0.6219757199287415  0.16649283468723297  0.9701892137527466  1.0000
  Tl  Tl1       1.0  0.17643827199935913  0.901164710521698  0.9773952960968018  1.0000
