data_image0
_chemical_formula_structural       ClGePbTa2Tb2Ti2
_chemical_formula_sum              "Cl1 Ge1 Pb1 Ta2 Tb2 Ti2"
_cell_length_a       6.4811072119937805
_cell_length_b       8.520895325069416
_cell_length_c       8.957927703857422
_cell_angle_alpha    123.0990985520164
_cell_angle_beta     90.66879765194113
_cell_angle_gamma    89.78211147854292

_space_group_name_H-M_alt    "P 1"
_space_group_IT_number       1

loop_
  _space_group_symop_operation_xyz
  'x, y, z'

loop_
  _atom_site_type_symbol
  _atom_site_label
  _atom_site_symmetry_multiplicity
  _atom_site_fract_x
  _atom_site_fract_y
  _atom_site_fract_z
  _atom_site_occupancy
  Cl  Cl1       1.0  0.10248283296823502  0.46893835067749023  0.6959739923477173  1.0000
  Ge  Ge1       1.0  0.3456108570098877  0.8238610029220581  0.22933931648731243  1.0000
  Pb  Pb1       1.0  0.840587317943573  0.8896229863166809  0.13986338675022125  1.0000
  Ta  Ta1       1.0  0.08688081800937653  0.18018269538879395  0.1870039701461792  1.0000
  Ta  Ta2       1.0  0.08924318104982376  0.18074017763137817  0.18530717492103577  1.0000
  Tb  Tb1       1.0  0.0704517811536789  0.4386686682701111  0.484632283449173  1.0000
  Tb  Tb2       1.0  0.5911073684692383  0.4630047380924225  0.14645250141620636  1.0000
  Ti  Ti1       1.0  0.5721362829208374  0.6920282244682312  0.24685457348823553  1.0000
  Ti  Ti2       1.0  0.5999244451522827  0.8404821753501892  0.6247550845146179  1.0000
