data_image0
_chemical_formula_structural       As2CaPb4SbTb
_chemical_formula_sum              "As2 Ca1 Pb4 Sb1 Tb1"
_cell_length_a       6.28441673715184
_cell_length_b       6.291512802730304
_cell_length_c       9.2128267288208
_cell_angle_alpha    90.4907499275984
_cell_angle_beta     89.96051760508406
_cell_angle_gamma    116.01504224362316

_space_group_name_H-M_alt    "P 1"
_space_group_IT_number       1

loop_
  _space_group_symop_operation_xyz
  'x, y, z'

loop_
  _atom_site_type_symbol
  _atom_site_label
  _atom_site_symmetry_multiplicity
  _atom_site_fract_x
  _atom_site_fract_y
  _atom_site_fract_z
  _atom_site_occupancy
  As  As1       1.0  0.19013917446136475  0.2234371602535248  0.4081951379776001  1.0000
  As  As2       1.0  0.8831216096878052  0.2155658453702927  0.35308343172073364  1.0000
  Ca  Ca1       1.0  0.4000779986381531  0.7115548253059387  0.8540129065513611  1.0000
  Pb  Pb1       1.0  0.6248660087585449  0.684123694896698  0.38743045926094055  1.0000
  Pb  Pb2       1.0  0.9113134741783142  0.1988269239664078  0.6231346726417542  1.0000
  Pb  Pb3       1.0  0.3334583044052124  0.04921885952353478  0.7410110831260681  1.0000
  Pb  Pb4       1.0  0.38133737444877625  0.7055926322937012  0.5804389715194702  1.0000
  Sb  Sb1       1.0  0.8923538327217102  0.21653014421463015  0.9171531200408936  1.0000
  Tb  Tb1       1.0  0.7199022173881531  0.031247893348336223  0.6468578577041626  1.0000
