data_image0
_chemical_formula_structural       AsGe2ITa2Tb3
_chemical_formula_sum              "As1 Ge2 I1 Ta2 Tb3"
_cell_length_a       4.792961995387106
_cell_length_b       7.089049928242168
_cell_length_c       7.670595645904541
_cell_angle_alpha    122.11917112378634
_cell_angle_beta     89.87009638791211
_cell_angle_gamma    90.51597663530903

_space_group_name_H-M_alt    "P 1"
_space_group_IT_number       1

loop_
  _space_group_symop_operation_xyz
  'x, y, z'

loop_
  _atom_site_type_symbol
  _atom_site_label
  _atom_site_symmetry_multiplicity
  _atom_site_fract_x
  _atom_site_fract_y
  _atom_site_fract_z
  _atom_site_occupancy
  As  As1       1.0  0.9511247873306276  0.13598325848579407  0.9204089641571045  1.0000
  Ge  Ge1       1.0  0.9525966048240663  0.6406460404396057  0.34685900807380676  1.0000
  Ge  Ge2       1.0  0.7084035277366638  0.9772377610206604  0.42892435193061834  1.0000
  I   I1        1.0  0.4470177292823792  0.4573974609375  0.4116402864456177  1.0000
  Ta  Ta1       1.0  0.4449191093444825  0.7216393947601318  0.24877692759037018  1.0000
  Ta  Ta2       1.0  0.9530019164085389  0.7775750160217285  0.7416962385177612  1.0000
  Tb  Tb1       1.0  0.4435217380523682  0.27104052901268005  0.6367489695549011  1.0000
  Tb  Tb2       1.0  0.4338725805282593  0.7743942141532898  0.726580798625946  1.0000
  Tb  Tb3       1.0  0.9544547200202943  0.6308977603912354  0.13199938833713531  1.0000
