data_image0
_chemical_formula_structural       AsClGePb4TbTe
_chemical_formula_sum              "As1 Cl1 Ge1 Pb4 Tb1 Te1"
_cell_length_a       5.587398687713961
_cell_length_b       6.4810560475741195
_cell_length_c       10.094861030578613
_cell_angle_alpha    107.30523292676483
_cell_angle_beta     88.12970297002768
_cell_angle_gamma    110.63037331847669

_space_group_name_H-M_alt    "P 1"
_space_group_IT_number       1

loop_
  _space_group_symop_operation_xyz
  'x, y, z'

loop_
  _atom_site_type_symbol
  _atom_site_label
  _atom_site_symmetry_multiplicity
  _atom_site_fract_x
  _atom_site_fract_y
  _atom_site_fract_z
  _atom_site_occupancy
  As  As1       1.0  0.706935703754425  0.07137119770050049  0.5962164998054504  1.0000
  Cl  Cl1       1.0  0.0014044982381165028  0.8255189061164856  0.6581229567527771  1.0000
  Ge  Ge1       1.0  0.6658300757408142  0.06878781318664551  0.8264881372451782  1.0000
  Pb  Pb1       1.0  0.16687853634357452  0.4210479259490967  0.08414611220359802  1.0000
  Pb  Pb2       1.0  0.187846377491951  0.0511903390288353  0.13915479183197021  1.0000
  Pb  Pb3       1.0  0.6893549561500549  0.4237439036369324  0.0690150037407875  1.0000
  Pb  Pb4       1.0  0.6512528657913208  0.5533382296562195  0.38061121106147766  1.0000
  Tb  Tb1       1.0  0.2026747316122055  0.08588086813688278  0.7344912886619568  1.0000
  Te  Te1       1.0  0.6717861890792847  0.8064953088760376  0.17644718289375302  1.0000
