data_image0
_chemical_formula_structural       CaClH3HfO9PtSb
_chemical_formula_sum              "Ca1 Cl1 H3 Hf1 O9 Pt1 Sb1"
_cell_length_a       6.288524605147828
_cell_length_b       8.073280340627308
_cell_length_c       7.994011402130127
_cell_angle_alpha    123.0566832728127
_cell_angle_beta     90.81798243786304
_cell_angle_gamma    90.3421569274095

_space_group_name_H-M_alt    "P 1"
_space_group_IT_number       1

loop_
  _space_group_symop_operation_xyz
  'x, y, z'

loop_
  _atom_site_type_symbol
  _atom_site_label
  _atom_site_symmetry_multiplicity
  _atom_site_fract_x
  _atom_site_fract_y
  _atom_site_fract_z
  _atom_site_occupancy
  Ca  Ca1       1.0  0.0760190412402153  0.6106217503547668  0.42986464500427246  1.0000
  Cl  Cl1       1.0  0.5686066746711731  0.8268862366676331  0.6904803514480591  1.0000
  H   H1        1.0  0.5898935198783875  0.1931154876947403  0.37975189089775085  1.0000
  H   H2        1.0  0.03468386456370354  0.9774859547615051  0.18198688328266144  1.0000
  H   H3        1.0  0.8003869652748108  0.07075159251689911  0.43989652395248413  1.0000
  Hf  Hf1       1.0  0.31972944736480713  0.17209935188293457  0.726508378982544  1.0000
  O   O1        1.0  0.3211173117160797  0.8295536041259766  0.673223614692688  1.0000
  O   O2        1.0  0.5068829655647278  0.28622105717658997  0.5989817380905151  1.0000
  O   O3        1.0  0.029986565932631493  0.49832388758659363  0.21214161813259125  1.0000
  O   O4        1.0  0.5486497282981873  0.8834229111671448  0.11657847464084625  1.0000
  O   O5        1.0  0.06924208253622055  0.8902678489685059  0.5023122429847717  1.0000
  O   O6        1.0  0.037318456918001175  0.32054373621940613  0.44523677229881287  1.0000
  O   O7        1.0  0.3844738304615021  0.5564581155776978  0.9483335614204407  1.0000
  O   O8        1.0  0.8222489356994629  0.8293452262878418  0.2307528406381607  1.0000
  O   O9        1.0  0.8779645562171936  0.4971325695514679  0.02204003371298313  1.0000
  Pt  Pt1       1.0  0.8015952706336975  0.5536492466926575  0.5759055018424988  1.0000
  Sb  Sb1       1.0  0.8188063502311707  0.38382863998413086  0.6427035331726074  1.0000
