data_image0
_chemical_formula_structural       Ca2FH4O7Tb3
_chemical_formula_sum              "Ca2 F1 H4 O7 Tb3"
_cell_length_a       6.24319385355544
_cell_length_b       8.21687664516554
_cell_length_c       8.64201831817627
_cell_angle_alpha    120.62075494719751
_cell_angle_beta     90.61916074230373
_cell_angle_gamma    90.70081043398663

_space_group_name_H-M_alt    "P 1"
_space_group_IT_number       1

loop_
  _space_group_symop_operation_xyz
  'x, y, z'

loop_
  _atom_site_type_symbol
  _atom_site_label
  _atom_site_symmetry_multiplicity
  _atom_site_fract_x
  _atom_site_fract_y
  _atom_site_fract_z
  _atom_site_occupancy
  Ca  Ca1       1.0  0.8945576548576354  0.05725494399666786  0.7532054781913757  1.0000
  Ca  Ca2       1.0  0.6441941857337952  0.7590504884719849  0.4032411873340607  1.0000
  F   F1        1.0  0.8909838199615477  0.10101200640201569  0.3786618709564209  1.0000
  H   H1        1.0  0.40762755274772644  0.13811588287353516  0.23598209023475647  1.0000
  H   H2        1.0  0.4165161252021789  0.6134114861488342  0.380804717540741  1.0000
  H   H3        1.0  0.8948639631271361  0.2977374792098999  0.23503145575523376  1.0000
  H   H4        1.0  0.38818249106407166  0.5668982863426208  0.7952420711517334  1.0000
  O   O1        1.0  0.4176074862480163  0.6185284852981567  0.4499123394489289  1.0000
  O   O2        1.0  0.9110564589500426  0.8245880007743835  0.3916884660720826  1.0000
  O   O3        1.0  0.4016880691051483  0.673533022403717  0.44197142124176025  1.0000
  O   O4        1.0  0.2158316373825073  0.3682071268558502  0.5780119895935059  1.0000
  O   O5        1.0  0.8976692557334899  0.596430778503418  0.7615039944648743  1.0000
  O   O6        1.0  0.899644374847412  0.9420663118362427  0.9784209728240967  1.0000
  O   O7        1.0  0.8900616168975829  0.42791447043418884  0.8327887058258057  1.0000
  Tb  Tb1       1.0  0.3976742625236511  0.9048469066619873  0.9544902443885803  1.0000
  Tb  Tb2       1.0  0.6460465788841248  0.29763099551200867  0.4548816382884979  1.0000
  Tb  Tb3       1.0  0.3949832618236542  0.40660974383354187  0.0875167176127434  1.0000
