data_image0
_chemical_formula_structural       Ca2FH4O9Tb
_chemical_formula_sum              "Ca2 F1 H4 O9 Tb1"
_cell_length_a       5.415219885208868
_cell_length_b       7.331263049587759
_cell_length_c       7.551844596862793
_cell_angle_alpha    116.49649980248145
_cell_angle_beta     90.778471429276
_cell_angle_gamma    89.81936455991335

_space_group_name_H-M_alt    "P 1"
_space_group_IT_number       1

loop_
  _space_group_symop_operation_xyz
  'x, y, z'

loop_
  _atom_site_type_symbol
  _atom_site_label
  _atom_site_symmetry_multiplicity
  _atom_site_fract_x
  _atom_site_fract_y
  _atom_site_fract_z
  _atom_site_occupancy
  Ca  Ca1       1.0  0.08967234194278717  0.04822671040892601  0.940031111240387  1.0000
  Ca  Ca2       1.0  0.5884250402450562  0.6441198587417603  0.6401109099388123  1.0000
  F   F1        1.0  0.7891635894775391  0.022768858820199966  0.12175155431032181  1.0000
  H   H1        1.0  0.7367694973945618  0.5403387546539307  0.290655255317688  1.0000
  H   H2        1.0  0.8271819949150085  0.5044253468513489  0.1816353648900986  1.0000
  H   H3        1.0  0.583675742149353  0.32760924100875854  0.11187770962715149  1.0000
  H   H4        1.0  0.08889750391244888  0.05229462683200836  0.4559668004512787  1.0000
  O   O1        1.0  0.5982178449630737  0.8016155362129211  0.3138282895088196  1.0000
  O   O2        1.0  0.607961118221283  0.4672319293022156  0.7567150592803955  1.0000
  O   O3        1.0  0.1018720418214798  0.641255259513855  0.20452536642551428  1.0000
  O   O4        1.0  0.10353458672761919  0.2812080681324005  0.14634256064891815  1.0000
  O   O5        1.0  0.09385868906974792  0.9842931628227235  0.622521698474884  1.0000
  O   O6        1.0  0.8396939635276796  0.31220102310180664  0.9811862707138063  1.0000
  O   O7        1.0  0.11436389386653902  0.5300605297088623  0.13531810045242312  1.0000
  O   O8        1.0  0.618058979511261  0.8619763255119324  0.1243402361869812  1.0000
  O   O9        1.0  0.11062870174646379  0.1407916098833084  0.9782907962799072  1.0000
  Tb  Tb1       1.0  0.41774550080299383  0.024659786373376846  0.45293959975242615  1.0000
