data_image0
_chemical_formula_structural       Ca3H4O7Pt2Se
_chemical_formula_sum              "Ca3 H4 O7 Pt2 Se1"
_cell_length_a       5.922199537705895
_cell_length_b       8.05402587166777
_cell_length_c       8.167633056640625
_cell_angle_alpha    118.88141439690865
_cell_angle_beta     89.00955737994637
_cell_angle_gamma    90.23496119521528

_space_group_name_H-M_alt    "P 1"
_space_group_IT_number       1

loop_
  _space_group_symop_operation_xyz
  'x, y, z'

loop_
  _atom_site_type_symbol
  _atom_site_label
  _atom_site_symmetry_multiplicity
  _atom_site_fract_x
  _atom_site_fract_y
  _atom_site_fract_z
  _atom_site_occupancy
  Ca  Ca1       1.0  0.416969358921051  0.19469206035137177  0.4492979645729065  1.0000
  Ca  Ca2       1.0  0.9418547749519348  0.8196479678153992  0.7796134948730469  1.0000
  Ca  Ca3       1.0  0.9179894924163818  0.1105724349617958  0.5536504983901978  1.0000
  H   H1        1.0  0.7132599949836731  0.4456784129142761  0.6590642333030701  1.0000
  H   H2        1.0  0.7786272764205933  0.6249197125434875  0.031523227691650335  1.0000
  H   H3        1.0  0.17979133129119873  0.8999061584472656  0.0651489421725272  1.0000
  H   H4        1.0  0.4553319215774536  0.29674699902534485  0.6927787065505981  1.0000
  O   O1        1.0  0.17765192687511444  0.10427075624465942  0.8550205826759338  1.0000
  O   O2        1.0  0.6798673272132874  0.9232944250106812  0.8492114543914794  1.0000
  O   O3        1.0  0.20642030239105225  0.32884082198143005  0.7577387094497681  1.0000
  O   O4        1.0  0.1715116649866104  0.3263866603374481  0.5415440201759338  1.0000
  O   O5        1.0  0.6966092586517334  0.7994181513786316  0.514116108417511  1.0000
  O   O6        1.0  0.16747257113456726  0.8899247646331787  0.33847829699516285  1.0000
  O   O7        1.0  0.6866751909255981  0.5754867792129517  0.8383225202560425  1.0000
  Pt  Pt1       1.0  0.4142829179763794  0.14871063828468323  0.9485695958137512  1.0000
  Pt  Pt2       1.0  0.4461991488933563  0.8547528386116028  0.3420232832431792  1.0000
  Se  Se1       1.0  0.9141743779182434  0.6752766370773315  0.9506900310516357  1.0000
