data_image0
_chemical_formula_structural       BaBrCa2H4O8Pt
_chemical_formula_sum              "Ba1 Br1 Ca2 H4 O8 Pt1"
_cell_length_a       5.172738778838935
_cell_length_b       7.48561790675764
_cell_length_c       9.01827621459961
_cell_angle_alpha    112.88110444138592
_cell_angle_beta     90.49416541012434
_cell_angle_gamma    91.28705930884652

_space_group_name_H-M_alt    "P 1"
_space_group_IT_number       1

loop_
  _space_group_symop_operation_xyz
  'x, y, z'

loop_
  _atom_site_type_symbol
  _atom_site_label
  _atom_site_symmetry_multiplicity
  _atom_site_fract_x
  _atom_site_fract_y
  _atom_site_fract_z
  _atom_site_occupancy
  Ba  Ba1       1.0  0.3994949460029602  0.687913715839386  0.5878607630729675  1.0000
  Br  Br1       1.0  0.19508466124534607  0.2961309850215912  0.5113979578018188  1.0000
  Ca  Ca1       1.0  0.9078096151351929  0.6984198689460754  0.8944330215454102  1.0000
  Ca  Ca2       1.0  0.7653952836990356  0.7241799831390381  0.6229230761528015  1.0000
  H   H1        1.0  0.3924577832221985  0.9562328457832336  0.3769473433494568  1.0000
  H   H2        1.0  0.936122477054596  0.3115845322608948  0.6504441499710082  1.0000
  H   H3        1.0  0.5784280300140381  0.10477715730667114  0.6501600742340088  1.0000
  H   H4        1.0  0.9863932728767395  0.04857596755027771  0.6132898926734924  1.0000
  O   O1        1.0  0.5720157623291016  0.8259356617927551  0.37261632084846497  1.0000
  O   O2        1.0  0.1471998691558838  0.0018928148783743382  0.5237027406692505  1.0000
  O   O3        1.0  0.9570457339286804  0.986204981803894  0.9574099183082581  1.0000
  O   O4        1.0  0.3112867474555969  0.7005996704101562  0.7792463898658752  1.0000
  O   O5        1.0  0.021693605929613113  0.863910436630249  0.840605616569519  1.0000
  O   O6        1.0  0.539306640625  0.8514015078544617  0.08778378367424011  1.0000
  O   O7        1.0  0.16060614585876465  0.46672844886779785  0.22396917641162872  1.0000
  O   O8        1.0  0.6894394755363464  0.362876296043396  0.5417682528495789  1.0000
  Pt  Pt1       1.0  0.9077432155609131  0.03975962474942207  0.8427010178565979  1.0000
