data_image0
_chemical_formula_structural       BrCCaFH3O8PtTb
_chemical_formula_sum              "Br1 C1 Ca1 F1 H3 O8 Pt1 Tb1"
_cell_length_a       6.569601947641032
_cell_length_b       8.195664458230066
_cell_length_c       8.346269607543945
_cell_angle_alpha    119.17138630257749
_cell_angle_beta     90.36519697196157
_cell_angle_gamma    89.8282914348793

_space_group_name_H-M_alt    "P 1"
_space_group_IT_number       1

loop_
  _space_group_symop_operation_xyz
  'x, y, z'

loop_
  _atom_site_type_symbol
  _atom_site_label
  _atom_site_symmetry_multiplicity
  _atom_site_fract_x
  _atom_site_fract_y
  _atom_site_fract_z
  _atom_site_occupancy
  Br  Br1       1.0  0.9895684719085692  0.8968186974525452  0.541302502155304  1.0000
  C   C1        1.0  0.49428403377532953  0.39828693866729736  0.012333250604569912  1.0000
  Ca  Ca1       1.0  0.2387309223413467  0.3787156045436859  0.6211886405944824  1.0000
  F   F1        1.0  0.2387031018733978  0.6342896223068237  0.0778023973107338  1.0000
  H   H1        1.0  0.25069212913513184  0.014540793374180794  0.07336265593767166  1.0000
  H   H2        1.0  0.747197389602661  0.06760640442371368  0.5590431690216064  1.0000
  H   H3        1.0  0.7551546692848204  0.6480484008789062  0.41322845220565796  1.0000
  O   O1        1.0  0.7513508200645446  0.5165298581123352  0.095438651740551  1.0000
  O   O2        1.0  0.2552613317966461  0.8530516028404236  0.10273961722850805  1.0000
  O   O3        1.0  0.2518523931503296  0.5702811479568481  0.09016122668981552  1.0000
  O   O4        1.0  0.7529757618904113  0.8538971543312073  0.3739148378372193  1.0000
  O   O5        1.0  0.7535142302513121  0.31898584961891174  0.25893303751945496  1.0000
  O   O6        1.0  0.2411226779222488  0.39101657271385193  0.9211480021476746  1.0000
  O   O7        1.0  0.7524523735046386  0.8182849287986755  0.10918182879686361  1.0000
  O   O8        1.0  0.24399325251579282  0.25067687034606934  0.4384928047657013  1.0000
  Pt  Pt1       1.0  0.7403511404991149  0.586819052696228  0.1453346312046051  1.0000
  Tb  Tb1       1.0  0.7453789710998534  0.15465861558914185  0.02349888533353807  1.0000
