data_image0
_chemical_formula_structural       AlCsH2IPrPtSi2ZnZr
_chemical_formula_sum              "Al1 Cs1 H2 I1 Pr1 Pt1 Si2 Zn1 Zr1"
_cell_length_a       6.3704934480424305
_cell_length_b       6.193015461685982
_cell_length_c       6.682749271392822
_cell_angle_alpha    81.74406289036891
_cell_angle_beta     67.81089874660076
_cell_angle_gamma    61.02958455155068

_space_group_name_H-M_alt    "P 1"
_space_group_IT_number       1

loop_
  _space_group_symop_operation_xyz
  'x, y, z'

loop_
  _atom_site_type_symbol
  _atom_site_label
  _atom_site_symmetry_multiplicity
  _atom_site_fract_x
  _atom_site_fract_y
  _atom_site_fract_z
  _atom_site_occupancy
  Al  Al1       1.0  0.24624788761138916  0.567134439945221  0.861122190952301  1.0000
  Cs  Cs1       1.0  0.4467995762825012  0.684594988822937  0.2487041354179382  1.0000
  H   H1        1.0  0.22817404568195343  0.42774319648742676  0.16639697551727295  1.0000
  H   H2        1.0  0.7204570770263672  0.7629750370979309  0.07354839891195297  1.0000
  I   I1        1.0  0.7231608629226685  0.7646348476409912  0.5940473675727844  1.0000
  Pr  Pr1       1.0  0.029353847727179527  0.5879561305046082  0.5569516420364379  1.0000
  Pt  Pt1       1.0  0.25179722905158997  0.9854432940483093  0.9518063664436339  1.0000
  Si  Si1       1.0  0.7264455556869507  0.8990974426269531  0.12656573951244354  1.0000
  Si  Si2       1.0  0.8185946345329285  0.8419728875160217  0.1893216371536255  1.0000
  Zn  Zn1       1.0  0.22250084578990936  0.7460628747940063  0.6393712162971497  1.0000
  Zr  Zr1       1.0  0.8061281442642212  0.07658441364765167  0.30045557022094727  1.0000
