data_image0
_chemical_formula_structural       AlHIPr4PtSeSiZr
_chemical_formula_sum              "Al1 H1 I1 Pr4 Pt1 Se1 Si1 Zr1"
_cell_length_a       5.63509390758866
_cell_length_b       5.566817897568132
_cell_length_c       8.085474014282227
_cell_angle_alpha    82.14715252915637
_cell_angle_beta     75.49282800850582
_cell_angle_gamma    60.34853712251606

_space_group_name_H-M_alt    "P 1"
_space_group_IT_number       1

loop_
  _space_group_symop_operation_xyz
  'x, y, z'

loop_
  _atom_site_type_symbol
  _atom_site_label
  _atom_site_symmetry_multiplicity
  _atom_site_fract_x
  _atom_site_fract_y
  _atom_site_fract_z
  _atom_site_occupancy
  Al  Al1       1.0  0.15431202948093414  0.33720409870147705  0.055660482496023185  1.0000
  H   H1        1.0  0.3600039482116699  0.4143727421760559  0.9802810549736023  1.0000
  I   I1        1.0  0.42137694358825684  0.2971798777580261  0.9325820207595825  1.0000
  Pr  Pr1       1.0  0.6306333541870117  0.693723201751709  0.26102539896965027  1.0000
  Pr  Pr2       1.0  0.07449526339769363  0.037807248532772064  0.00744729628786445  1.0000
  Pr  Pr3       1.0  0.13894440233707428  0.4234253168106079  0.3861735761165619  1.0000
  Pr  Pr4       1.0  0.6560543179512024  0.3976684510707855  0.8812234997749329  1.0000
  Pt  Pt1       1.0  0.6338739991188049  0.1191641315817833  0.21194790303707123  1.0000
  Se  Se1       1.0  0.7272557616233826  0.250041127204895  0.7781661152839661  1.0000
  Si  Si1       1.0  0.12717455625534058  0.4921337068080902  0.23559479415416718  1.0000
  Zr  Zr1       1.0  0.6224232912063599  0.19632908701896667  0.5389149785041809  1.0000
