data_image0
_chemical_formula_structural       Al4NiPr5Zr
_chemical_formula_sum              "Al4 Ni1 Pr5 Zr1"
_cell_length_a       5.632037715809478
_cell_length_b       5.395723775230545
_cell_length_c       5.74714994430542
_cell_angle_alpha    67.03791547755317
_cell_angle_beta     63.30101350318697
_cell_angle_gamma    63.05824420466957

_space_group_name_H-M_alt    "P 1"
_space_group_IT_number       1

loop_
  _space_group_symop_operation_xyz
  'x, y, z'

loop_
  _atom_site_type_symbol
  _atom_site_label
  _atom_site_symmetry_multiplicity
  _atom_site_fract_x
  _atom_site_fract_y
  _atom_site_fract_z
  _atom_site_occupancy
  Al  Al1       1.0  0.11580897122621536  0.08420676738023758  0.1523762345314026  1.0000
  Al  Al2       1.0  0.18774206936359406  0.05916410684585571  0.9588079452514648  1.0000
  Al  Al3       1.0  0.6454793810844421  0.7969570159912109  0.7369236946105957  1.0000
  Al  Al4       1.0  0.1576199233531952  0.6058043241500854  0.9435080885887146  1.0000
  Ni  Ni1       1.0  0.15106841921806335  0.13569533824920654  0.3477848768234253  1.0000
  Pr  Pr1       1.0  0.6381709575653076  0.798778235912323  0.0047203521244227505  1.0000
  Pr  Pr2       1.0  0.13647739589214325  0.27381277084350586  0.9880608320236206  1.0000
  Pr  Pr3       1.0  0.6307827234268188  0.5800687670707703  0.24907992780208588  1.0000
  Pr  Pr4       1.0  0.134916290640831  0.7211161851882935  0.07369545847177505  1.0000
  Pr  Pr5       1.0  0.13790065050125122  0.4501763582229614  0.3612212538719177  1.0000
  Zr  Zr1       1.0  0.6398153305053711  0.7235731482505798  0.29819226264953613  1.0000
