data_image0
_chemical_formula_structural       Al2IOPPr2SiSrZr2
_chemical_formula_sum              "Al2 I1 O1 P1 Pr2 Si1 Sr1 Zr2"
_cell_length_a       6.35517727145662
_cell_length_b       6.604056246116063
_cell_length_c       6.842311859130859
_cell_angle_alpha    60.3128737798294
_cell_angle_beta     64.13615688429066
_cell_angle_gamma    61.27403614378144

_space_group_name_H-M_alt    "P 1"
_space_group_IT_number       1

loop_
  _space_group_symop_operation_xyz
  'x, y, z'

loop_
  _atom_site_type_symbol
  _atom_site_label
  _atom_site_symmetry_multiplicity
  _atom_site_fract_x
  _atom_site_fract_y
  _atom_site_fract_z
  _atom_site_occupancy
  Al  Al1       1.0  0.08889368921518326  0.24754711985588074  0.45937526226043696  1.0000
  Al  Al2       1.0  0.8102466464042664  0.4306987524032593  0.6291857957839966  1.0000
  I   I1        1.0  0.08450284600257874  0.656679093837738  0.5208492875099182  1.0000
  O   O1        1.0  0.37873926758766174  0.7103750109672546  0.17527602612972257  1.0000
  P   P1        1.0  0.5817880034446716  0.3684457242488861  0.9443582296371459  1.0000
  Pr  Pr1       1.0  0.5923045873641968  0.7237262725830078  0.22911268472671506  1.0000
  Pr  Pr2       1.0  0.10291697829961777  0.7226287126541138  0.9384795427322387  1.0000
  Si  Si1       1.0  0.3395918607711792  0.31337541341781616  0.10029555857181548  1.0000
  Sr  Sr1       1.0  0.09469867497682571  0.4357678294181824  0.49130922555923456  1.0000
  Zr  Zr1       1.0  0.8367682099342346  0.8100257515907288  0.6924597620964049  1.0000
  Zr  Zr2       1.0  0.9604960680007935  0.0519864447414875  0.7946294546127318  1.0000
