data_image0
_chemical_formula_structural       H2IrPr4SiZr3
_chemical_formula_sum              "H2 Ir1 Pr4 Si1 Zr3"
_cell_length_a       5.282486487848063
_cell_length_b       5.297342367442509
_cell_length_c       8.89936637878418
_cell_angle_alpha    89.73632916041163
_cell_angle_beta     90.18873464040514
_cell_angle_gamma    88.75567035505095

_space_group_name_H-M_alt    "P 1"
_space_group_IT_number       1

loop_
  _space_group_symop_operation_xyz
  'x, y, z'

loop_
  _atom_site_type_symbol
  _atom_site_label
  _atom_site_symmetry_multiplicity
  _atom_site_fract_x
  _atom_site_fract_y
  _atom_site_fract_z
  _atom_site_occupancy
  H   H1        1.0  0.6594959497451782  0.6874432563781738  0.14256823062896729  1.0000
  H   H2        1.0  0.6438480019569397  0.8342122435569763  0.867803156375885  1.0000
  Ir  Ir1       1.0  0.15162913501262665  0.515896201133728  0.527726948261261  1.0000
  Pr  Pr1       1.0  0.1517399251461029  0.4066216051578522  0.9754011034965515  1.0000
  Pr  Pr2       1.0  0.1516040563583374  0.9031797051429749  0.5651476383209229  1.0000
  Pr  Pr3       1.0  0.6672729849815369  0.2579610347747803  0.2462225705385208  1.0000
  Pr  Pr4       1.0  0.6626552939414978  0.1082419827580452  0.9773313999176025  1.0000
  Si  Si1       1.0  0.14874906837940216  0.7763019800186157  0.33193913102149963  1.0000
  Zr  Zr1       1.0  0.16069069504737854  0.002989721717312932  0.3648926913738251  1.0000
  Zr  Zr2       1.0  0.6580292582511902  0.05286679416894913  0.3249313235282898  1.0000
  Zr  Zr3       1.0  0.15975235402584076  0.40470245480537415  0.2166839987039566  1.0000
