data_image0
_chemical_formula_structural       Al5AsPr5
_chemical_formula_sum              "Al5 As1 Pr5"
_cell_length_a       5.837342699478302
_cell_length_b       5.7804775150693555
_cell_length_c       6.170682430267334
_cell_angle_alpha    89.75784144183815
_cell_angle_beta     89.76278720649869
_cell_angle_gamma    90.30127454212116

_space_group_name_H-M_alt    "P 1"
_space_group_IT_number       1

loop_
  _space_group_symop_operation_xyz
  'x, y, z'

loop_
  _atom_site_type_symbol
  _atom_site_label
  _atom_site_symmetry_multiplicity
  _atom_site_fract_x
  _atom_site_fract_y
  _atom_site_fract_z
  _atom_site_occupancy
  Al  Al1       1.0  0.40719661116600037  0.24460284411907196  0.09649318456649779  1.0000
  Al  Al2       1.0  0.9089951515197754  0.21066363155841827  0.30676305294036865  1.0000
  Al  Al3       1.0  0.6780544519424438  0.8800551891326904  0.3265436291694641  1.0000
  Al  Al4       1.0  0.3985862731933594  0.9161951541900635  0.2105007618665695  1.0000
  Al  Al5       1.0  0.909015417098999  0.1927388459444046  0.3415197432041168  1.0000
  As  As1       1.0  0.902049720287323  0.6394202709197998  0.20321440696716306  1.0000
  Pr  Pr1       1.0  0.4080851972103119  0.11068142205476761  0.14367124438285828  1.0000
  Pr  Pr2       1.0  0.16542276740074158  0.13702614605426788  0.6290796995162964  1.0000
  Pr  Pr3       1.0  0.41154250502586365  0.18946969509124756  0.5105634331703186  1.0000
  Pr  Pr4       1.0  0.1624206006526947  0.2301904857158661  0.004861580673605204  1.0000
  Pr  Pr5       1.0  0.8983055949211121  0.45026037096977234  0.6141867637634277  1.0000
