data_image0
_chemical_formula_structural       Bi6RuZr2
_chemical_formula_sum              "Bi6 Ru1 Zr2"
_cell_length_a       5.575324105586207
_cell_length_b       5.880829650268643
_cell_length_c       8.269841194152832
_cell_angle_alpha    69.39619486407072
_cell_angle_beta     69.85322942532696
_cell_angle_gamma    61.39209620160718

_space_group_name_H-M_alt    "P 1"
_space_group_IT_number       1

loop_
  _space_group_symop_operation_xyz
  'x, y, z'

loop_
  _atom_site_type_symbol
  _atom_site_label
  _atom_site_symmetry_multiplicity
  _atom_site_fract_x
  _atom_site_fract_y
  _atom_site_fract_z
  _atom_site_occupancy
  Bi  Bi1       1.0  0.6388322114944458  0.7544887661933899  0.6721997857093811  1.0000
  Bi  Bi2       1.0  0.6527385115623474  0.4990710020065308  0.9571971297264099  1.0000
  Bi  Bi3       1.0  0.11392103880643846  0.7573673725128174  0.6822205185890198  1.0000
  Bi  Bi4       1.0  0.1919945627450943  0.05125952512025833  0.7066439986228943  1.0000
  Bi  Bi5       1.0  0.034758515655994415  0.30346935987472534  0.05659707263112068  1.0000
  Bi  Bi6       1.0  0.28598546981811523  0.14647409319877625  0.43733781576156616  1.0000
  Ru  Ru1       1.0  0.3773936331272125  0.5310136079788208  0.07188224792480469  1.0000
  Zr  Zr1       1.0  0.3932496011257171  0.9469630718231202  0.25629767775535583  1.0000
  Zr  Zr2       1.0  0.7765912413597107  0.16246600449085236  0.4520519971847534  1.0000
