data_image0
_chemical_formula_structural       Bi4FLaSbZr2
_chemical_formula_sum              "Bi4 F1 La1 Sb1 Zr2"
_cell_length_a       5.185803010350148
_cell_length_b       5.869241089770259
_cell_length_c       9.053925514221191
_cell_angle_alpha    74.83862187607473
_cell_angle_beta     73.07846758261424
_cell_angle_gamma    60.618230297514025

_space_group_name_H-M_alt    "P 1"
_space_group_IT_number       1

loop_
  _space_group_symop_operation_xyz
  'x, y, z'

loop_
  _atom_site_type_symbol
  _atom_site_label
  _atom_site_symmetry_multiplicity
  _atom_site_fract_x
  _atom_site_fract_y
  _atom_site_fract_z
  _atom_site_occupancy
  Bi  Bi1       1.0  0.8942372798919678  0.8186065554618835  0.1807067096233368  1.0000
  Bi  Bi2       1.0  0.482219398021698  0.6166687607765198  0.4678201377391815  1.0000
  Bi  Bi3       1.0  0.5566611289978027  0.11096847802400589  0.9449385404586792  1.0000
  Bi  Bi4       1.0  0.9802477955818176  0.10133374482393265  0.7522473931312561  1.0000
  F   F1        1.0  0.35912781953811646  0.3208722472190857  0.6107109785079956  1.0000
  La  La1       1.0  0.890899121761322  0.8104143142700195  0.4651418924331665  1.0000
  Sb  Sb1       1.0  0.4800076484680176  0.08235626667737961  0.12404776364564896  1.0000
  Zr  Zr1       1.0  0.4730471670627594  0.603545606136322  0.2593993544578552  1.0000
  Zr  Zr2       1.0  0.8266171813011169  0.31611526012420654  0.49810731410980225  1.0000
