data_image0
_chemical_formula_structural       Bi7LaZr
_chemical_formula_sum              "Bi7 La1 Zr1"
_cell_length_a       5.090060247923356
_cell_length_b       5.2840539162172595
_cell_length_c       11.217044830322266
_cell_angle_alpha    102.03231630349194
_cell_angle_beta     102.83246209193086
_cell_angle_gamma    87.62467416639997

_space_group_name_H-M_alt    "P 1"
_space_group_IT_number       1

loop_
  _space_group_symop_operation_xyz
  'x, y, z'

loop_
  _atom_site_type_symbol
  _atom_site_label
  _atom_site_symmetry_multiplicity
  _atom_site_fract_x
  _atom_site_fract_y
  _atom_site_fract_z
  _atom_site_occupancy
  Bi  Bi1       1.0  0.6644909381866455  0.4466933310031891  0.6586222052574158  1.0000
  Bi  Bi2       1.0  0.4698338508605957  0.03349268063902855  0.2103704959154129  1.0000
  Bi  Bi3       1.0  0.9285436272621155  0.5128968954086304  0.17654003202915192  1.0000
  Bi  Bi4       1.0  0.19432832300662994  0.07717889547348022  0.686497151851654  1.0000
  Bi  Bi5       1.0  0.6766828894615173  0.9757310748100281  0.5282089710235596  1.0000
  Bi  Bi6       1.0  0.12750962376594543  0.9325974583625793  0.18786272406578064  1.0000
  Bi  Bi7       1.0  0.968674898147583  0.01445841509848833  0.1867547631263733  1.0000
  La  La1       1.0  0.31714197993278503  0.4498656392097473  0.43187376856803894  1.0000
  Zr  Zr1       1.0  0.1335114985704422  0.43974608182907104  0.6855132579803467  1.0000
