data_image0
_chemical_formula_structural       Bi9
_chemical_formula_sum              "Bi9"
_cell_length_a       5.076903234275091
_cell_length_b       7.294778673738538
_cell_length_c       7.877437591552734
_cell_angle_alpha    119.56438661613699
_cell_angle_beta     94.11455269703647
_cell_angle_gamma    85.27125353006946

_space_group_name_H-M_alt    "P 1"
_space_group_IT_number       1

loop_
  _space_group_symop_operation_xyz
  'x, y, z'

loop_
  _atom_site_type_symbol
  _atom_site_label
  _atom_site_symmetry_multiplicity
  _atom_site_fract_x
  _atom_site_fract_y
  _atom_site_fract_z
  _atom_site_occupancy
  Bi  Bi1       1.0  0.10031827539205551  0.6564545035362244  0.19567115604877466  1.0000
  Bi  Bi2       1.0  0.6010733842849731  0.24747408926486966  0.6467807292938232  1.0000
  Bi  Bi3       1.0  0.09869180619716644  0.6149694919586182  0.22687403857707972  1.0000
  Bi  Bi4       1.0  0.599395751953125  0.9352033138275145  0.9851382970809937  1.0000
  Bi  Bi5       1.0  0.5908875465393066  0.9523454308509826  0.7919402122497559  1.0000
  Bi  Bi6       1.0  0.5972781777381897  0.4746245443820953  0.6218705773353577  1.0000
  Bi  Bi7       1.0  0.09235330671072006  0.2895490527153015  0.40753826498985285  1.0000
  Bi  Bi8       1.0  0.562568187713623  0.9420828223228453  0.997592031955719  1.0000
  Bi  Bi9       1.0  0.09346286952495575  0.6109057068824768  0.5229605436325072  1.0000
