data_image0
_chemical_formula_structural       Bi9
_chemical_formula_sum              "Bi9"
_cell_length_a       5.223353468442236
_cell_length_b       7.58621939477434
_cell_length_c       7.654900074005127
_cell_angle_alpha    118.76045982116054
_cell_angle_beta     91.92223175212446
_cell_angle_gamma    87.55551680683165

_space_group_name_H-M_alt    "P 1"
_space_group_IT_number       1

loop_
  _space_group_symop_operation_xyz
  'x, y, z'

loop_
  _atom_site_type_symbol
  _atom_site_label
  _atom_site_symmetry_multiplicity
  _atom_site_fract_x
  _atom_site_fract_y
  _atom_site_fract_z
  _atom_site_occupancy
  Bi  Bi1       1.0  0.8647657632827759  0.07226184010505676  0.699684739112854  1.0000
  Bi  Bi2       1.0  0.8790477514266968  0.21490944921970367  0.9548672437667847  1.0000
  Bi  Bi3       1.0  0.8658381104469299  0.9255697727203369  0.8251012563705444  1.0000
  Bi  Bi4       1.0  0.8744022250175476  0.4854477345943451  0.211001843214035  1.0000
  Bi  Bi5       1.0  0.3805481493473053  0.935011088848114  0.18755711615085602  1.0000
  Bi  Bi6       1.0  0.3690793216228485  0.9875128269195557  0.43862640857696533  1.0000
  Bi  Bi7       1.0  0.869841456413269  0.49579885601997375  0.20371583104133603  1.0000
  Bi  Bi8       1.0  0.37555059790611267  0.38534674048423767  0.0040132696740329266  1.0000
  Bi  Bi9       1.0  0.3674953579902649  0.9966766238212585  0.8599014282226562  1.0000
