data_image0
_chemical_formula_structural       Bi8Zr
_chemical_formula_sum              "Bi8 Zr1"
_cell_length_a       5.139425574586525
_cell_length_b       5.392004739297533
_cell_length_c       11.981581687927246
_cell_angle_alpha    102.21428564183931
_cell_angle_beta     101.09853716225419
_cell_angle_gamma    88.80265389427046

_space_group_name_H-M_alt    "P 1"
_space_group_IT_number       1

loop_
  _space_group_symop_operation_xyz
  'x, y, z'

loop_
  _atom_site_type_symbol
  _atom_site_label
  _atom_site_symmetry_multiplicity
  _atom_site_fract_x
  _atom_site_fract_y
  _atom_site_fract_z
  _atom_site_occupancy
  Bi  Bi1       1.0  0.23819102346897125  0.8953333497047424  0.26520153880119324  1.0000
  Bi  Bi2       1.0  0.7467046976089478  0.694175660610199  0.720798909664154  1.0000
  Bi  Bi3       1.0  0.27070796489715576  0.05770747363567352  0.7446168065071106  1.0000
  Bi  Bi4       1.0  0.7645984292030334  0.38167163729667664  0.9892434477806091  1.0000
  Bi  Bi5       1.0  0.20354464650154114  0.8874534964561462  0.6958488821983337  1.0000
  Bi  Bi6       1.0  0.9401494860649109  0.7589907050132751  0.9231896996498108  1.0000
  Bi  Bi7       1.0  0.7153413891792297  0.39114469289779663  0.7289920449256897  1.0000
  Bi  Bi8       1.0  0.3463323712348938  0.666301965713501  0.5003491044044495  1.0000
  Zr  Zr1       1.0  0.3431870937347412  0.16404320299625397  0.4963315725326538  1.0000
