data_image0
_chemical_formula_structural       AsBa5DyGaI2ORuTbZr
_chemical_formula_sum              "As1 Ba5 Dy1 Ga1 I2 O1 Ru1 Tb1 Zr1"
_cell_length_a       6.559887734627458
_cell_length_b       6.878860459483815
_cell_length_c       7.237545967102051
_cell_angle_alpha    55.021628119948204
_cell_angle_beta     71.91470426225756
_cell_angle_gamma    72.80778400401897

_space_group_name_H-M_alt    "P 1"
_space_group_IT_number       1

loop_
  _space_group_symop_operation_xyz
  'x, y, z'

loop_
  _atom_site_type_symbol
  _atom_site_label
  _atom_site_symmetry_multiplicity
  _atom_site_fract_x
  _atom_site_fract_y
  _atom_site_fract_z
  _atom_site_occupancy
  As  As1       1.0  0.0046575069427490234  0.8383490443229675  0.6958584785461426  1.0000
  Ba  Ba1       1.0  0.2970901131629944  0.044326651841402054  0.5970124006271362  1.0000
  Ba  Ba2       1.0  0.025910641998052594  0.5019550323486328  0.2639912664890289  1.0000
  Ba  Ba3       1.0  0.021790759637951847  0.9629461169242859  0.7137802839279171  1.0000
  Ba  Ba4       1.0  0.52333003282547  0.9262896776199341  0.33219999074935913  1.0000
  Ba  Ba5       1.0  0.813110589981079  0.6148984432220459  0.015451464802026749  1.0000
  Dy  Dy1       1.0  0.5350655317306519  0.02898216061294079  0.8294823169708252  1.0000
  Ga  Ga1       1.0  0.5286076664924622  0.38956642150878906  0.7430030703544617  1.0000
  I   I1        1.0  0.021249592304229736  0.8348069787025452  0.7849250435829163  1.0000
  I   I2        1.0  0.5292255282402039  0.47810161113739014  0.759552538394928  1.0000
  O   O1        1.0  0.538943350315094  0.689788818359375  0.9166483879089355  1.0000
  Ru  Ru1       1.0  0.31206852197647095  0.03565752133727074  0.6630128026008606  1.0000
  Tb  Tb1       1.0  0.5416143536567688  0.5451804399490356  0.5268207788467407  1.0000
  Zr  Zr1       1.0  0.29183322191238403  0.6394765973091125  0.8684432506561279  1.0000
