data_image0
_chemical_formula_structural       Ba5LuO5Zr3
_chemical_formula_sum              "Ba5 Lu1 O5 Zr3"
_cell_length_a       6.79297425291591
_cell_length_b       6.823830424995635
_cell_length_c       6.9200663566589355
_cell_angle_alpha    58.27534394123165
_cell_angle_beta     60.44428113399493
_cell_angle_gamma    59.10896519786511

_space_group_name_H-M_alt    "P 1"
_space_group_IT_number       1

loop_
  _space_group_symop_operation_xyz
  'x, y, z'

loop_
  _atom_site_type_symbol
  _atom_site_label
  _atom_site_symmetry_multiplicity
  _atom_site_fract_x
  _atom_site_fract_y
  _atom_site_fract_z
  _atom_site_occupancy
  Ba  Ba1       1.0  0.7568547129631041  0.5244458913803101  0.07663606852293015  1.0000
  Ba  Ba2       1.0  0.6712297797203064  0.7477245330810547  0.6209845542907715  1.0000
  Ba  Ba3       1.0  0.23455043137073514  0.41175729036331177  0.6088179349899292  1.0000
  Ba  Ba4       1.0  0.28644612431526184  0.5964171290397644  0.8973336219787599  1.0000
  Ba  Ba5       1.0  0.11070851236581801  0.3374919295310974  0.47879368066787725  1.0000
  Lu  Lu1       1.0  0.3487601578235626  0.44733357429504395  0.7241538166999818  1.0000
  O   O1        1.0  0.6180052757263184  0.7232598662376404  0.0818917378783226  1.0000
  O   O2        1.0  0.7673463821411132  0.9800355434417723  0.3991189002990723  1.0000
  O   O3        1.0  0.3495233952999115  0.021788813173770905  0.7938323616981507  1.0000
  O   O4        1.0  0.11806080490350722  0.33038973808288574  0.7900803685188295  1.0000
  O   O5        1.0  0.26784560084342957  0.9676199555397033  0.02607379294931889  1.0000
  Zr  Zr1       1.0  0.7717448472976683  0.6674602031707764  0.15016166865825653  1.0000
  Zr  Zr2       1.0  0.7677303552627562  0.09765587747097015  0.8382984995841981  1.0000
  Zr  Zr3       1.0  0.7445635199546813  0.35820716619491577  0.3538941442966462  1.0000
