data_image0
_chemical_formula_structural       Nd4O6Ru3S
_chemical_formula_sum              "Nd4 O6 Ru3 S1"
_cell_length_a       5.592400216277907
_cell_length_b       5.3402091883227705
_cell_length_c       6.686568737030029
_cell_angle_alpha    109.49368448385655
_cell_angle_beta     102.80053163831946
_cell_angle_gamma    104.59754835876006

_space_group_name_H-M_alt    "P 1"
_space_group_IT_number       1

loop_
  _space_group_symop_operation_xyz
  'x, y, z'

loop_
  _atom_site_type_symbol
  _atom_site_label
  _atom_site_symmetry_multiplicity
  _atom_site_fract_x
  _atom_site_fract_y
  _atom_site_fract_z
  _atom_site_occupancy
  Nd  Nd1       1.0  0.13767217099666595  0.8974328637123108  0.9542355537414551  1.0000
  Nd  Nd2       1.0  0.6348426938056946  0.34127432107925415  0.8483994603157043  1.0000
  Nd  Nd3       1.0  0.6357781291007996  0.9272872805595398  0.48235562443733215  1.0000
  Nd  Nd4       1.0  0.1376189887523651  0.031388185918331146  0.13822056353092194  1.0000
  O   O1        1.0  0.6466250419616699  0.11544397473335266  0.7194936871528625  1.0000
  O   O2        1.0  0.13586591184139252  0.8121235966682434  0.5192685127258301  1.0000
  O   O3        1.0  0.8008598089218141  0.059412430971860886  0.17510583996772766  1.0000
  O   O4        1.0  0.6441365480422974  0.23965491354465485  0.5011169910430908  1.0000
  O   O5        1.0  0.12905991077423096  0.9596899151802063  0.7677654027938843  1.0000
  O   O6        1.0  0.6422976851463318  0.8274456262588501  0.46893101930618286  1.0000
  Ru  Ru1       1.0  0.6356976628303528  0.5273224115371704  0.49681612849235535  1.0000
  Ru  Ru2       1.0  0.12262943387031557  0.4823112189769745  0.2333240807056427  1.0000
  Ru  Ru3       1.0  0.12630712985992432  0.28166642785072327  0.2456761747598648  1.0000
  S   S1        1.0  0.14181706309318542  0.10506540536880493  0.9140719771385193  1.0000
