data_image0
_chemical_formula_structural       Ba3O6Ru3ZnZr
_chemical_formula_sum              "Ba3 O6 Ru3 Zn1 Zr1"
_cell_length_a       5.929343701509213
_cell_length_b       7.443455156088907
_cell_length_c       7.982687950134277
_cell_angle_alpha    62.332824757099935
_cell_angle_beta     68.68774339254
_cell_angle_gamma    68.35278566044653

_space_group_name_H-M_alt    "P 1"
_space_group_IT_number       1

loop_
  _space_group_symop_operation_xyz
  'x, y, z'

loop_
  _atom_site_type_symbol
  _atom_site_label
  _atom_site_symmetry_multiplicity
  _atom_site_fract_x
  _atom_site_fract_y
  _atom_site_fract_z
  _atom_site_occupancy
  Ba  Ba1       1.0  0.43323588371276855  0.6101955771446228  0.7936651706695558  1.0000
  Ba  Ba2       1.0  0.24441690742969513  0.0042654541321098804  0.6974688768386842  1.0000
  Ba  Ba3       1.0  0.8743956685066223  0.42777276039123535  0.09109486639499666  1.0000
  O   O1        1.0  0.378944456577301  0.39755016565322876  0.8971360921859742  1.0000
  O   O2        1.0  0.8366724252700806  0.3202304244041443  0.49325153231620794  1.0000
  O   O3        1.0  0.27863189578056335  0.5037062168121338  0.9275126457214357  1.0000
  O   O4        1.0  0.7663372159004211  0.9291253685951233  0.4814400672912598  1.0000
  O   O5        1.0  0.9303397536277771  0.1650591492652893  0.7807417511940004  1.0000
  O   O6        1.0  0.41340917348861694  0.9416595101356506  0.26207634806632996  1.0000
  Ru  Ru1       1.0  0.44665688276290894  0.024028658866882324  0.7989883422851564  1.0000
  Ru  Ru2       1.0  0.2386525571346283  0.48045846819877625  0.2082352787256241  1.0000
  Ru  Ru3       1.0  0.8847732543945312  0.026498522609472275  0.4426759481430054  1.0000
  Zn  Zn1       1.0  0.8148694038391113  0.6929510831832886  0.7404628396034242  1.0000
  Zr  Zr1       1.0  0.3768359124660492  0.35425281524658203  0.08516664803028108  1.0000
