data_image0
_chemical_formula_structural       GaLuO5Ru3YbZn3
_chemical_formula_sum              "Ga1 Lu1 O5 Ru3 Yb1 Zn3"
_cell_length_a       6.667632388484281
_cell_length_b       6.804765225987315
_cell_length_c       9.249043464660645
_cell_angle_alpha    71.58345991524912
_cell_angle_beta     68.34123325339169
_cell_angle_gamma    62.22765665285519

_space_group_name_H-M_alt    "P 1"
_space_group_IT_number       1

loop_
  _space_group_symop_operation_xyz
  'x, y, z'

loop_
  _atom_site_type_symbol
  _atom_site_label
  _atom_site_symmetry_multiplicity
  _atom_site_fract_x
  _atom_site_fract_y
  _atom_site_fract_z
  _atom_site_occupancy
  Ga  Ga1       1.0  0.9771942496299744  0.9556200504302979  0.8243449926376343  1.0000
  Lu  Lu1       1.0  0.35251933336257935  0.15266184508800507  0.5870505571365356  1.0000
  O   O1        1.0  0.9828112125396729  0.4707419276237488  0.6892758011817932  1.0000
  O   O2        1.0  0.8570364117622375  0.6887163519859314  0.5439765453338623  1.0000
  O   O3        1.0  0.674655020236969  0.24523445963859558  0.2834993302822113  1.0000
  O   O4        1.0  0.23901189863681793  0.011685783043503761  0.7184043526649475  1.0000
  O   O5        1.0  0.5162034034729004  0.6324829459190369  0.38783949613571167  1.0000
  Ru  Ru1       1.0  0.6796398758888245  0.7928200960159302  0.014690574258565904  1.0000
  Ru  Ru2       1.0  0.9754347801208496  0.8787297606468201  0.510417640209198  1.0000
  Ru  Ru3       1.0  0.7460380792617798  0.8448053002357483  0.17957830429077148  1.0000
  Yb  Yb1       1.0  0.21367834508419037  0.6317058801651001  0.025056252256035805  1.0000
  Zn  Zn1       1.0  0.2180788516998291  0.043284498155117035  0.9863925576210023  1.0000
  Zn  Zn2       1.0  0.7165555953979492  0.9288502931594849  0.2115396410226822  1.0000
  Zn  Zn3       1.0  0.25645020604133606  0.182880699634552  0.6229753494262695  1.0000
