data_image0
_chemical_formula_structural       Nd5O8Ru
_chemical_formula_sum              "Nd5 O8 Ru1"
_cell_length_a       6.600045566764019
_cell_length_b       6.538622607104326
_cell_length_c       7.768660545349121
_cell_angle_alpha    73.43380985888274
_cell_angle_beta     69.52487666422185
_cell_angle_gamma    64.6329170323719

_space_group_name_H-M_alt    "P 1"
_space_group_IT_number       1

loop_
  _space_group_symop_operation_xyz
  'x, y, z'

loop_
  _atom_site_type_symbol
  _atom_site_label
  _atom_site_symmetry_multiplicity
  _atom_site_fract_x
  _atom_site_fract_y
  _atom_site_fract_z
  _atom_site_occupancy
  Nd  Nd1       1.0  0.23104384541511538  0.11814991384744643  0.6543024182319641  1.0000
  Nd  Nd2       1.0  0.2279155850410462  0.83502858877182  0.04748673737049103  1.0000
  Nd  Nd3       1.0  0.7331476211547852  0.9012432694435119  0.6877687573432922  1.0000
  Nd  Nd4       1.0  0.7138848900794983  0.9026110768318175  0.07043322920799255  1.0000
  Nd  Nd5       1.0  0.22552600502967837  0.7013610005378723  0.32024240493774414  1.0000
  O   O1        1.0  0.6100122332572937  0.21904739737510678  0.03310412913560867  1.0000
  O   O2        1.0  0.7156015634536743  0.6851067543029785  0.35789647698402405  1.0000
  O   O3        1.0  0.42199069261550914  0.9572436213493346  0.12555444240570068  1.0000
  O   O4        1.0  0.21777477860450753  0.9286682605743407  0.08095970004796982  1.0000
  O   O5        1.0  0.9061098694801332  0.019921282306313515  0.0808570459485054  1.0000
  O   O6        1.0  0.715775728225708  0.6712542772293091  0.3151194155216217  1.0000
  O   O7        1.0  0.720269501209259  0.768006682395935  0.3268565535545349  1.0000
  O   O8        1.0  0.20702995359897622  0.9860774278640746  0.09701135754585266  1.0000
  Ru  Ru1       1.0  0.17113660275936127  0.6171090006828308  0.2073739469051361  1.0000
