data_image0
_chemical_formula_structural       CoDy2Ga3P
_chemical_formula_sum              "Co1 Dy2 Ga3 P1"
_cell_length_a       4.4944838769457425
_cell_length_b       6.4588235800647835
_cell_length_c       6.4218220710754395
_cell_angle_alpha    118.25434493663971
_cell_angle_beta     89.24291148909451
_cell_angle_gamma    88.2534820520172

_space_group_name_H-M_alt    "P 1"
_space_group_IT_number       1

loop_
  _space_group_symop_operation_xyz
  'x, y, z'

loop_
  _atom_site_type_symbol
  _atom_site_label
  _atom_site_symmetry_multiplicity
  _atom_site_fract_x
  _atom_site_fract_y
  _atom_site_fract_z
  _atom_site_occupancy
  Co  Co1       1.0  0.05162481218576431  0.11834684014320374  0.7015885114669801  1.0000
  Dy  Dy1       1.0  0.5476933121681213  0.6263520121574402  0.09114172309637071  1.0000
  Dy  Dy2       1.0  0.5268065929412842  0.3243740200996399  0.7033845186233522  1.0000
  Ga  Ga1       1.0  0.014861277304589748  0.6213188767433167  0.9445540308952333  1.0000
  Ga  Ga2       1.0  0.5314185619354248  0.7964920401573181  0.44430202245712286  1.0000
  Ga  Ga3       1.0  0.016632728278636932  0.30341964960098267  0.2041629403829575  1.0000
  P   P1        1.0  0.01919640600681305  0.9682589173316956  0.9411005973815919  1.0000
