data_image0
_chemical_formula_structural       BrI4LiPrSi6
_chemical_formula_sum              "Br1 I4 Li1 Pr1 Si6"
_cell_length_a       7.293607690543525
_cell_length_b       7.1907501957535445
_cell_length_c       9.111668586730957
_cell_angle_alpha    113.52101607792953
_cell_angle_beta     112.40463801490493
_cell_angle_gamma    88.02501340092597

_space_group_name_H-M_alt    "P 1"
_space_group_IT_number       1

loop_
  _space_group_symop_operation_xyz
  'x, y, z'

loop_
  _atom_site_type_symbol
  _atom_site_label
  _atom_site_symmetry_multiplicity
  _atom_site_fract_x
  _atom_site_fract_y
  _atom_site_fract_z
  _atom_site_occupancy
  Br  Br1       1.0  0.7536358833312988  0.3422201871871948  0.848365306854248  1.0000
  I   I1        1.0  0.2854107916355133  0.2813587188720703  0.1045650914311409  1.0000
  I   I2        1.0  0.4294753670692444  0.7551241517066956  0.7940012216567993  1.0000
  I   I3        1.0  0.42912089824676514  0.9815113544464111  0.18146243691444397  1.0000
  I   I4        1.0  0.4185194671154022  0.7474859356880188  0.7392784357070923  1.0000
  Li  Li1       1.0  0.12402942776679993  0.14108912646770477  0.5129837393760681  1.0000
  Pr  Pr1       1.0  0.946958065032959  0.20870061218738556  0.7656075358390808  1.0000
  Si  Si1       1.0  0.39573460817337036  0.6496003270149231  0.8797549605369568  1.0000
  Si  Si2       1.0  0.9029926061630249  0.1192413866519928  0.8078856468200684  1.0000
  Si  Si3       1.0  0.24682383239269257  0.26094257831573486  0.175481915473938  1.0000
  Si  Si4       1.0  0.6310151815414429  0.20936639606952667  0.06127196550369263  1.0000
  Si  Si5       1.0  0.9513872861862183  0.993619978427887  0.2377777397632599  1.0000
  Si  Si6       1.0  0.0753980502486229  0.803182065486908  0.2373533546924591  1.0000
