data_image0
_chemical_formula_structural       CeI4PSi6U
_chemical_formula_sum              "Ce1 I4 P1 Si6 U1"
_cell_length_a       6.242918452876587
_cell_length_b       8.034534831224995
_cell_length_c       9.842236518859863
_cell_angle_alpha    117.8328687032242
_cell_angle_beta     90.86352845399219
_cell_angle_gamma    90.2403524056795

_space_group_name_H-M_alt    "P 1"
_space_group_IT_number       1

loop_
  _space_group_symop_operation_xyz
  'x, y, z'

loop_
  _atom_site_type_symbol
  _atom_site_label
  _atom_site_symmetry_multiplicity
  _atom_site_fract_x
  _atom_site_fract_y
  _atom_site_fract_z
  _atom_site_occupancy
  Ce  Ce1       1.0  0.10628104954957963  0.10647922009229659  0.47721749544143677  1.0000
  I   I1        1.0  0.07512485235929489  0.7369414567947388  0.6069115400314331  1.0000
  I   I2        1.0  0.5678911805152893  0.6587746739387512  0.28316742181777954  1.0000
  I   I3        1.0  0.10213940590620042  0.09645961225032806  0.014906705357134342  1.0000
  I   I4        1.0  0.5826742053031921  0.5141075849533081  0.15129712224006653  1.0000
  P   P1        1.0  0.0646091029047966  0.9718973636627196  0.23797050118446345  1.0000
  Si  Si1       1.0  0.10721459984779359  0.28512799739837646  0.3677472770214081  1.0000
  Si  Si2       1.0  0.5652558207511902  0.037853069603443146  0.0883142501115799  1.0000
  Si  Si3       1.0  0.5903388261795044  0.9014400839805602  0.9338948726654053  1.0000
  Si  Si4       1.0  0.5800055265426636  0.631161093711853  0.1486225724220276  1.0000
  Si  Si5       1.0  0.3298558294773102  0.7505998015403748  0.47301751375198364  1.0000
  Si  Si6       1.0  0.6277332305908203  0.2621481716632843  0.8422508835792542  1.0000
  U   U1        1.0  0.8517301082611085  0.18141323328018188  0.06651605665683746  1.0000
