data_image0
_chemical_formula_structural       IMo2Pr4S2Si4
_chemical_formula_sum              "I1 Mo2 Pr4 S2 Si4"
_cell_length_a       7.217673742003816
_cell_length_b       6.7384774088496
_cell_length_c       7.089075088500977
_cell_angle_alpha    114.48152726905899
_cell_angle_beta     115.13023728086772
_cell_angle_gamma    98.8114459716134

_space_group_name_H-M_alt    "P 1"
_space_group_IT_number       1

loop_
  _space_group_symop_operation_xyz
  'x, y, z'

loop_
  _atom_site_type_symbol
  _atom_site_label
  _atom_site_symmetry_multiplicity
  _atom_site_fract_x
  _atom_site_fract_y
  _atom_site_fract_z
  _atom_site_occupancy
  I   I1        1.0  0.24190855026245117  0.6818066835403442  0.7690944671630859  1.0000
  Mo  Mo1       1.0  0.3316718637943268  0.5791937112808228  0.893603503704071  1.0000
  Mo  Mo2       1.0  0.1375325620174408  0.5042316913604736  0.5329284071922302  1.0000
  Pr  Pr1       1.0  0.8721777200698853  0.07621873170137405  0.57352614402771  1.0000
  Pr  Pr2       1.0  0.7093899250030518  0.16815626621246338  0.6442142128944397  1.0000
  Pr  Pr3       1.0  0.6295061111450195  0.7729818224906921  0.15230527520179749  1.0000
  Pr  Pr4       1.0  0.3786717355251312  0.5646985769271851  0.6979972720146179  1.0000
  S   S1        1.0  0.9775378108024597  0.1587805151939392  0.8247188925743103  1.0000
  S   S2        1.0  0.22529421746730804  0.7399692535400391  0.4582197964191437  1.0000
  Si  Si1       1.0  0.7433456778526306  0.7615822553634644  0.6016970872879028  1.0000
  Si  Si2       1.0  0.6432304382324219  0.4735693037509918  0.4654901921749115  1.0000
  Si  Si3       1.0  0.7221639156341553  0.5141716003417969  0.3530731499195099  1.0000
  Si  Si4       1.0  0.11924203485250473  0.9601629376411438  0.5919508934020996  1.0000
