data_image0
_chemical_formula_structural       IPr6S2Si4
_chemical_formula_sum              "I1 Pr6 S2 Si4"
_cell_length_a       7.788783942061295
_cell_length_b       7.234204579902685
_cell_length_c       8.137552261352539
_cell_angle_alpha    113.53663422011982
_cell_angle_beta     112.92265550373125
_cell_angle_gamma    92.5220020738691

_space_group_name_H-M_alt    "P 1"
_space_group_IT_number       1

loop_
  _space_group_symop_operation_xyz
  'x, y, z'

loop_
  _atom_site_type_symbol
  _atom_site_label
  _atom_site_symmetry_multiplicity
  _atom_site_fract_x
  _atom_site_fract_y
  _atom_site_fract_z
  _atom_site_occupancy
  I   I1        1.0  0.7588613629341125  0.48510822653770447  0.5990157127380371  1.0000
  Pr  Pr1       1.0  0.7076998353004456  0.5286678075790405  0.10945931822061539  1.0000
  Pr  Pr2       1.0  0.051297035068273544  0.9378345012664795  0.29032272100448603  1.0000
  Pr  Pr3       1.0  0.5415107011795044  0.9785375595092773  0.8037211298942566  1.0000
  Pr  Pr4       1.0  0.047850094735622406  0.5367165803909302  0.4157105088233948  1.0000
  Pr  Pr5       1.0  0.08504047244787216  0.273864209651947  0.19663190841674802  1.0000
  Pr  Pr6       1.0  0.5458564758300781  0.3090531826019287  0.7664474248886108  1.0000
  S   S1        1.0  0.9148876667022705  0.6587777733802795  0.5397873520851135  1.0000
  S   S2        1.0  0.7941147685050964  0.25143003463745117  0.41257029771804804  1.0000
  Si  Si1       1.0  0.292935311794281  0.10826215893030167  0.3530815839767456  1.0000
  Si  Si2       1.0  0.5276129841804504  0.03148945793509483  0.15912196040153503  1.0000
  Si  Si3       1.0  0.546053946018219  0.7407967448234558  0.25941556692123413  1.0000
  Si  Si4       1.0  0.7870355248451233  0.7821145057678223  0.2109428197145462  1.0000
