data_image0
_chemical_formula_structural       I5PPtS2Si4
_chemical_formula_sum              "I5 P1 Pt1 S2 Si4"
_cell_length_a       6.2594254913601235
_cell_length_b       6.055891644831391
_cell_length_c       9.393144607543945
_cell_angle_alpha    96.66794674562215
_cell_angle_beta     94.41455551728195
_cell_angle_gamma    111.98831980657795

_space_group_name_H-M_alt    "P 1"
_space_group_IT_number       1

loop_
  _space_group_symop_operation_xyz
  'x, y, z'

loop_
  _atom_site_type_symbol
  _atom_site_label
  _atom_site_symmetry_multiplicity
  _atom_site_fract_x
  _atom_site_fract_y
  _atom_site_fract_z
  _atom_site_occupancy
  I   I1        1.0  0.8678137063980103  0.5672507882118225  0.8347424864768982  1.0000
  I   I2        1.0  0.020656941458582878  0.22834327816963196  0.9969778656959534  1.0000
  I   I3        1.0  0.013723036274313927  0.40285754203796387  0.059343595057725906  1.0000
  I   I4        1.0  0.8951427936553954  0.9658040404319763  0.18033017218112946  1.0000
  I   I5        1.0  0.5162830352783203  0.6817771196365356  0.3800065219402313  1.0000
  P   P1        1.0  0.4599237143993377  0.5379239320755005  0.26683369278907776  1.0000
  Pt  Pt1       1.0  0.15575507283210754  0.48694977164268494  0.3179175853729248  1.0000
  S   S1        1.0  0.37997177243232727  0.5895968079566956  0.4707702696323395  1.0000
  S   S2        1.0  0.24077451229095456  0.5099861025810242  0.1653195321559906  1.0000
  Si  Si1       1.0  0.7626380324363708  0.3666204810142517  0.9747714996337891  1.0000
  Si  Si2       1.0  0.7023484706878662  0.6155128479003906  0.09528539329767227  1.0000
  Si  Si3       1.0  0.5745971202850342  0.859920859336853  0.05970660597085953  1.0000
  Si  Si4       1.0  0.3888588547706604  0.40242713689804077  0.8643563985824585  1.0000
