data_image0
_chemical_formula_structural       I5PPrSi6
_chemical_formula_sum              "I5 P1 Pr1 Si6"
_cell_length_a       5.921862158748223
_cell_length_b       7.162552733133735
_cell_length_c       10.157705307006836
_cell_angle_alpha    99.72834574492369
_cell_angle_beta     90.03308055171604
_cell_angle_gamma    92.13714179088254

_space_group_name_H-M_alt    "P 1"
_space_group_IT_number       1

loop_
  _space_group_symop_operation_xyz
  'x, y, z'

loop_
  _atom_site_type_symbol
  _atom_site_label
  _atom_site_symmetry_multiplicity
  _atom_site_fract_x
  _atom_site_fract_y
  _atom_site_fract_z
  _atom_site_occupancy
  I   I1        1.0  0.7197403311729431  0.24107691645622253  0.9926602244377136  1.0000
  I   I2        1.0  0.7264057993888855  0.8582202196121216  0.5793851613998413  1.0000
  I   I3        1.0  0.22433894872665405  0.3173689544200897  0.9669251441955566  1.0000
  I   I4        1.0  0.22663693130016327  0.37546849250793457  0.5918426513671875  1.0000
  I   I5        1.0  0.7205314040184021  0.19317220151424408  0.4532341957092285  1.0000
  P   P1        1.0  0.9987389445304871  0.4702427089214325  0.5801651477813721  1.0000
  Pr  Pr1       1.0  0.724890947341919  0.6993467211723328  0.3463393747806549  1.0000
  Si  Si1       1.0  0.22784870862960815  0.6459389328956604  0.641674816608429  1.0000
  Si  Si2       1.0  0.7303084135055542  0.9436033964157104  0.024851405993104005  1.0000
  Si  Si3       1.0  0.7262593507766724  0.33771970868110657  0.6278578639030457  1.0000
  Si  Si4       1.0  0.19597099721431732  0.5541384816169739  0.46877580881118774  1.0000
  Si  Si5       1.0  0.4671616852283478  0.7978598475456238  0.8441817164421082  1.0000
  Si  Si6       1.0  0.7216519713401794  0.6176882386207581  0.3283439874649048  1.0000
