data_image0
_chemical_formula_structural       BiFI5Tb4
_chemical_formula_sum              "Bi1 F1 I5 Tb4"
_cell_length_a       7.487368798611997
_cell_length_b       7.769527347021393
_cell_length_c       8.908172607421875
_cell_angle_alpha    74.75817133309614
_cell_angle_beta     68.18976258288764
_cell_angle_gamma    61.04698472610058

_space_group_name_H-M_alt    "P 1"
_space_group_IT_number       1

loop_
  _space_group_symop_operation_xyz
  'x, y, z'

loop_
  _atom_site_type_symbol
  _atom_site_label
  _atom_site_symmetry_multiplicity
  _atom_site_fract_x
  _atom_site_fract_y
  _atom_site_fract_z
  _atom_site_occupancy
  Bi  Bi1       1.0  0.2551111578941345  0.31045690178871155  0.261110782623291  1.0000
  F   F1        1.0  0.4365545809268952  0.5005577206611633  0.34873995184898376  1.0000
  I   I1        1.0  0.19624255597591395  0.6305649280548097  0.6008147597312927  1.0000
  I   I2        1.0  0.39553779363632197  0.7479389309883119  0.4851636588573456  1.0000
  I   I3        1.0  0.14940661191940308  0.6030704379081726  0.7110939621925354  1.0000
  I   I4        1.0  0.7301969528198243  0.44797486066818243  0.08933448791503906  1.0000
  I   I5        1.0  0.9651021957397462  0.2156014144420624  0.08391520380973816  1.0000
  Tb  Tb1       1.0  0.9689056277275087  0.7076983451843263  0.8325303792953491  1.0000
  Tb  Tb2       1.0  0.526822030544281  0.7266291975975038  0.0893828496336937  1.0000
  Tb  Tb3       1.0  0.95324444770813  0.17040525376796725  0.8444337248802185  1.0000
  Tb  Tb4       1.0  0.3314605355262757  0.12585489451885223  0.4759218692779541  1.0000
