data_image0
_chemical_formula_structural       FeI5Tb5
_chemical_formula_sum              "Fe1 I5 Tb5"
_cell_length_a       6.659264517985859
_cell_length_b       8.909478819498062
_cell_length_c       10.199431419372559
_cell_angle_alpha    121.0814397560385
_cell_angle_beta     90.44483745397447
_cell_angle_gamma    89.67114559175357

_space_group_name_H-M_alt    "P 1"
_space_group_IT_number       1

loop_
  _space_group_symop_operation_xyz
  'x, y, z'

loop_
  _atom_site_type_symbol
  _atom_site_label
  _atom_site_symmetry_multiplicity
  _atom_site_fract_x
  _atom_site_fract_y
  _atom_site_fract_z
  _atom_site_occupancy
  Fe  Fe1       1.0  0.8612169027328491  0.2429642528295517  0.9864891171455382  1.0000
  I   I1        1.0  0.39069825410842896  0.7703113555908203  0.6372628211975098  1.0000
  I   I2        1.0  0.3891358971595764  0.49479106068611145  0.3953497111797333  1.0000
  I   I3        1.0  0.390453577041626  0.9910662174224854  0.9908151626586913  1.0000
  I   I4        1.0  0.8953880071640015  0.058559272438287735  0.1107283979654312  1.0000
  I   I5        1.0  0.8930612206459045  0.6768099069595337  0.10808326303958883  1.0000
  Tb  Tb1       1.0  0.39288488030433655  0.5064722299575806  0.8502150177955627  1.0000
  Tb  Tb2       1.0  0.8939760327339172  0.41556185483932495  0.7418189644813538  1.0000
  Tb  Tb3       1.0  0.8927730321884155  0.8032881021499634  0.3994777500629425  1.0000
  Tb  Tb4       1.0  0.8948352932929993  0.4063172936439514  0.9123845100402831  1.0000
  Tb  Tb5       1.0  0.49687209725379944  0.9878506064414978  0.8684898018836975  1.0000
