data_image0
_chemical_formula_structural       I3Tb8
_chemical_formula_sum              "I3 Tb8"
_cell_length_a       6.277983318692298
_cell_length_b       7.6205766293432715
_cell_length_c       8.504652976989746
_cell_angle_alpha    124.27546707613018
_cell_angle_beta     90.86497157051656
_cell_angle_gamma    89.32856813564779

_space_group_name_H-M_alt    "P 1"
_space_group_IT_number       1

loop_
  _space_group_symop_operation_xyz
  'x, y, z'

loop_
  _atom_site_type_symbol
  _atom_site_label
  _atom_site_symmetry_multiplicity
  _atom_site_fract_x
  _atom_site_fract_y
  _atom_site_fract_z
  _atom_site_occupancy
  I   I1        1.0  0.8307730555534363  0.6333572864532471  0.35803446173667913  1.0000
  I   I2        1.0  0.3407817780971527  0.7995302677154541  0.0290442612022162  1.0000
  I   I3        1.0  0.34534376859664917  0.08013778179883957  0.16667012870311737  1.0000
  Tb  Tb1       1.0  0.849735677242279  0.5503641963005066  0.5511491298675537  1.0000
  Tb  Tb2       1.0  0.8275495767593384  0.754282534122467  0.3738874197006226  1.0000
  Tb  Tb3       1.0  0.0748380646109581  0.3840843737125397  0.24399344623088837  1.0000
  Tb  Tb4       1.0  0.5934300422668457  0.29138606786727905  0.878851056098938  1.0000
  Tb  Tb5       1.0  0.8370471000671387  0.5341243743896484  0.7494029402732849  1.0000
  Tb  Tb6       1.0  0.12067989259958267  0.18795712292194366  0.9947643280029297  1.0000
  Tb  Tb7       1.0  0.3502902090549469  0.16673463582992554  0.6795595288276672  1.0000
  Tb  Tb8       1.0  0.3406279981136322  0.8012815117835999  0.36910820007324224  1.0000
