data_image0
_chemical_formula_structural       I3Tb8
_chemical_formula_sum              "I3 Tb8"
_cell_length_a       7.131106614109172
_cell_length_b       7.825125288109816
_cell_length_c       8.829484939575195
_cell_angle_alpha    122.2516603357106
_cell_angle_beta     92.45521173920666
_cell_angle_gamma    89.52979100586916

_space_group_name_H-M_alt    "P 1"
_space_group_IT_number       1

loop_
  _space_group_symop_operation_xyz
  'x, y, z'

loop_
  _atom_site_type_symbol
  _atom_site_label
  _atom_site_symmetry_multiplicity
  _atom_site_fract_x
  _atom_site_fract_y
  _atom_site_fract_z
  _atom_site_occupancy
  I   I1        1.0  0.0914950966835022  0.8225448727607727  0.8742262125015259  1.0000
  I   I2        1.0  0.08934582769870758  0.11631559580564499  0.5077077150344849  1.0000
  I   I3        1.0  0.089790478348732  0.5599597692489624  0.14932928979396826  1.0000
  Tb  Tb1       1.0  0.5904993414878845  0.34077557921409607  0.5042389035224915  1.0000
  Tb  Tb2       1.0  0.09075000137090683  0.7795599699020386  0.02806895412504673  1.0000
  Tb  Tb3       1.0  0.5899713039398193  0.29240238666534424  0.4378683865070343  1.0000
  Tb  Tb4       1.0  0.5894626379013062  0.254538357257843  0.5421947240829468  1.0000
  Tb  Tb5       1.0  0.09188058227300644  0.6500874757766724  0.5259423851966858  1.0000
  Tb  Tb6       1.0  0.5888104438781738  0.5839561223983765  0.9751156568527222  1.0000
  Tb  Tb7       1.0  0.8272692561149597  0.12952496111392975  0.14346270263195038  1.0000
  Tb  Tb8       1.0  0.5884260535240173  0.5902262926101685  0.015526090748608112  1.0000
