data_image0
_chemical_formula_structural       I5Tb6
_chemical_formula_sum              "I5 Tb6"
_cell_length_a       8.663174029136945
_cell_length_b       8.324791871766461
_cell_length_c       8.922530174255371
_cell_angle_alpha    83.8765896208137
_cell_angle_beta     69.86583947539941
_cell_angle_gamma    65.74706098165419

_space_group_name_H-M_alt    "P 1"
_space_group_IT_number       1

loop_
  _space_group_symop_operation_xyz
  'x, y, z'

loop_
  _atom_site_type_symbol
  _atom_site_label
  _atom_site_symmetry_multiplicity
  _atom_site_fract_x
  _atom_site_fract_y
  _atom_site_fract_z
  _atom_site_occupancy
  I   I1        1.0  0.5111392736434937  0.5182029604911804  0.6244215369224548  1.0000
  I   I2        1.0  0.4108148217201233  0.12243706732988358  0.498014897108078  1.0000
  I   I3        1.0  0.2723619341850281  0.29130586981773376  0.054604016244411496  1.0000
  I   I4        1.0  0.5117928981781006  0.8569328188896179  0.9964348077774048  1.0000
  I   I5        1.0  0.6608622670173645  0.21660053730010986  0.8033265471458435  1.0000
  Tb  Tb1       1.0  0.515244722366333  0.16465739905834198  0.546056866645813  1.0000
  Tb  Tb2       1.0  0.7591937184333801  0.49285888671875  0.4901237189769745  1.0000
  Tb  Tb3       1.0  0.26394280791282654  0.9234709739685059  0.00830551795661447  1.0000
  Tb  Tb4       1.0  0.01233701966702938  0.8198552131652832  0.6790199279785156  1.0000
  Tb  Tb5       1.0  0.015866586938500404  0.7349668145179749  0.6476166248321533  1.0000
  Tb  Tb6       1.0  0.037730615586042404  0.27676627039909363  0.2965375483036041  1.0000
