data_image0
_chemical_formula_structural       I4Tb7
_chemical_formula_sum              "I4 Tb7"
_cell_length_a       6.970589377989639
_cell_length_b       8.434287848148923
_cell_length_c       9.124364852905273
_cell_angle_alpha    119.14185818327402
_cell_angle_beta     96.11191445065516
_cell_angle_gamma    90.530525488149

_space_group_name_H-M_alt    "P 1"
_space_group_IT_number       1

loop_
  _space_group_symop_operation_xyz
  'x, y, z'

loop_
  _atom_site_type_symbol
  _atom_site_label
  _atom_site_symmetry_multiplicity
  _atom_site_fract_x
  _atom_site_fract_y
  _atom_site_fract_z
  _atom_site_occupancy
  I   I1        1.0  0.5496614575386047  0.45540186762809753  0.7296879291534424  1.0000
  I   I2        1.0  0.5525351166725159  0.6924424767494202  0.7535591125488281  1.0000
  I   I3        1.0  0.050865691155195236  0.4340343177318573  0.13020916283130643  1.0000
  I   I4        1.0  0.054522037506103516  0.08647562563419342  0.6689751744270325  1.0000
  Tb  Tb1       1.0  0.5564181804656982  0.5183597207069397  0.8363178372383118  1.0000
  Tb  Tb2       1.0  0.5606942772865295  0.8694069385528564  0.8604090213775635  1.0000
  Tb  Tb3       1.0  0.544671893119812  0.9341288208961487  0.5185211896896362  1.0000
  Tb  Tb4       1.0  0.05688468739390373  0.585326611995697  0.18359510600566858  1.0000
  Tb  Tb5       1.0  0.5611615180969238  0.849657416343689  0.3158589601516723  1.0000
  Tb  Tb6       1.0  0.5565201044082642  0.057852331548929214  0.922275960445404  1.0000
  Tb  Tb7       1.0  0.8932552933692932  0.16058029234409332  0.2681131660938263  1.0000
