data_image0
_chemical_formula_structural       PTiZr9
_chemical_formula_sum              "P1 Ti1 Zr9"
_cell_length_a       5.510693319553215
_cell_length_b       6.704300823430692
_cell_length_c       7.9794487953186035
_cell_angle_alpha    121.11416660462599
_cell_angle_beta     104.23368627758259
_cell_angle_gamma    85.61068390797953

_space_group_name_H-M_alt    "P 1"
_space_group_IT_number       1

loop_
  _space_group_symop_operation_xyz
  'x, y, z'

loop_
  _atom_site_type_symbol
  _atom_site_label
  _atom_site_symmetry_multiplicity
  _atom_site_fract_x
  _atom_site_fract_y
  _atom_site_fract_z
  _atom_site_occupancy
  P   P1        1.0  0.17084473371505737  0.9787471890449524  0.9274495840072632  1.0000
  Ti  Ti1       1.0  0.19066666066646576  0.23965515196323395  0.7109955549240112  1.0000
  Zr  Zr1       1.0  0.9562107920646667  0.6262342929840088  0.780282199382782  1.0000
  Zr  Zr2       1.0  0.3428269028663635  0.6991249322891235  0.28202584385871887  1.0000
  Zr  Zr3       1.0  0.419026643037796  0.0827300176024437  0.905924379825592  1.0000
  Zr  Zr4       1.0  0.9406216144561768  0.9746792316436768  0.86236572265625  1.0000
  Zr  Zr5       1.0  0.4330398738384247  0.750876784324646  0.9810279607772827  1.0000
  Zr  Zr6       1.0  0.8963425755500793  0.7204039692878723  0.8608932495117188  1.0000
  Zr  Zr7       1.0  0.9605448246002197  0.3111642897129059  0.12455497682094574  1.0000
  Zr  Zr8       1.0  0.9494551420211792  0.9374162554740906  0.5766656398773193  1.0000
  Zr  Zr9       1.0  0.45248112082481384  0.08187001943588257  0.45352184772491455  1.0000
