data_image0
_chemical_formula_structural       IPbZr9
_chemical_formula_sum              "I1 Pb1 Zr9"
_cell_length_a       5.110118081530013
_cell_length_b       4.859820254243572
_cell_length_c       9.418537139892578
_cell_angle_alpha    112.58760984613323
_cell_angle_beta     109.44018236933576
_cell_angle_gamma    90.22261499443594

_space_group_name_H-M_alt    "P 1"
_space_group_IT_number       1

loop_
  _space_group_symop_operation_xyz
  'x, y, z'

loop_
  _atom_site_type_symbol
  _atom_site_label
  _atom_site_symmetry_multiplicity
  _atom_site_fract_x
  _atom_site_fract_y
  _atom_site_fract_z
  _atom_site_occupancy
  I   I1        1.0  0.19292594492435455  0.98858243227005  0.6209184527397156  1.0000
  Pb  Pb1       1.0  0.5978424549102783  0.6655700206756592  0.8813959360122681  1.0000
  Zr  Zr1       1.0  0.11314336955547333  0.4841531813144684  0.08823496103286746  1.0000
  Zr  Zr2       1.0  0.6193935871124268  0.22410184144973755  0.47062474489212036  1.0000
  Zr  Zr3       1.0  0.8703958988189697  0.5520227551460266  0.8978593349456787  1.0000
  Zr  Zr4       1.0  0.12148863077163696  0.11387327313423157  0.6628943681716919  1.0000
  Zr  Zr5       1.0  0.8600944876670837  0.6658073663711548  0.7181167006492615  1.0000
  Zr  Zr6       1.0  0.8512449860572815  0.9037294983863831  0.4007023870944977  1.0000
  Zr  Zr7       1.0  0.6209462285041809  0.4588261544704437  0.6111219525337219  1.0000
  Zr  Zr8       1.0  0.11726521700620651  0.051141370087862015  0.4272683262825012  1.0000
  Zr  Zr9       1.0  0.3727946877479553  0.5313001275062561  0.6747976541519165  1.0000
