data_image0
_chemical_formula_structural       TiZr10
_chemical_formula_sum              "Ti1 Zr10"
_cell_length_a       5.20441432138701
_cell_length_b       5.880409789328494
_cell_length_c       5.553250312805176
_cell_angle_alpha    127.82141998264657
_cell_angle_beta     100.42943384376514
_cell_angle_gamma    94.75695352023298

_space_group_name_H-M_alt    "P 1"
_space_group_IT_number       1

loop_
  _space_group_symop_operation_xyz
  'x, y, z'

loop_
  _atom_site_type_symbol
  _atom_site_label
  _atom_site_symmetry_multiplicity
  _atom_site_fract_x
  _atom_site_fract_y
  _atom_site_fract_z
  _atom_site_occupancy
  Ti  Ti1       1.0  0.5423876643180847  0.9098606109619141  0.41987112164497375  1.0000
  Zr  Zr1       1.0  0.5382546782493591  0.5813738107681274  0.35308897495269775  1.0000
  Zr  Zr2       1.0  0.038162779062986374  0.5580541491508484  0.6318249106407167  1.0000
  Zr  Zr3       1.0  0.03789006918668747  0.9144260287284851  0.22184228897094727  1.0000
  Zr  Zr4       1.0  0.039262574166059494  0.6006428599357605  0.9611012935638428  1.0000
  Zr  Zr5       1.0  0.5392698049545288  0.5467569828033447  0.15826667845249176  1.0000
  Zr  Zr6       1.0  0.03306332230567932  0.09537879377603531  0.5061569809913635  1.0000
  Zr  Zr7       1.0  0.5265918970108032  0.16778799891471863  0.6966269016265869  1.0000
  Zr  Zr8       1.0  0.5385281443595886  0.8600309491157532  0.6150047779083252  1.0000
  Zr  Zr9       1.0  0.03818247839808464  0.5404888391494751  0.9686848521232605  1.0000
  Zr  Zr10      1.0  0.035379454493522644  0.2565245032310486  0.8694821000099182  1.0000
