data_image0
_chemical_formula_structural       Ti2Zr9
_chemical_formula_sum              "Ti2 Zr9"
_cell_length_a       3.766793489388118
_cell_length_b       6.898133805436272
_cell_length_c       6.916769981384277
_cell_angle_alpha    122.21150272276417
_cell_angle_beta     95.55482536779829
_cell_angle_gamma    91.42852034560987

_space_group_name_H-M_alt    "P 1"
_space_group_IT_number       1

loop_
  _space_group_symop_operation_xyz
  'x, y, z'

loop_
  _atom_site_type_symbol
  _atom_site_label
  _atom_site_symmetry_multiplicity
  _atom_site_fract_x
  _atom_site_fract_y
  _atom_site_fract_z
  _atom_site_occupancy
  Ti  Ti1       1.0  0.9735303521156311  0.42057058215141296  0.047681245952844654  1.0000
  Ti  Ti2       1.0  0.2015945315361023  0.7123154401779175  0.8300948143005371  1.0000
  Zr  Zr1       1.0  0.47354039549827576  0.31874963641166687  0.7826476097106934  1.0000
  Zr  Zr2       1.0  0.9720802903175354  0.3698303997516632  0.48882853984832764  1.0000
  Zr  Zr3       1.0  0.47310516238212585  0.3021022081375122  0.020471258088946342  1.0000
  Zr  Zr4       1.0  0.9718973636627197  0.8335225582122803  0.824173092842102  1.0000
  Zr  Zr5       1.0  0.46970227360725403  0.25611695647239685  0.17439645528793335  1.0000
  Zr  Zr6       1.0  0.9698612689971924  0.9313147664070129  0.1857628226280213  1.0000
  Zr  Zr7       1.0  0.4732908606529236  0.54897141456604  0.643924355506897  1.0000
  Zr  Zr8       1.0  0.9719812273979187  0.8472796678543091  0.32851824164390564  1.0000
  Zr  Zr9       1.0  0.9745380878448486  0.7200744152069092  0.5773181319236756  1.0000
