data_image0
_chemical_formula_structural       As2PZnZr7
_chemical_formula_sum              "As2 P1 Zn1 Zr7"
_cell_length_a       5.619079427414634
_cell_length_b       7.497821152495429
_cell_length_c       8.420737266540527
_cell_angle_alpha    121.88142505251147
_cell_angle_beta     91.37510112489146
_cell_angle_gamma    89.09332797854998

_space_group_name_H-M_alt    "P 1"
_space_group_IT_number       1

loop_
  _space_group_symop_operation_xyz
  'x, y, z'

loop_
  _atom_site_type_symbol
  _atom_site_label
  _atom_site_symmetry_multiplicity
  _atom_site_fract_x
  _atom_site_fract_y
  _atom_site_fract_z
  _atom_site_occupancy
  As  As1       1.0  0.6698307394981384  0.8644654154777527  0.056111179292201996  1.0000
  As  As2       1.0  0.9095509648323059  0.30668002367019653  0.9226943850517273  1.0000
  P   P1        1.0  0.6877254843711853  0.6869146823883057  0.5073975324630737  1.0000
  Zn  Zn1       1.0  0.671688973903656  0.13838329911231995  0.3903080224990845  1.0000
  Zr  Zr1       1.0  0.1800411194562912  0.9140993356704712  0.007262770086526924  1.0000
  Zr  Zr2       1.0  0.4258939027786255  0.6114803552627563  0.6122528910636902  1.0000
  Zr  Zr3       1.0  0.6819818019866943  0.9112797975540161  0.06499997526407242  1.0000
  Zr  Zr4       1.0  0.1789671629667282  0.3338395953178406  0.4203881025314331  1.0000
  Zr  Zr5       1.0  0.43021705746650696  0.7110936641693115  0.8583506941795349  1.0000
  Zr  Zr6       1.0  0.18092547357082367  0.19560782611370087  0.5284172296524048  1.0000
  Zr  Zr7       1.0  0.17472225427627563  0.883324921131134  0.030671752989292197  1.0000
