data_image0
_chemical_formula_structural       As2TiZn2Zr6
_chemical_formula_sum              "As2 Ti1 Zn2 Zr6"
_cell_length_a       5.536952944874302
_cell_length_b       5.355765665577507
_cell_length_c       6.1509599685668945
_cell_angle_alpha    112.70754198507133
_cell_angle_beta     90.86391067107455
_cell_angle_gamma    92.71141490038724

_space_group_name_H-M_alt    "P 1"
_space_group_IT_number       1

loop_
  _space_group_symop_operation_xyz
  'x, y, z'

loop_
  _atom_site_type_symbol
  _atom_site_label
  _atom_site_symmetry_multiplicity
  _atom_site_fract_x
  _atom_site_fract_y
  _atom_site_fract_z
  _atom_site_occupancy
  As  As1       1.0  0.7642439007759094  0.6613043546676636  0.8614726066589355  1.0000
  As  As2       1.0  0.7819197177886963  0.3495834469795227  0.3349883258342743  1.0000
  Ti  Ti1       1.0  0.7758616805076599  0.9172179698944092  0.9188855886459351  1.0000
  Zn  Zn1       1.0  0.26246047019958496  0.6800074577331543  0.44761234521865845  1.0000
  Zn  Zn2       1.0  0.26338738203048706  0.428620308637619  0.037687599658966064  1.0000
  Zr  Zr1       1.0  0.27007052302360535  0.030306730419397354  0.4200882315635681  1.0000
  Zr  Zr2       1.0  0.7747352719306946  0.9972867369651794  0.5902834534645081  1.0000
  Zr  Zr3       1.0  0.2711867392063141  0.9742157459259033  0.725946307182312  1.0000
  Zr  Zr4       1.0  0.7732252478599548  0.4026211202144623  0.9970005750656128  1.0000
  Zr  Zr5       1.0  0.266071617603302  0.5044695138931274  0.2608352601528168  1.0000
  Zr  Zr6       1.0  0.7666596174240112  0.7190752029418945  0.5457743406295776  1.0000
