data_image0
_chemical_formula_structural       GeOPRb7
_chemical_formula_sum              "Ge1 O1 P1 Rb7"
_cell_length_a       5.290528055150214
_cell_length_b       6.278348850020513
_cell_length_c       9.448383331298828
_cell_angle_alpha    90.10251150439409
_cell_angle_beta     89.96159924780773
_cell_angle_gamma    89.50738936035917

_space_group_name_H-M_alt    "P 1"
_space_group_IT_number       1

loop_
  _space_group_symop_operation_xyz
  'x, y, z'

loop_
  _atom_site_type_symbol
  _atom_site_label
  _atom_site_symmetry_multiplicity
  _atom_site_fract_x
  _atom_site_fract_y
  _atom_site_fract_z
  _atom_site_occupancy
  Ge  Ge1       1.0  0.9217143654823303  0.6409770250320435  0.6740738749504089  1.0000
  O   O1        1.0  0.4309041500091553  0.24614062905311584  0.14042514562606812  1.0000
  P   P1        1.0  0.9123232960700989  0.6039972901344299  0.5490546822547913  1.0000
  Rb  Rb1       1.0  0.4100744128227234  0.8692755699157715  0.9726225733757019  1.0000
  Rb  Rb2       1.0  0.9097023010253906  0.8818724155426025  0.6136385798454285  1.0000
  Rb  Rb3       1.0  0.40955251455307007  0.08663584291934967  0.06640423834323883  1.0000
  Rb  Rb4       1.0  0.9188822507858276  0.6928797364234924  0.3416881263256073  1.0000
  Rb  Rb5       1.0  0.4106729328632355  0.3523250222206116  0.39992305636405945  1.0000
  Rb  Rb6       1.0  0.4164443612098694  0.7574381828308105  0.43707114458084106  1.0000
  Rb  Rb7       1.0  0.9181013703346252  0.6929135918617249  0.3295557498931885  1.0000
