data_image0
_chemical_formula_structural       As2DyGe3Rb4
_chemical_formula_sum              "As2 Dy1 Ge3 Rb4"
_cell_length_a       6.4566161148426096
_cell_length_b       6.766553491088301
_cell_length_c       9.650527954101562
_cell_angle_alpha    90.00504518972782
_cell_angle_beta     89.91644384039256
_cell_angle_gamma    99.63923659175965

_space_group_name_H-M_alt    "P 1"
_space_group_IT_number       1

loop_
  _space_group_symop_operation_xyz
  'x, y, z'

loop_
  _atom_site_type_symbol
  _atom_site_label
  _atom_site_symmetry_multiplicity
  _atom_site_fract_x
  _atom_site_fract_y
  _atom_site_fract_z
  _atom_site_occupancy
  As  As1       1.0  0.4403480887413025  0.6755580902099609  0.7307804226875305  1.0000
  As  As2       1.0  0.9067714214324951  0.8896516561508179  0.5411316752433777  1.0000
  Dy  Dy1       1.0  0.9417868852615356  0.5273569226264954  0.8271186947822571  1.0000
  Ge  Ge1       1.0  0.9310169219970703  0.855617344379425  0.2159171998500824  1.0000
  Ge  Ge2       1.0  0.9304244518280029  0.43869879841804504  0.14571994543075562  1.0000
  Ge  Ge3       1.0  0.43261727690696716  0.2632236182689667  0.27996233105659485  1.0000
  Rb  Rb1       1.0  0.43318313360214233  0.2019181251525879  0.07192983478307724  1.0000
  Rb  Rb2       1.0  0.4186020791530609  0.7643765211105347  0.08277297765016556  1.0000
  Rb  Rb3       1.0  0.9194045066833496  0.28946030139923096  0.04193434491753578  1.0000
  Rb  Rb4       1.0  0.4203853905200958  0.04218098148703575  0.9005010724067688  1.0000
