data_image0
_chemical_formula_structural       GeORb7U
_chemical_formula_sum              "Ge1 O1 Rb7 U1"
_cell_length_a       5.308667849289268
_cell_length_b       6.161491006221215
_cell_length_c       7.7617387771606445
_cell_angle_alpha    97.72227437648742
_cell_angle_beta     88.4238110977974
_cell_angle_gamma    81.01652702671733

_space_group_name_H-M_alt    "P 1"
_space_group_IT_number       1

loop_
  _space_group_symop_operation_xyz
  'x, y, z'

loop_
  _atom_site_type_symbol
  _atom_site_label
  _atom_site_symmetry_multiplicity
  _atom_site_fract_x
  _atom_site_fract_y
  _atom_site_fract_z
  _atom_site_occupancy
  Ge  Ge1       1.0  0.9674068689346313  0.9509514570236207  0.21559444069862366  1.0000
  O   O1        1.0  0.4165518283843994  0.5662873983383179  0.812846839427948  1.0000
  Rb  Rb1       1.0  0.9863783121109009  0.618257999420166  0.6820905804634094  1.0000
  Rb  Rb2       1.0  0.47810080647468567  0.33021554350852966  0.6404637098312378  1.0000
  Rb  Rb3       1.0  0.9730943441390991  0.4599676728248597  0.23131820559501648  1.0000
  Rb  Rb4       1.0  0.4779759347438812  0.6484435200691223  0.9993939995765686  1.0000
  Rb  Rb5       1.0  0.48079776763916016  0.9911388158798219  0.012948307208716883  1.0000
  Rb  Rb6       1.0  0.9765998721122742  0.18402698636054993  0.04054292291402817  1.0000
  Rb  Rb7       1.0  0.9763950109481812  0.03655919432640076  0.8960696458816528  1.0000
  U   U1        1.0  0.459828644990921  0.9624862074851991  0.7807212471961975  1.0000
