data_image0
_chemical_formula_structural       CuGe2HLuORb4
_chemical_formula_sum              "Cu1 Ge2 H1 Lu1 O1 Rb4"
_cell_length_a       5.654488335240896
_cell_length_b       5.5263650056379285
_cell_length_c       8.722426414489746
_cell_angle_alpha    90.19578923700584
_cell_angle_beta     89.46470685360383
_cell_angle_gamma    112.87158001532902

_space_group_name_H-M_alt    "P 1"
_space_group_IT_number       1

loop_
  _space_group_symop_operation_xyz
  'x, y, z'

loop_
  _atom_site_type_symbol
  _atom_site_label
  _atom_site_symmetry_multiplicity
  _atom_site_fract_x
  _atom_site_fract_y
  _atom_site_fract_z
  _atom_site_occupancy
  Cu  Cu1       1.0  0.5632745623588562  0.7072552442550659  0.9307742714881897  1.0000
  Ge  Ge1       1.0  0.5355374813079834  0.273345947265625  0.63958340883255  1.0000
  Ge  Ge2       1.0  0.05431899055838585  0.31958910822868347  0.22782179713249207  1.0000
  H   H1        1.0  0.0027474164962768555  0.655348539352417  0.009159183129668236  1.0000
  Lu  Lu1       1.0  0.6782681345939636  0.35513076186180115  0.36251282691955566  1.0000
  O   O1        1.0  0.2946763336658478  0.32963263988494873  0.686384916305542  1.0000
  Rb  Rb1       1.0  0.029442492872476578  0.3873349726200104  0.4971166253089905  1.0000
  Rb  Rb2       1.0  0.5262060761451721  0.6346021890640259  0.3601483404636383  1.0000
  Rb  Rb3       1.0  0.023944921791553497  0.7429358959197998  0.6617910861968994  1.0000
  Rb  Rb4       1.0  0.004902243614196777  0.2806829512119293  0.5177299380302429  1.0000
