data_image0
_chemical_formula_structural       CuO3Rb6
_chemical_formula_sum              "Cu1 O3 Rb6"
_cell_length_a       6.227264550886997
_cell_length_b       6.468798968510463
_cell_length_c       8.59264087677002
_cell_angle_alpha    95.18619313429998
_cell_angle_beta     94.7457287265727
_cell_angle_gamma    113.76351288052471

_space_group_name_H-M_alt    "P 1"
_space_group_IT_number       1

loop_
  _space_group_symop_operation_xyz
  'x, y, z'

loop_
  _atom_site_type_symbol
  _atom_site_label
  _atom_site_symmetry_multiplicity
  _atom_site_fract_x
  _atom_site_fract_y
  _atom_site_fract_z
  _atom_site_occupancy
  Cu  Cu1       1.0  0.207053080201149  0.7834138870239258  0.23459061980247498  1.0000
  O   O1        1.0  0.22091127932071686  0.28469863533973694  0.09597860276699066  1.0000
  O   O2        1.0  0.7401347160339355  0.156515434384346  0.35330185294151306  1.0000
  O   O3        1.0  0.7417874932289124  0.33211633563041687  0.37908923625946045  1.0000
  Rb  Rb1       1.0  0.9599825739860535  0.08081609755754471  0.02323019877076149  1.0000
  Rb  Rb2       1.0  0.20552736520767212  0.3937215209007263  0.5829281210899353  1.0000
  Rb  Rb3       1.0  0.7043619751930237  0.21570463478565216  0.2263064682483673  1.0000
  Rb  Rb4       1.0  0.20957812666893005  0.4324280023574829  0.518761932849884  1.0000
  Rb  Rb5       1.0  0.7052598595619202  0.15180063247680664  0.20731490850448608  1.0000
  Rb  Rb6       1.0  0.44008123874664307  0.902749240398407  0.3386799097061157  1.0000
