data_image0
_chemical_formula_structural       CuO3Rb6
_chemical_formula_sum              "Cu1 O3 Rb6"
_cell_length_a       6.401620167530461
_cell_length_b       6.709387217940985
_cell_length_c       7.432348728179932
_cell_angle_alpha    116.28824931605682
_cell_angle_beta     117.4805905951268
_cell_angle_gamma    93.96749046119648

_space_group_name_H-M_alt    "P 1"
_space_group_IT_number       1

loop_
  _space_group_symop_operation_xyz
  'x, y, z'

loop_
  _atom_site_type_symbol
  _atom_site_label
  _atom_site_symmetry_multiplicity
  _atom_site_fract_x
  _atom_site_fract_y
  _atom_site_fract_z
  _atom_site_occupancy
  Cu  Cu1       1.0  0.25784578919410706  0.965793788433075  0.6378904581069946  1.0000
  O   O1        1.0  0.6106507182121277  0.8710156083106995  0.60732102394104  1.0000
  O   O2        1.0  0.8272585272789001  0.30279818177223206  0.40725409984588623  1.0000
  O   O3        1.0  0.5808146595954895  0.9802380800247192  0.14879667758941664  1.0000
  Rb  Rb1       1.0  0.24286593496799466  0.13781490921974182  0.7096391916275024  1.0000
  Rb  Rb2       1.0  0.7527728080749512  0.5646273493766785  0.29995137453079224  1.0000
  Rb  Rb3       1.0  0.4502931833267212  0.3357480466365814  0.4501127600669861  1.0000
  Rb  Rb4       1.0  0.9861530661582946  0.9502248167991638  0.39845040440559404  1.0000
  Rb  Rb5       1.0  0.7626951932907104  0.7812902331352234  0.09296825528144836  1.0000
  Rb  Rb6       1.0  0.759675920009613  0.4572502076625824  0.9748883843421936  1.0000
