data_image0
_chemical_formula_structural       CaGeHInPPdScSn
_chemical_formula_sum              "Ca1 Ge1 H1 In1 P1 Pd1 Sc1 Sn1"
_cell_length_a       5.538942625962575
_cell_length_b       5.496543560652617
_cell_length_c       5.662350654602051
_cell_angle_alpha    70.47903623330032
_cell_angle_beta     70.87999306791022
_cell_angle_gamma    70.39358781571157

_space_group_name_H-M_alt    "P 1"
_space_group_IT_number       1

loop_
  _space_group_symop_operation_xyz
  'x, y, z'

loop_
  _atom_site_type_symbol
  _atom_site_label
  _atom_site_symmetry_multiplicity
  _atom_site_fract_x
  _atom_site_fract_y
  _atom_site_fract_z
  _atom_site_occupancy
  Ca  Ca1       1.0  0.7705693244934082  0.36227837204933167  0.29373160004615784  1.0000
  Ge  Ge1       1.0  0.8318344950675964  0.7734221816062927  0.6236931085586548  1.0000
  H   H1        1.0  0.28407424688339233  0.17019003629684448  0.11014153808355331  1.0000
  In  In1       1.0  0.7727493047714233  0.9705982804298401  0.34763139486312866  1.0000
  P   P1        1.0  0.27105867862701416  0.49200618267059326  0.16228865087032318  1.0000
  Pd  Pd1       1.0  0.2655703127384186  0.8198210597038269  0.3305368423461914  1.0000
  Sc  Sc1       1.0  0.7718575596809387  0.64371258020401  0.03598417341709137  1.0000
  Sn  Sn1       1.0  0.33339497447013855  0.821764349937439  0.6060135960578918  1.0000
