data_image0
_chemical_formula_structural       B3Cu2Pd3
_chemical_formula_sum              "B3 Cu2 Pd3"
_cell_length_a       1.8570700401099227
_cell_length_b       4.1180628446714245
_cell_length_c       5.227446556091309
_cell_angle_alpha    89.2642342031277
_cell_angle_beta     99.56452946652321
_cell_angle_gamma    77.450566362488

_space_group_name_H-M_alt    "P 1"
_space_group_IT_number       1

loop_
  _space_group_symop_operation_xyz
  'x, y, z'

loop_
  _atom_site_type_symbol
  _atom_site_label
  _atom_site_symmetry_multiplicity
  _atom_site_fract_x
  _atom_site_fract_y
  _atom_site_fract_z
  _atom_site_occupancy
  B   B1        1.0  0.3963824212551117  0.4942948818206787  0.9641253352165222  1.0000
  B   B2        1.0  0.3981401026248932  0.4341903328895569  0.7264929413795471  1.0000
  B   B3        1.0  0.3918551504611969  0.9236425757408142  0.1259646713733673  1.0000
  Cu  Cu1       1.0  0.38922786712646484  0.180463507771492  0.04013607278466225  1.0000
  Cu  Cu2       1.0  0.8921482563018799  0.09241531044244766  0.9567070603370667  1.0000
  Pd  Pd1       1.0  0.39128586649894714  0.6190757751464844  0.6172233819961548  1.0000
  Pd  Pd2       1.0  0.8980379700660706  0.973304808139801  0.20063209533691406  1.0000
  Pd  Pd3       1.0  0.8935284614562988  0.8706571459770203  0.6188718676567079  1.0000
