data_image0
_chemical_formula_structural       B2HPPd4
_chemical_formula_sum              "B2 H1 P1 Pd4"
_cell_length_a       5.614877704221831
_cell_length_b       5.269617130273969
_cell_length_c       5.599412441253662
_cell_angle_alpha    57.651842741640095
_cell_angle_beta     63.794672810420884
_cell_angle_gamma    58.64540472505817

_space_group_name_H-M_alt    "P 1"
_space_group_IT_number       1

loop_
  _space_group_symop_operation_xyz
  'x, y, z'

loop_
  _atom_site_type_symbol
  _atom_site_label
  _atom_site_symmetry_multiplicity
  _atom_site_fract_x
  _atom_site_fract_y
  _atom_site_fract_z
  _atom_site_occupancy
  B   B1        1.0  0.10867594182491302  0.9430955648422241  0.06404131650924683  1.0000
  B   B2        1.0  0.7376629710197449  0.3942466080188751  0.11095020174980164  1.0000
  H   H1        1.0  0.7815384864807129  0.4358389675617218  0.8424093723297119  1.0000
  P   P1        1.0  0.08497188240289688  0.9904705286026001  0.4047630727291107  1.0000
  Pd  Pd1       1.0  0.24836507439613342  0.6562783718109131  0.5977178812026978  1.0000
  Pd  Pd2       1.0  0.9783229231834412  0.25865423679351807  0.6010708808898926  1.0000
  Pd  Pd3       1.0  0.5972073674201965  0.4512302279472351  0.39182475209236145  1.0000
  Pd  Pd4       1.0  0.6039615273475647  0.17902538180351257  0.8995137810707092  1.0000
