data_image0
_chemical_formula_structural       B3Cu2Pd3
_chemical_formula_sum              "B3 Cu2 Pd3"
_cell_length_a       4.203171157815482
_cell_length_b       3.99754358580836
_cell_length_c       4.749602794647217
_cell_angle_alpha    71.23114188848007
_cell_angle_beta     61.695971175466916
_cell_angle_gamma    60.414044666581574

_space_group_name_H-M_alt    "P 1"
_space_group_IT_number       1

loop_
  _space_group_symop_operation_xyz
  'x, y, z'

loop_
  _atom_site_type_symbol
  _atom_site_label
  _atom_site_symmetry_multiplicity
  _atom_site_fract_x
  _atom_site_fract_y
  _atom_site_fract_z
  _atom_site_occupancy
  B   B1        1.0  0.3119027614593505  0.6684981584548951  0.4536389410495758  1.0000
  B   B2        1.0  0.30763524770736694  0.26896336674690247  0.9017019271850586  1.0000
  B   B3        1.0  0.2776700556278228  0.9163591265678407  0.9887174963951111  1.0000
  Cu  Cu1       1.0  0.8017637729644774  0.8914926648139955  0.4003565311431885  1.0000
  Cu  Cu2       1.0  0.30073317885398865  0.26661840081214905  0.29274794459342957  1.0000
  Pd  Pd1       1.0  0.8024659156799315  0.7537705302238465  0.30128073692321783  1.0000
  Pd  Pd2       1.0  0.7916247248649596  0.3852656483650208  0.4202468991279602  1.0000
  Pd  Pd3       1.0  0.8203325271606444  0.112894743680954  0.13158403337001803  1.0000
