data_image0
_chemical_formula_structural       CCsGeILuPPb3SbSe
_chemical_formula_sum              "C1 Cs1 Ge1 I1 Lu1 P1 Pb3 Sb1 Se1"
_cell_length_a       6.842082665257989
_cell_length_b       7.018095239584019
_cell_length_c       10.408686637878418
_cell_angle_alpha    95.75378391586943
_cell_angle_beta     95.41903794132635
_cell_angle_gamma    90.54622187444902

_space_group_name_H-M_alt    "P 1"
_space_group_IT_number       1

loop_
  _space_group_symop_operation_xyz
  'x, y, z'

loop_
  _atom_site_type_symbol
  _atom_site_label
  _atom_site_symmetry_multiplicity
  _atom_site_fract_x
  _atom_site_fract_y
  _atom_site_fract_z
  _atom_site_occupancy
  C   C1        1.0  0.9137420058250427  0.24868427217006686  0.00588965043425561  1.0000
  Cs  Cs1       1.0  0.41049709916114807  0.4507471919059754  0.644191563129425  1.0000
  Ge  Ge1       1.0  0.42394742369651794  0.7248047590255738  0.662642240524292  1.0000
  I   I1        1.0  0.9042664766311646  0.8799409270286561  0.4741329848766327  1.0000
  Lu  Lu1       1.0  0.9374623894691467  0.6951020359992982  0.6434202194213867  1.0000
  P   P1        1.0  0.9303675889968872  0.12938229739665985  0.708905041217804  1.0000
  Pb  Pb1       1.0  0.40779703855514526  0.9959189295768739  0.4618523120880127  1.0000
  Pb  Pb2       1.0  0.4119318127632141  0.2845199704170227  0.9941997528076172  1.0000
  Pb  Pb3       1.0  0.36919930577278137  0.1903500705957413  0.5357934832572937  1.0000
  Sb  Sb1       1.0  0.9018414616584778  0.9935873150825502  0.2727811634540558  1.0000
  Se  Se1       1.0  0.41576138138771057  0.5916158556938171  0.13729548454284668  1.0000
