data_image0
_chemical_formula_structural       CdClCsGeI3Lu2TbZn
_chemical_formula_sum              "Cd1 Cl1 Cs1 Ge1 I3 Lu2 Tb1 Zn1"
_cell_length_a       7.663138399505588
_cell_length_b       7.638576748786313
_cell_length_c       8.038351058959961
_cell_angle_alpha    112.00307217263942
_cell_angle_beta     110.03996110378421
_cell_angle_gamma    110.86290061736689

_space_group_name_H-M_alt    "P 1"
_space_group_IT_number       1

loop_
  _space_group_symop_operation_xyz
  'x, y, z'

loop_
  _atom_site_type_symbol
  _atom_site_label
  _atom_site_symmetry_multiplicity
  _atom_site_fract_x
  _atom_site_fract_y
  _atom_site_fract_z
  _atom_site_occupancy
  Cd  Cd1       1.0  0.4395272135734558  0.18425308167934418  0.21624787151813507  1.0000
  Cl  Cl1       1.0  0.8889294862747192  0.9117614030838013  0.1829967200756073  1.0000
  Cs  Cs1       1.0  0.9467316269874573  0.11751647293567657  0.9250146150588989  1.0000
  Ge  Ge1       1.0  0.08707501739263535  0.44206610321998596  0.28780508041381836  1.0000
  I   I1        1.0  0.4609631299972534  0.6834598779678345  0.4342561364173889  1.0000
  I   I2        1.0  0.6815273761749268  0.44151464104652405  0.3114708662033081  1.0000
  I   I3        1.0  0.03176380693912506  0.6483762860298157  0.08491963893175122  1.0000
  Lu  Lu1       1.0  0.5662260055541992  0.2844005525112152  0.7063266038894653  1.0000
  Lu  Lu2       1.0  0.4164111018180847  0.6675888299942017  0.35668274760246277  1.0000
  Tb  Tb1       1.0  0.9308021068572998  0.7128831744194031  0.940271258354187  1.0000
  Zn  Zn1       1.0  0.7006322741508484  0.5509040951728821  0.9453656673431396  1.0000
