data_image0
_chemical_formula_structural       CdGaLu2PbPt3Sc2Tl
_chemical_formula_sum              "Cd1 Ga1 Lu2 Pb1 Pt3 Sc2 Tl1"
_cell_length_a       6.703479181686789
_cell_length_b       8.944266617739713
_cell_length_c       9.299068450927734
_cell_angle_alpha    125.65837062059796
_cell_angle_beta     90.0419765105355
_cell_angle_gamma    89.39580206428461

_space_group_name_H-M_alt    "P 1"
_space_group_IT_number       1

loop_
  _space_group_symop_operation_xyz
  'x, y, z'

loop_
  _atom_site_type_symbol
  _atom_site_label
  _atom_site_symmetry_multiplicity
  _atom_site_fract_x
  _atom_site_fract_y
  _atom_site_fract_z
  _atom_site_occupancy
  Cd  Cd1       1.0  0.18012513220310208  0.2921757996082306  0.7039616703987122  1.0000
  Ga  Ga1       1.0  0.17383424937725067  0.01792045310139656  0.6954751014709473  1.0000
  Lu  Lu1       1.0  0.17475390434265137  0.03246442601084709  0.5955262184143066  1.0000
  Lu  Lu2       1.0  0.6857993602752686  0.2747725248336792  0.6382355093955994  1.0000
  Pb  Pb1       1.0  0.6724739074707031  0.47868242859840393  0.3587441146373749  1.0000
  Pt  Pt1       1.0  0.17982389032840726  0.5423879623413086  0.9732336401939392  1.0000
  Pt  Pt2       1.0  0.67673259973526  0.4142143726348877  0.819524347782135  1.0000
  Pt  Pt3       1.0  0.17689116299152374  0.7214052677154541  0.09795168042182922  1.0000
  Sc  Sc1       1.0  0.18068230152130124  0.07384870946407318  0.539247453212738  1.0000
  Sc  Sc2       1.0  0.18904730677604673  0.3981575071811676  0.23520426452159882  1.0000
  Tl  Tl1       1.0  0.6846810579299927  0.2843352258205414  0.839971423149109  1.0000
