data_image0
_chemical_formula_structural       ClCsGe2I3ScSeTbZn
_chemical_formula_sum              "Cl1 Cs1 Ge2 I3 Sc1 Se1 Tb1 Zn1"
_cell_length_a       6.085741847463034
_cell_length_b       8.21866117061069
_cell_length_c       8.405061721801758
_cell_angle_alpha    121.64588759208108
_cell_angle_beta     90.0668494930916
_cell_angle_gamma    90.38637648144629

_space_group_name_H-M_alt    "P 1"
_space_group_IT_number       1

loop_
  _space_group_symop_operation_xyz
  'x, y, z'

loop_
  _atom_site_type_symbol
  _atom_site_label
  _atom_site_symmetry_multiplicity
  _atom_site_fract_x
  _atom_site_fract_y
  _atom_site_fract_z
  _atom_site_occupancy
  Cl  Cl1       1.0  0.8082771897315978  0.429268628358841  0.4120006561279297  1.0000
  Cs  Cs1       1.0  0.8218032717704772  0.8813981413841249  0.15116520226001745  1.0000
  Ge  Ge1       1.0  0.314019113779068  0.28836381435394287  0.8556118607521057  1.0000
  Ge  Ge2       1.0  0.8166603446006774  0.7231092453002931  0.04811646789312363  1.0000
  I   I1        1.0  0.3091031610965729  0.9576760530471803  0.03086925856769085  1.0000
  I   I2        1.0  0.3016650974750519  0.4705884456634522  0.9131286144256592  1.0000
  I   I3        1.0  0.816499888896942  0.14222200214862823  0.0769077017903328  1.0000
  Sc  Sc1       1.0  0.806861639022827  0.4158673286437989  0.5004862546920776  1.0000
  Se  Se1       1.0  0.8062374591827391  0.45199152827262884  0.4526887536048889  1.0000
  Tb  Tb1       1.0  0.7902557253837584  0.12814182043075562  0.6935513019561768  1.0000
  Zn  Zn1       1.0  0.8088521361351012  0.8548887372016908  0.2486818432807923  1.0000
