data_image0
_chemical_formula_structural       Cd9Cl2
_chemical_formula_sum              "Cd9 Cl2"
_cell_length_a       5.965955509093561
_cell_length_b       7.661977184964331
_cell_length_c       7.623546600341797
_cell_angle_alpha    115.70813981715737
_cell_angle_beta     88.97078554315512
_cell_angle_gamma    91.5703762544379

_space_group_name_H-M_alt    "P 1"
_space_group_IT_number       1

loop_
  _space_group_symop_operation_xyz
  'x, y, z'

loop_
  _atom_site_type_symbol
  _atom_site_label
  _atom_site_symmetry_multiplicity
  _atom_site_fract_x
  _atom_site_fract_y
  _atom_site_fract_z
  _atom_site_occupancy
  Cd  Cd1       1.0  0.6858517527580261  0.19941733777523044  0.8814237117767334  1.0000
  Cd  Cd2       1.0  0.18522575497627258  0.45982050895690924  0.759792149066925  1.0000
  Cd  Cd3       1.0  0.6873326301574707  0.7218998670578004  0.685603141784668  1.0000
  Cd  Cd4       1.0  0.19042155146598816  0.28412166237831116  0.9347389340400697  1.0000
  Cd  Cd5       1.0  0.6825847029685974  0.656147837638855  0.22737924754619598  1.0000
  Cd  Cd6       1.0  0.18449129164218903  0.8504622578620912  0.5537009239196777  1.0000
  Cd  Cd7       1.0  0.1871180385351181  0.7085706591606141  0.608782947063446  1.0000
  Cd  Cd8       1.0  0.1864328533411026  0.03732594475150108  0.4545462727546692  1.0000
  Cd  Cd9       1.0  0.686475932598114  0.009513513185083866  0.06172842159867287  1.0000
  Cl  Cl1       1.0  0.18801571428775787  0.19367706775665286  0.08848810940980913  1.0000
  Cl  Cl2       1.0  0.687479555606842  0.4806681871414185  0.050509944558143616  1.0000
