data_image0
_chemical_formula_structural       CaCd7Cl2Tb
_chemical_formula_sum              "Ca1 Cd7 Cl2 Tb1"
_cell_length_a       6.048703689722699
_cell_length_b       5.355104325946562
_cell_length_c       5.662024974822998
_cell_angle_alpha    71.29548284649134
_cell_angle_beta     82.87653103263064
_cell_angle_gamma    89.97709233157056

_space_group_name_H-M_alt    "P 1"
_space_group_IT_number       1

loop_
  _space_group_symop_operation_xyz
  'x, y, z'

loop_
  _atom_site_type_symbol
  _atom_site_label
  _atom_site_symmetry_multiplicity
  _atom_site_fract_x
  _atom_site_fract_y
  _atom_site_fract_z
  _atom_site_occupancy
  Ca  Ca1       1.0  0.5160254240036011  0.793646514415741  0.8537807464599609  1.0000
  Cd  Cd1       1.0  0.7177792191505432  0.6466506719589233  0.11934424936771393  1.0000
  Cd  Cd2       1.0  0.7479931116104126  0.14183002710342407  0.5411877632141113  1.0000
  Cd  Cd3       1.0  0.2169414460659027  0.8417901992797852  0.09653516113758087  1.0000
  Cd  Cd4       1.0  0.26020580530166626  0.9582403898239136  0.1722286492586136  1.0000
  Cd  Cd5       1.0  0.7315634489059448  0.42947307229042053  0.6170884370803833  1.0000
  Cd  Cd6       1.0  0.2495754361152649  0.5246461033821106  0.3635373115539551  1.0000
  Cd  Cd7       1.0  0.2850726246833801  0.05187651887536049  0.906647264957428  1.0000
  Cl  Cl1       1.0  0.7263272404670715  0.3848525583744049  0.5018280148506165  1.0000
  Cl  Cl2       1.0  0.030540453270077705  0.5245446562767029  0.40125155448913574  1.0000
  Tb  Tb1       1.0  0.2346838116645813  0.44069674611091614  0.9281920790672302  1.0000
