data_image0
_chemical_formula_structural       BCoGeHI3NaReSb
_chemical_formula_sum              "B1 Co1 Ge1 H1 I3 Na1 Re1 Sb1"
_cell_length_a       7.05837962354654
_cell_length_b       7.069516627826264
_cell_length_c       7.6432108879089355
_cell_angle_alpha    73.01771689470716
_cell_angle_beta     65.0869539835052
_cell_angle_gamma    60.59791647965571

_space_group_name_H-M_alt    "P 1"
_space_group_IT_number       1

loop_
  _space_group_symop_operation_xyz
  'x, y, z'

loop_
  _atom_site_type_symbol
  _atom_site_label
  _atom_site_symmetry_multiplicity
  _atom_site_fract_x
  _atom_site_fract_y
  _atom_site_fract_z
  _atom_site_occupancy
  B   B1        1.0  0.40320244431495667  0.5046756267547607  0.8408750891685487  1.0000
  Co  Co1       1.0  0.12704582512378693  0.787224531173706  0.15120749175548553  1.0000
  Ge  Ge1       1.0  0.14861802756786346  0.7120561003684998  0.7122846245765686  1.0000
  H   H1        1.0  0.637398898601532  0.7760691046714783  0.375377357006073  1.0000
  I   I1        1.0  0.6572561264038086  0.45981723070144653  0.8129711747169495  1.0000
  I   I2        1.0  0.15685296058654785  0.6583371758460999  0.44331091642379766  1.0000
  I   I3        1.0  0.823729395866394  0.35446107387542725  0.04467659816145897  1.0000
  Na  Na1       1.0  0.6276276707649231  0.3175635039806366  0.7877988815307617  1.0000
  Re  Re1       1.0  0.13983578979969025  0.09246817231178284  0.9066889286041261  1.0000
  Sb  Sb1       1.0  0.15955008566379547  0.9902492761611938  0.19295555353164673  1.0000
