data_image0
_chemical_formula_structural       Na3O3Re4
_chemical_formula_sum              "Na3 O3 Re4"
_cell_length_a       5.591633310030636
_cell_length_b       5.744298306793375
_cell_length_c       5.7431817054748535
_cell_angle_alpha    63.57439965404932
_cell_angle_beta     61.91164029701515
_cell_angle_gamma    60.45125522959524

_space_group_name_H-M_alt    "P 1"
_space_group_IT_number       1

loop_
  _space_group_symop_operation_xyz
  'x, y, z'

loop_
  _atom_site_type_symbol
  _atom_site_label
  _atom_site_symmetry_multiplicity
  _atom_site_fract_x
  _atom_site_fract_y
  _atom_site_fract_z
  _atom_site_occupancy
  Na  Na1       1.0  0.5296850800514221  0.4220355153083801  0.8081773519515991  1.0000
  Na  Na2       1.0  0.5005910992622375  0.27223989367485046  0.23615582287311554  1.0000
  Na  Na3       1.0  0.023011470213532448  0.5582288503646851  0.360259085893631  1.0000
  O   O1        1.0  0.9437793493270874  0.6023955941200256  0.9054016470909119  1.0000
  O   O2        1.0  0.10308200120925903  0.8771419525146484  0.2676973044872284  1.0000
  O   O3        1.0  0.47080305218696594  0.08667848259210587  0.938944935798645  1.0000
  Re  Re1       1.0  0.7235435247421265  0.12234335392713547  0.002835223451256752  1.0000
  Re  Re2       1.0  0.02640666253864765  0.12400929629802704  0.8318182826042175  1.0000
  Re  Re3       1.0  0.022606346756219864  0.5134514570236206  0.32057511806488037  1.0000
  Re  Re4       1.0  0.016512766480445862  0.35615217685699463  0.16912925243377686  1.0000
