data_image0
_chemical_formula_structural       InIrPPbRe3RuUW
_chemical_formula_sum              "In1 Ir1 P1 Pb1 Re3 Ru1 U1 W1"
_cell_length_a       5.575256598468751
_cell_length_b       6.6527818607831835
_cell_length_c       7.161539554595947
_cell_angle_alpha    113.66111447246011
_cell_angle_beta     87.67966574979123
_cell_angle_gamma    89.31931501406974

_space_group_name_H-M_alt    "P 1"
_space_group_IT_number       1

loop_
  _space_group_symop_operation_xyz
  'x, y, z'

loop_
  _atom_site_type_symbol
  _atom_site_label
  _atom_site_symmetry_multiplicity
  _atom_site_fract_x
  _atom_site_fract_y
  _atom_site_fract_z
  _atom_site_occupancy
  In  In1       1.0  0.008959777653217316  0.11518940329551697  0.6704164743423462  1.0000
  Ir  Ir1       1.0  0.5063714981079102  0.3362652063369751  0.18799397349357605  1.0000
  P   P1        1.0  0.005429531913250685  0.9181675314903259  0.37269851565361023  1.0000
  Pb  Pb1       1.0  0.5067728161811829  0.8348087072372437  0.07057003676891327  1.0000
  Re  Re1       1.0  0.00528407096862793  0.9492706656455994  0.20139248669147491  1.0000
  Re  Re2       1.0  0.5064295530319214  0.3360969126224518  0.7082750201225281  1.0000
  Re  Re3       1.0  0.5060562491416931  0.42133989930152893  0.6453894972801208  1.0000
  Ru  Ru1       1.0  0.004227147903293371  0.93894362449646  0.6827058792114258  1.0000
  U   U1        1.0  0.014880665577948093  0.04957224801182747  0.6015303730964661  1.0000
  W   W1        1.0  0.005709889344871044  0.28223106265068054  0.003679118352010846  1.0000
