data_image0
_chemical_formula_structural       Na3O2Re4Zr
_chemical_formula_sum              "Na3 O2 Re4 Zr1"
_cell_length_a       5.9659062677584
_cell_length_b       5.959844286004166
_cell_length_c       6.232757568359375
_cell_angle_alpha    71.88781379710242
_cell_angle_beta     65.7557226456652
_cell_angle_gamma    60.56214529143137

_space_group_name_H-M_alt    "P 1"
_space_group_IT_number       1

loop_
  _space_group_symop_operation_xyz
  'x, y, z'

loop_
  _atom_site_type_symbol
  _atom_site_label
  _atom_site_symmetry_multiplicity
  _atom_site_fract_x
  _atom_site_fract_y
  _atom_site_fract_z
  _atom_site_occupancy
  Na  Na1       1.0  0.26929429173469543  0.13142290711402893  0.6594669222831726  1.0000
  Na  Na2       1.0  0.5105025172233582  0.9297206401824951  0.6841212511062622  1.0000
  Na  Na3       1.0  0.7767513990402222  0.6691566109657288  0.5039330720901489  1.0000
  O   O1        1.0  0.29676350951194763  0.7013359665870667  0.3748296797275543  1.0000
  O   O2        1.0  0.006986953318119049  0.07626909017562866  0.6832343339920044  1.0000
  Re  Re1       1.0  0.2670938968658447  0.6574715375900269  0.6061415076255798  1.0000
  Re  Re2       1.0  0.7631589770317078  0.8222494721412659  0.8858161568641663  1.0000
  Re  Re3       1.0  0.7777981162071228  0.5840431451797485  0.15578076243400574  1.0000
  Re  Re4       1.0  0.28045666217803955  0.4163949489593506  0.7595657110214233  1.0000
  Zr  Zr1       1.0  0.5089390277862549  0.8222734332084656  0.1716577559709549  1.0000
