data_image0
_chemical_formula_structural       IIrNa2NbPPrRe2S
_chemical_formula_sum              "I1 Ir1 Na2 Nb1 P1 Pr1 Re2 S1"
_cell_length_a       5.939909305464113
_cell_length_b       6.052961957693564
_cell_length_c       6.378716468811035
_cell_angle_alpha    82.40726588172099
_cell_angle_beta     80.24334649622529
_cell_angle_gamma    77.05670548920209

_space_group_name_H-M_alt    "P 1"
_space_group_IT_number       1

loop_
  _space_group_symop_operation_xyz
  'x, y, z'

loop_
  _atom_site_type_symbol
  _atom_site_label
  _atom_site_symmetry_multiplicity
  _atom_site_fract_x
  _atom_site_fract_y
  _atom_site_fract_z
  _atom_site_occupancy
  I   I1        1.0  0.4794284403324127  0.6261196732521057  0.7333272099494934  1.0000
  Ir  Ir1       1.0  0.9913846254348755  0.6238145232200623  0.9684302806854248  1.0000
  Na  Na1       1.0  0.749343752861023  0.5435727834701538  0.626616895198822  1.0000
  Na  Na2       1.0  0.25248247385025024  0.6965304017066956  0.04296508803963661  1.0000
  Nb  Nb1       1.0  0.7282271385192871  0.37658798694610596  0.24660257995128632  1.0000
  P   P1        1.0  0.22642196714878082  0.02917204238474369  0.3248443901538849  1.0000
  Pr  Pr1       1.0  0.24736087024211884  0.0814908966422081  0.3175540864467621  1.0000
  Re  Re1       1.0  0.7353621125221252  0.8442405462265015  0.8101662993431091  1.0000
  Re  Re2       1.0  0.7526849508285522  0.6903185248374939  0.38071873784065247  1.0000
  S   S1        1.0  0.24970296025276184  0.6334455609321594  0.12244542688131332  1.0000
