data_image0
_chemical_formula_structural       Co3IPbTi
_chemical_formula_sum              "Co3 I1 Pb1 Ti1"
_cell_length_a       5.124311850026157
_cell_length_b       5.321209804487212
_cell_length_c       6.409774303436279
_cell_angle_alpha    89.02807839831645
_cell_angle_beta     92.31409807053808
_cell_angle_gamma    90.60978927256913

_space_group_name_H-M_alt    "P 1"
_space_group_IT_number       1

loop_
  _space_group_symop_operation_xyz
  'x, y, z'

loop_
  _atom_site_type_symbol
  _atom_site_label
  _atom_site_symmetry_multiplicity
  _atom_site_fract_x
  _atom_site_fract_y
  _atom_site_fract_z
  _atom_site_occupancy
  Co  Co1       1.0  0.5498995184898376  0.11229188740253448  0.3115195333957672  1.0000
  Co  Co2       1.0  0.3230637311935425  0.6768203377723694  0.9351164698600769  1.0000
  Co  Co3       1.0  0.4562529921531677  0.02985718660056591  0.2428518384695053  1.0000
  I   I1        1.0  0.031624916940927505  0.8227327466011047  0.04338279739022255  1.0000
  Pb  Pb1       1.0  0.7939220070838928  0.807007908821106  0.7548747062683105  1.0000
  Ti  Ti1       1.0  0.04157322645187378  0.019790759310126305  0.6508995294570923  1.0000
