data_image0
_chemical_formula_structural       CoI2P2Pt
_chemical_formula_sum              "Co1 I2 P2 Pt1"
_cell_length_a       4.5164084133052285
_cell_length_b       4.771994134346395
_cell_length_c       6.4176154136657715
_cell_angle_alpha    98.65078847501437
_cell_angle_beta     102.2929534014839
_cell_angle_gamma    103.78424616100132

_space_group_name_H-M_alt    "P 1"
_space_group_IT_number       1

loop_
  _space_group_symop_operation_xyz
  'x, y, z'

loop_
  _atom_site_type_symbol
  _atom_site_label
  _atom_site_symmetry_multiplicity
  _atom_site_fract_x
  _atom_site_fract_y
  _atom_site_fract_z
  _atom_site_occupancy
  Co  Co1       1.0  0.3134686350822449  0.8432741761207581  0.8365505337715149  1.0000
  I   I1        1.0  0.2713271975517273  0.25342172384262085  0.6924577951431274  1.0000
  I   I2        1.0  0.9956364035606384  0.9514241814613342  0.6677839756011963  1.0000
  P   P1        1.0  0.832085371017456  0.4771561026573181  0.7479687929153442  1.0000
  P   P2        1.0  0.805804967880249  0.8593299388885498  0.3380908668041229  1.0000
  Pt  Pt1       1.0  0.7361703515052795  0.29134708642959595  0.188009113073349  1.0000
