data_image0
_chemical_formula_structural       Co5P
_chemical_formula_sum              "Co5 P1"
_cell_length_a       4.177087059704402
_cell_length_b       3.7589030222233153
_cell_length_c       5.445216178894043
_cell_angle_alpha    109.47900582615067
_cell_angle_beta     109.64440804016172
_cell_angle_gamma    100.00702355691614

_space_group_name_H-M_alt    "P 1"
_space_group_IT_number       1

loop_
  _space_group_symop_operation_xyz
  'x, y, z'

loop_
  _atom_site_type_symbol
  _atom_site_label
  _atom_site_symmetry_multiplicity
  _atom_site_fract_x
  _atom_site_fract_y
  _atom_site_fract_z
  _atom_site_occupancy
  Co  Co1       1.0  0.5758586525917053  0.7761147618293762  0.059467900544404984  1.0000
  Co  Co2       1.0  0.5630361437797546  0.8423140645027161  0.11665952205657962  1.0000
  Co  Co3       1.0  0.5227797627449036  0.922597885131836  0.7327002286911011  1.0000
  Co  Co4       1.0  0.9892285466194154  0.17088812589645386  0.5679284930229187  1.0000
  Co  Co5       1.0  0.06002852693200112  0.5896489024162292  0.6393905282020569  1.0000
  P   P1        1.0  0.08487418293952943  0.658923327922821  0.9979163408279419  1.0000
