data_image0
_chemical_formula_structural       H2Ho4INi2PTl
_chemical_formula_sum              "H2 Ho4 I1 Ni2 P1 Tl1"
_cell_length_a       5.493506155638885
_cell_length_b       6.851778041837458
_cell_length_c       6.980981826782227
_cell_angle_alpha    119.88897756326637
_cell_angle_beta     93.03445628731737
_cell_angle_gamma    92.91729744356952

_space_group_name_H-M_alt    "P 1"
_space_group_IT_number       1

loop_
  _space_group_symop_operation_xyz
  'x, y, z'

loop_
  _atom_site_type_symbol
  _atom_site_label
  _atom_site_symmetry_multiplicity
  _atom_site_fract_x
  _atom_site_fract_y
  _atom_site_fract_z
  _atom_site_occupancy
  H   H1        1.0  0.966119110584259  0.3770420253276825  0.39226675033569336  1.0000
  H   H2        1.0  0.49197953939437866  0.992462158203125  0.810174822807312  1.0000
  Ho  Ho1       1.0  0.469748318195343  0.1686244159936905  0.15520596504211426  1.0000
  Ho  Ho2       1.0  0.9729022979736328  0.06947986036539078  0.9180864691734314  1.0000
  Ho  Ho3       1.0  0.4719265401363373  0.6040770411491394  0.5531821250915527  1.0000
  Ho  Ho4       1.0  0.4847647547721863  0.47182947397232056  0.8695854544639587  1.0000
  I   I1        1.0  0.4714525640010834  0.9031352400779724  0.7813273072242737  1.0000
  Ni  Ni1       1.0  0.9765312075614929  0.5591831207275391  0.5780590176582336  1.0000
  Ni  Ni2       1.0  0.9709806442260742  0.11997636407613754  0.8896130919456482  1.0000
  P   P1        1.0  0.21587754786014557  0.9468717575073242  0.6619210243225098  1.0000
  Tl  Tl1       1.0  0.4895515739917755  0.43277299404144287  0.4678184390068054  1.0000
