data_image0
_chemical_formula_structural       H2Ho3Ni2P2PbPd
_chemical_formula_sum              "H2 Ho3 Ni2 P2 Pb1 Pd1"
_cell_length_a       4.318773770185628
_cell_length_b       4.381235326800183
_cell_length_c       7.333166122436523
_cell_angle_alpha    73.52442338426523
_cell_angle_beta     62.444148148607674
_cell_angle_gamma    45.18290440432272

_space_group_name_H-M_alt    "P 1"
_space_group_IT_number       1

loop_
  _space_group_symop_operation_xyz
  'x, y, z'

loop_
  _atom_site_type_symbol
  _atom_site_label
  _atom_site_symmetry_multiplicity
  _atom_site_fract_x
  _atom_site_fract_y
  _atom_site_fract_z
  _atom_site_occupancy
  H   H1        1.0  0.005310949869453965  0.7551734447479248  0.15212510526180265  1.0000
  H   H2        1.0  0.3713200092315674  0.12718285620212555  0.9958759546279908  1.0000
  Ho  Ho1       1.0  0.15290631353855133  0.6397279500961304  0.029610043391585354  1.0000
  Ho  Ho2       1.0  0.5432343482971191  0.617680549621582  0.7547751665115358  1.0000
  Ho  Ho3       1.0  0.09242209047079086  0.6399432420730591  0.07492625713348391  1.0000
  Ni  Ni1       1.0  0.6228542923927307  0.18172715604305267  0.9011779427528382  1.0000
  Ni  Ni2       1.0  0.5747759938240051  0.8351892828941345  0.4744656682014466  1.0000
  P   P1        1.0  0.05628461763262749  0.7530415654182434  0.31386893987655645  1.0000
  P   P2        1.0  0.6124717593193054  0.9938263893127441  0.6752438545227052  1.0000
  Pb  Pb1       1.0  0.5521573424339294  0.22264328598976135  0.6368414163589479  1.0000
  Pd  Pd1       1.0  0.9860584735870361  0.3211156725883484  0.42402291297912603  1.0000
