data_image0
_chemical_formula_structural       Al2HHo4Ni4
_chemical_formula_sum              "Al2 H1 Ho4 Ni4"
_cell_length_a       5.119672420397789
_cell_length_b       5.080635165981422
_cell_length_c       8.062012672424316
_cell_angle_alpha    82.11648657626353
_cell_angle_beta     79.2546961059914
_cell_angle_gamma    73.57183155738775

_space_group_name_H-M_alt    "P 1"
_space_group_IT_number       1

loop_
  _space_group_symop_operation_xyz
  'x, y, z'

loop_
  _atom_site_type_symbol
  _atom_site_label
  _atom_site_symmetry_multiplicity
  _atom_site_fract_x
  _atom_site_fract_y
  _atom_site_fract_z
  _atom_site_occupancy
  Al  Al1       1.0  0.9632768630981445  0.1357126384973526  0.9267686009407042  1.0000
  Al  Al2       1.0  0.9354721903800964  0.44208863377571106  0.5009328722953796  1.0000
  H   H1        1.0  0.14624303579330444  0.4445890486240387  0.3933810591697693  1.0000
  Ho  Ho1       1.0  0.4688563048839569  0.6880157589912415  0.8321965932846069  1.0000
  Ho  Ho2       1.0  0.4606354534626007  0.3942805230617523  0.7963902950286865  1.0000
  Ho  Ho3       1.0  0.4474067687988281  0.6848811507225037  0.2293720543384552  1.0000
  Ho  Ho4       1.0  0.4458918571472168  0.23847657442092896  0.5104101896286011  1.0000
  Ni  Ni1       1.0  0.9504682421684265  0.42556867003440857  0.030348781496286392  1.0000
  Ni  Ni2       1.0  0.44492337107658386  0.5922424793243408  0.5801320672035217  1.0000
  Ni  Ni3       1.0  0.4481840133666992  0.43768224120140076  0.145978182554245  1.0000
  Ni  Ni4       1.0  0.45448312163352966  0.3699602484703064  0.8972147107124329  1.0000
