data_image0
_chemical_formula_structural       AlHHo5Ni4
_chemical_formula_sum              "Al1 H1 Ho5 Ni4"
_cell_length_a       5.546177734043702
_cell_length_b       5.581479845913461
_cell_length_c       6.159778594970703
_cell_angle_alpha    63.17272520365886
_cell_angle_beta     65.70582442434605
_cell_angle_gamma    64.2458430044811

_space_group_name_H-M_alt    "P 1"
_space_group_IT_number       1

loop_
  _space_group_symop_operation_xyz
  'x, y, z'

loop_
  _atom_site_type_symbol
  _atom_site_label
  _atom_site_symmetry_multiplicity
  _atom_site_fract_x
  _atom_site_fract_y
  _atom_site_fract_z
  _atom_site_occupancy
  Al  Al1       1.0  0.45648762583732605  0.241364985704422  0.761976420879364  1.0000
  H   H1        1.0  0.06589118391275406  0.7946008443832397  0.8505597114562988  1.0000
  Ho  Ho1       1.0  0.5060628056526184  0.5132927298545837  0.16808025538921356  1.0000
  Ho  Ho2       1.0  0.9557216167449951  0.6426109671592712  0.16822247207164764  1.0000
  Ho  Ho3       1.0  0.7938413619995117  0.27849695086479187  0.7120274901390076  1.0000
  Ho  Ho4       1.0  0.4779024124145508  0.20342494547367096  0.008059483021497726  1.0000
  Ho  Ho5       1.0  0.46026283502578735  0.1113291010260582  0.7436554431915283  1.0000
  Ni  Ni1       1.0  0.46159109473228455  0.6799315810203552  0.542619526386261  1.0000
  Ni  Ni2       1.0  0.3207334578037262  0.44841480255126953  0.8373278379440308  1.0000
  Ni  Ni3       1.0  0.9650974273681641  0.28500935435295105  0.3086548447608948  1.0000
  Ni  Ni4       1.0  0.8084684014320374  0.8683963418006897  0.5491960048675537  1.0000
