data_image0
_chemical_formula_structural       H2Ho6NiPb2
_chemical_formula_sum              "H2 Ho6 Ni1 Pb2"
_cell_length_a       5.512395311527449
_cell_length_b       5.575528557196207
_cell_length_c       6.967451572418213
_cell_angle_alpha    113.9184867047441
_cell_angle_beta     114.99427488554446
_cell_angle_gamma    91.83405383418858

_space_group_name_H-M_alt    "P 1"
_space_group_IT_number       1

loop_
  _space_group_symop_operation_xyz
  'x, y, z'

loop_
  _atom_site_type_symbol
  _atom_site_label
  _atom_site_symmetry_multiplicity
  _atom_site_fract_x
  _atom_site_fract_y
  _atom_site_fract_z
  _atom_site_occupancy
  H   H1        1.0  0.5973958969116211  0.3477480113506317  0.009720354340970516  1.0000
  H   H2        1.0  0.3566679358482361  0.03213321045041084  0.22701361775398254  1.0000
  Ho  Ho1       1.0  0.6151777505874634  0.3820541501045227  0.7925098538398743  1.0000
  Ho  Ho2       1.0  0.8537487983703613  0.9031565189361573  0.7389973998069763  1.0000
  Ho  Ho3       1.0  0.07023427635431291  0.22270859777927401  0.35580873489379883  1.0000
  Ho  Ho4       1.0  0.12122093141078949  0.1405215710401535  0.3010338544845581  1.0000
  Ho  Ho5       1.0  0.09986051917076111  0.7320263981819153  0.040608167648315464  1.0000
  Ho  Ho6       1.0  0.08478822559118271  0.7087041139602661  0.6594343185424805  1.0000
  Ni  Ni1       1.0  0.6472553014755249  0.1303093433380127  0.499850869178772  1.0000
  Pb  Pb1       1.0  0.6189651489257812  0.7417239546775818  0.4294569194316864  1.0000
  Pb  Pb2       1.0  0.3655499219894409  0.4807065129280091  0.10861319303512573  1.0000
