data_image0
_chemical_formula_structural       GaH2Ho5NiPPb
_chemical_formula_sum              "Ga1 H2 Ho5 Ni1 P1 Pb1"
_cell_length_a       6.1308909902160105
_cell_length_b       6.3160698832051985
_cell_length_c       8.145557403564453
_cell_angle_alpha    76.92546770106011
_cell_angle_beta     72.03850202005015
_cell_angle_gamma    64.48284784177173

_space_group_name_H-M_alt    "P 1"
_space_group_IT_number       1

loop_
  _space_group_symop_operation_xyz
  'x, y, z'

loop_
  _atom_site_type_symbol
  _atom_site_label
  _atom_site_symmetry_multiplicity
  _atom_site_fract_x
  _atom_site_fract_y
  _atom_site_fract_z
  _atom_site_occupancy
  Ga  Ga1       1.0  0.2749139368534088  0.12150586396455765  0.7037500143051147  1.0000
  H   H1        1.0  0.10987560451030731  0.45227742195129395  0.612580418586731  1.0000
  H   H2        1.0  0.592014729976654  0.7729109525680542  0.19790785014629364  1.0000
  Ho  Ho1       1.0  0.26173147559165955  0.8279597163200378  0.7952991724014282  1.0000
  Ho  Ho2       1.0  0.5729982256889343  0.6568652987480164  0.9199693202972412  1.0000
  Ho  Ho3       1.0  0.28428900241851807  0.34807199239730835  0.22705066204071045  1.0000
  Ho  Ho4       1.0  0.05901626870036125  0.9666132926940918  0.6622447967529297  1.0000
  Ho  Ho5       1.0  0.8194721341133118  0.3412718176841736  0.7290048599243164  1.0000
  Ni  Ni1       1.0  0.8436554670333862  0.5244045257568359  0.7426567673683167  1.0000
  P   P1        1.0  0.9049180150032043  0.025574941188097  0.8008200526237488  1.0000
  Pb  Pb1       1.0  0.7301325798034668  0.5322160124778748  0.050165772438049316  1.0000
