data_image0
_chemical_formula_structural       BaF7FeHf3LiPPb2RhTe
_chemical_formula_sum              "Ba1 F7 Fe1 Hf3 Li1 P1 Pb2 Rh1 Te1"
_cell_length_a       4.5778839159988
_cell_length_b       9.176407405355368
_cell_length_c       10.93436050415039
_cell_angle_alpha    89.29512353330973
_cell_angle_beta     89.04005735941462
_cell_angle_gamma    94.6425475828332

_space_group_name_H-M_alt    "P 1"
_space_group_IT_number       1

loop_
  _space_group_symop_operation_xyz
  'x, y, z'

loop_
  _atom_site_type_symbol
  _atom_site_label
  _atom_site_symmetry_multiplicity
  _atom_site_fract_x
  _atom_site_fract_y
  _atom_site_fract_z
  _atom_site_occupancy
  Ba  Ba1       1.0  0.7926521897315979  0.7043533325195312  0.7021531462669373  1.0000
  F   F1        1.0  0.8077966570854187  0.37520450353622437  0.013677612878382208  1.0000
  F   F2        1.0  0.8111658692359924  0.458538681268692  0.7829804420471193  1.0000
  F   F3        1.0  0.3079778552055359  0.7073745727539062  0.7206010818481445  1.0000
  F   F4        1.0  0.30096107721328735  0.22180643677711487  0.9080508947372438  1.0000
  F   F5        1.0  0.7819832563400269  0.392268568277359  0.20690931379795077  1.0000
  F   F6        1.0  0.3027532696723938  0.3338707983493805  0.6299009919166566  1.0000
  F   F7        1.0  0.809002161026001  0.9597041010856628  0.858631193637848  1.0000
  Fe  Fe1       1.0  0.2874543368816376  0.5248698592185974  0.21162335574626925  1.0000
  Hf  Hf1       1.0  0.798753559589386  0.019344717264175415  0.551555335521698  1.0000
  Hf  Hf2       1.0  0.2989380955696106  0.7279406189918518  0.49341672658920294  1.0000
  Hf  Hf3       1.0  0.3034336268901825  0.25567248463630676  0.37156087160110474  1.0000
  Li  Li1       1.0  0.3048396408557892  0.7238617539405823  0.0985010713338852  1.0000
  P   P1        1.0  0.8119063973426819  0.7062796950340271  0.33903729915618896  1.0000
  Pb  Pb1       1.0  0.7961763143539429  0.25129783153533936  0.9831593036651612  1.0000
  Pb  Pb2       1.0  0.3026888072490692  0.9757357835769653  0.8370739817619325  1.0000
  Rh  Rh1       1.0  0.7849807739257812  0.21029266715049744  0.6931600570678711  1.0000
  Te  Te1       1.0  0.8057565689086914  0.01961350627243519  0.37543177604675293  1.0000
