data_image0
_chemical_formula_structural       F8HfMoP2Pb2STe2Zr
_chemical_formula_sum              "F8 Hf1 Mo1 P2 Pb2 S1 Te2 Zr1"
_cell_length_a       4.821071185756586
_cell_length_b       8.449423770224614
_cell_length_c       10.646193504333496
_cell_angle_alpha    89.9035611792015
_cell_angle_beta     89.45817397934485
_cell_angle_gamma    103.35857827412029

_space_group_name_H-M_alt    "P 1"
_space_group_IT_number       1

loop_
  _space_group_symop_operation_xyz
  'x, y, z'

loop_
  _atom_site_type_symbol
  _atom_site_label
  _atom_site_symmetry_multiplicity
  _atom_site_fract_x
  _atom_site_fract_y
  _atom_site_fract_z
  _atom_site_occupancy
  F   F1        1.0  0.27061766386032104  0.8932972550392151  0.1935335099697113  1.0000
  F   F2        1.0  0.9989343285560608  0.5627349019050598  0.7252843379974365  1.0000
  F   F3        1.0  0.49501562118530273  0.8782381415367126  0.8840200901031494  1.0000
  F   F4        1.0  0.7422417998313904  0.6717920303344727  0.6440271735191345  1.0000
  F   F5        1.0  0.9917048215866089  0.18962016701698303  0.5095870494842529  1.0000
  F   F6        1.0  0.23472818732261658  0.3754287660121918  0.390591561794281  1.0000
  F   F7        1.0  0.7413893342018127  0.07815923541784286  0.7728165984153748  1.0000
  F   F8        1.0  0.47784408926963806  0.5558204054832458  0.5260745286941528  1.0000
  Hf  Hf1       1.0  0.2745961844921112  0.12660495936870575  0.018417125567793846  1.0000
  Mo  Mo1       1.0  0.2576925754547119  0.40963590145111084  0.21168729662895203  1.0000
  P   P1        1.0  0.9632392525672913  0.9047644138336182  0.012723064050078392  1.0000
  P   P2        1.0  0.6441562175750732  0.9177126288414001  0.529022216796875  1.0000
  Pb  Pb1       1.0  0.7676599621772766  0.1257048398256302  0.13571356236934662  1.0000
  Pb  Pb2       1.0  0.23390322923660278  0.41348379850387573  0.7306699156761169  1.0000
  S   S1        1.0  0.3808728754520416  0.3034406006336212  0.01189777348190546  1.0000
  Te  Te1       1.0  0.7506512999534607  0.4120516777038574  0.7344648838043213  1.0000
  Te  Te2       1.0  0.26082733273506165  0.8937559723854065  0.5218597054481506  1.0000
  Zr  Zr1       1.0  0.23977719247341156  0.4069029688835144  0.6117687821388245  1.0000
