data_image0
_chemical_formula_structural       As8F6Te4
_chemical_formula_sum              "As8 F6 Te4"
_cell_length_a       7.650487718921866
_cell_length_b       8.200083117188095
_cell_length_c       8.23122501373291
_cell_angle_alpha    105.32997751404774
_cell_angle_beta     104.50910908460816
_cell_angle_gamma    109.64667056694809

_space_group_name_H-M_alt    "P 1"
_space_group_IT_number       1

loop_
  _space_group_symop_operation_xyz
  'x, y, z'

loop_
  _atom_site_type_symbol
  _atom_site_label
  _atom_site_symmetry_multiplicity
  _atom_site_fract_x
  _atom_site_fract_y
  _atom_site_fract_z
  _atom_site_occupancy
  As  As1       1.0  0.035057298839092255  0.7758421897888184  0.1591823250055313  1.0000
  As  As2       1.0  0.31011396646499634  0.7962775230407715  0.27938753366470337  1.0000
  As  As3       1.0  0.5398191809654236  0.7803739905357361  0.3620012104511261  1.0000
  As  As4       1.0  0.5254700779914856  0.2770504653453827  0.666901707649231  1.0000
  As  As5       1.0  0.026311321184039116  0.7738881707191467  0.49258843064308167  1.0000
  As  As6       1.0  0.3319816291332245  0.10922222584486008  0.889218807220459  1.0000
  As  As7       1.0  0.033141784369945526  0.5286010503768921  0.30416756868362427  1.0000
  As  As8       1.0  0.8431519269943237  0.0606616772711277  0.8615210056304932  1.0000
  F   F1        1.0  0.549370288848877  0.7794961333274841  0.7525992393493652  1.0000
  F   F2        1.0  0.8050822019577026  0.5404238104820251  0.6732786893844604  1.0000
  F   F3        1.0  0.2902871072292328  0.04231436178088188  0.3221331536769867  1.0000
  F   F4        1.0  0.04606921970844269  0.28067541122436523  0.8743175864219666  1.0000
  F   F5        1.0  0.7940449118614197  0.5119560360908508  0.9817237257957458  1.0000
  F   F6        1.0  0.5452458262443542  0.7816789150238037  0.9886741042137146  1.0000
  Te  Te1       1.0  0.6476391553878784  0.1596062332391739  0.541713535785675  1.0000
  Te  Te2       1.0  0.9019832611083984  0.04180959239602089  0.21726314723491671  1.0000
  Te  Te3       1.0  0.6611601114273071  0.304313987493515  0.4829099178314209  1.0000
  Te  Te4       1.0  0.1631135642528534  0.27450069785118103  0.48780718445777893  1.0000
