data_image0
_chemical_formula_structural       AsBrF10HO2PbTeV
_chemical_formula_sum              "As1 Br1 F10 H1 O2 Pb1 Te1 V1"
_cell_length_a       4.329522787015557
_cell_length_b       9.028889378862237
_cell_length_c       10.40097427368164
_cell_angle_alpha    91.03287798074389
_cell_angle_beta     90.95543542781333
_cell_angle_gamma    91.22481752123139

_space_group_name_H-M_alt    "P 1"
_space_group_IT_number       1

loop_
  _space_group_symop_operation_xyz
  'x, y, z'

loop_
  _atom_site_type_symbol
  _atom_site_label
  _atom_site_symmetry_multiplicity
  _atom_site_fract_x
  _atom_site_fract_y
  _atom_site_fract_z
  _atom_site_occupancy
  As  As1       1.0  0.06042701005935669  0.32899293303489685  0.8470930457115173  1.0000
  Br  Br1       1.0  0.5645579695701599  0.51373690366745  0.43768349289894104  1.0000
  F   F1        1.0  0.5694844126701355  0.5765898823738098  0.4542677402496338  1.0000
  F   F2        1.0  0.05587294325232506  0.9347459077835083  0.8382272124290466  1.0000
  F   F3        1.0  0.0629149079322815  0.48057493567466736  0.5581485033035278  1.0000
  F   F4        1.0  0.5731453895568848  0.9237427115440369  0.07385419309139252  1.0000
  F   F5        1.0  0.5716415047645569  0.4445885121822357  0.3056934177875519  1.0000
  F   F6        1.0  0.5639542937278748  0.9514215588569641  0.26906293630599976  1.0000
  F   F7        1.0  0.06435546278953552  0.42525941133499146  0.8894091248512268  1.0000
  F   F8        1.0  0.039859578013420105  0.9059582352638245  0.16908249258995056  1.0000
  F   F9        1.0  0.057704467326402664  0.28964367508888245  0.4488057792186737  1.0000
  F   F10       1.0  0.5588310956954956  0.2765881419181824  0.34769144654273987  1.0000
  H   H1        1.0  0.05471371114253998  0.5382626056671143  0.07063669711351395  1.0000
  O   O1        1.0  0.47592002153396606  0.9884025454521179  0.13724654912948608  1.0000
  O   O2        1.0  0.5730082988739014  0.1779741793870926  0.6943290829658508  1.0000
  Pb  Pb1       1.0  0.5584853291511536  0.8163060545921326  0.7425907254219055  1.0000
  Te  Te1       1.0  0.05800889804959297  0.0036437292583286762  0.29105061292648315  1.0000
  V   V1        1.0  0.05708260089159012  0.4687311351299286  0.27640607953071594  1.0000
