data_image0
_chemical_formula_structural       As8F7Te3
_chemical_formula_sum              "As8 F7 Te3"
_cell_length_a       5.713397379258323
_cell_length_b       9.370113467793962
_cell_length_c       9.717936515808105
_cell_angle_alpha    118.78413092589619
_cell_angle_beta     89.46684658964607
_cell_angle_gamma    89.42766080049431

_space_group_name_H-M_alt    "P 1"
_space_group_IT_number       1

loop_
  _space_group_symop_operation_xyz
  'x, y, z'

loop_
  _atom_site_type_symbol
  _atom_site_label
  _atom_site_symmetry_multiplicity
  _atom_site_fract_x
  _atom_site_fract_y
  _atom_site_fract_z
  _atom_site_occupancy
  As  As1       1.0  0.36979755759239197  0.882874071598053  0.3746654093265534  1.0000
  As  As2       1.0  0.8700253367424011  0.38322147727012634  0.05094371736049652  1.0000
  As  As3       1.0  0.36992108821868896  0.3201123774051666  0.21330690383911133  1.0000
  As  As4       1.0  0.8702298402786255  0.1526452600955963  0.22764982283115387  1.0000
  As  As5       1.0  0.3680022656917572  0.9314510822296143  0.9096062779426575  1.0000
  As  As6       1.0  0.8681676983833313  0.1614808738231659  0.441520631313324  1.0000
  As  As7       1.0  0.8704288601875305  0.6636696457862854  0.8558071255683899  1.0000
  As  As8       1.0  0.36866307258605957  0.13233284652233124  0.3436645567417145  1.0000
  F   F1        1.0  0.8722214698791504  0.7054147720336914  0.33838996291160583  1.0000
  F   F2        1.0  0.8644819259643555  0.40170714259147644  0.8691327571868896  1.0000
  F   F3        1.0  0.8752710819244385  0.09629771113395691  0.5990210175514221  1.0000
  F   F4        1.0  0.36396482586860657  0.15535594522953033  0.885931134223938  1.0000
  F   F5        1.0  0.3708905279636383  0.6689100861549377  0.9746609926223755  1.0000
  F   F6        1.0  0.8696865439414978  0.8867911100387573  0.8215801119804382  1.0000
  F   F7        1.0  0.3703477382659912  0.8927852511405945  0.5151278376579286  1.0000
  Te  Te1       1.0  0.609735369682312  0.6895442008972168  0.062424175441265106  1.0000
  Te  Te2       1.0  0.8664494156837463  0.6564712524414062  0.7350486516952515  1.0000
  Te  Te3       1.0  0.3669687807559967  0.3917899429798126  0.9696667194366455  1.0000
