data_image0
_chemical_formula_structural       As2ClF10FePb2SiTe
_chemical_formula_sum              "As2 Cl1 F10 Fe1 Pb2 Si1 Te1"
_cell_length_a       4.572643199738273
_cell_length_b       8.0818257320266
_cell_length_c       11.428298950195312
_cell_angle_alpha    89.20111304483667
_cell_angle_beta     91.70484646515138
_cell_angle_gamma    88.35684971995641

_space_group_name_H-M_alt    "P 1"
_space_group_IT_number       1

loop_
  _space_group_symop_operation_xyz
  'x, y, z'

loop_
  _atom_site_type_symbol
  _atom_site_label
  _atom_site_symmetry_multiplicity
  _atom_site_fract_x
  _atom_site_fract_y
  _atom_site_fract_z
  _atom_site_occupancy
  As  As1       1.0  0.08876588195562363  0.6388365030288696  0.1876477748155594  1.0000
  As  As2       1.0  0.07628343999385834  0.3434697091579437  0.15106098353862762  1.0000
  Cl  Cl1       1.0  0.8324030041694641  0.8138641119003296  0.29478976130485535  1.0000
  F   F1        1.0  0.5674659609794617  0.5759300589561462  0.3273058235645294  1.0000
  F   F2        1.0  0.0704226866364479  0.07193992286920547  0.7110816836357117  1.0000
  F   F3        1.0  0.05999734252691269  0.31704285740852356  0.10949275642633438  1.0000
  F   F4        1.0  0.07327371835708618  0.6841785907745361  0.06406034529209137  1.0000
  F   F5        1.0  0.5694614052772522  0.8364046216011047  0.47999995946884155  1.0000
  F   F6        1.0  0.06253808736801147  0.06938997656106949  0.9593250751495361  1.0000
  F   F7        1.0  0.06235722452402115  0.5799967646598816  0.5051407217979431  1.0000
  F   F8        1.0  0.294364333152771  0.08466193825006485  0.6923866868019104  1.0000
  F   F9        1.0  0.5669457912445068  0.578944206237793  0.5025725364685059  1.0000
  F   F10       1.0  0.5699542760848999  0.5798465609550476  0.27583158016204834  1.0000
  Fe  Fe1       1.0  0.07640981674194336  0.0939028412103653  0.5096399188041687  1.0000
  Pb  Pb1       1.0  0.5774884819984436  0.31457585096359253  0.6948583722114563  1.0000
  Pb  Pb2       1.0  0.5879346132278442  0.31787338852882385  0.1791929453611374  1.0000
  Si  Si1       1.0  0.5855750441551208  0.8135779500007629  0.31049779057502747  1.0000
  Te  Te1       1.0  0.5726982951164246  0.16970302164554596  0.6964683532714844  1.0000
