data_image0
_chemical_formula_structural       BaClGe2HfHgTeWZr
_chemical_formula_sum              "Ba1 Cl1 Ge2 Hf1 Hg1 Te1 W1 Zr1"
_cell_length_a       6.215094650573935
_cell_length_b       6.169389577273627
_cell_length_c       6.183082580566406
_cell_angle_alpha    99.65074835885596
_cell_angle_beta     99.41706890461178
_cell_angle_gamma    99.62415583916784

_space_group_name_H-M_alt    "P 1"
_space_group_IT_number       1

loop_
  _space_group_symop_operation_xyz
  'x, y, z'

loop_
  _atom_site_type_symbol
  _atom_site_label
  _atom_site_symmetry_multiplicity
  _atom_site_fract_x
  _atom_site_fract_y
  _atom_site_fract_z
  _atom_site_occupancy
  Ba  Ba1       1.0  0.6822195053100586  0.15198533236980438  0.929628312587738  1.0000
  Cl  Cl1       1.0  0.9750325679779053  0.6938361525535583  0.9425111413002014  1.0000
  Ge  Ge1       1.0  0.7004543542861938  0.08369243144989014  0.4091978371143341  1.0000
  Ge  Ge2       1.0  0.054261621087789536  0.05162012577056885  0.6194725632667542  1.0000
  Hf  Hf1       1.0  0.7354904413223267  0.6866450309753418  0.38264188170433044  1.0000
  Hg  Hg1       1.0  0.448147714138031  0.5839709639549255  0.7556638717651367  1.0000
  Te  Te1       1.0  0.3061724007129669  0.35444289445877075  0.22303879261016846  1.0000
  W   W1        1.0  0.021215690299868584  0.4407646059989929  0.5430610775947571  1.0000
  Zr  Zr1       1.0  0.27876579761505127  0.8069108128547668  0.37709125876426697  1.0000
