data_image0
_chemical_formula_structural       BaGdGe3ScTe2Zr
_chemical_formula_sum              "Ba1 Gd1 Ge3 Sc1 Te2 Zr1"
_cell_length_a       6.513344656942537
_cell_length_b       6.51119035487364
_cell_length_c       7.435482501983643
_cell_angle_alpha    64.7354520132489
_cell_angle_beta     65.08195476433116
_cell_angle_gamma    61.09782742475485

_space_group_name_H-M_alt    "P 1"
_space_group_IT_number       1

loop_
  _space_group_symop_operation_xyz
  'x, y, z'

loop_
  _atom_site_type_symbol
  _atom_site_label
  _atom_site_symmetry_multiplicity
  _atom_site_fract_x
  _atom_site_fract_y
  _atom_site_fract_z
  _atom_site_occupancy
  Ba  Ba1       1.0  0.035124726593494415  0.5884692668914795  0.2228955924510956  1.0000
  Gd  Gd1       1.0  0.5310129523277283  0.08130715042352676  0.7515411972999573  1.0000
  Ge  Ge1       1.0  0.9059953689575195  0.6885696649551392  0.7893283367156982  1.0000
  Ge  Ge2       1.0  0.8392179608345032  0.10778681933879852  0.3608880937099456  1.0000
  Ge  Ge3       1.0  0.09222913533449173  0.08779285848140717  0.7897570729255676  1.0000
  Sc  Sc1       1.0  0.1826804280281067  0.8732788562774658  0.5377838015556337  1.0000
  Te  Te1       1.0  0.5200256705284119  0.5413039922714233  0.6966547966003418  1.0000
  Te  Te2       1.0  0.4628339409828186  5.257129669189453e-05  0.17514964938163757  1.0000
  Zr  Zr1       1.0  0.7753227353096008  0.33566737174987793  0.9889466166496277  1.0000
