data_image0
_chemical_formula_structural       Ba3Hf3TlZr2
_chemical_formula_sum              "Ba3 Hf3 Tl1 Zr2"
_cell_length_a       4.6555104913372745
_cell_length_b       7.225978636369719
_cell_length_c       9.261094093322754
_cell_angle_alpha    112.66826286508618
_cell_angle_beta     104.31173279448555
_cell_angle_gamma    90.18390874123237

_space_group_name_H-M_alt    "P 1"
_space_group_IT_number       1

loop_
  _space_group_symop_operation_xyz
  'x, y, z'

loop_
  _atom_site_type_symbol
  _atom_site_label
  _atom_site_symmetry_multiplicity
  _atom_site_fract_x
  _atom_site_fract_y
  _atom_site_fract_z
  _atom_site_occupancy
  Ba  Ba1       1.0  0.37927675247192383  0.6653316020965576  0.20915794372558594  1.0000
  Ba  Ba2       1.0  0.7273401618003845  0.8511291742324829  0.901982307434082  1.0000
  Ba  Ba3       1.0  0.18503960967063904  0.2860255539417267  0.8163027763366699  1.0000
  Hf  Hf1       1.0  0.993377149105072  0.09153296053409576  0.41290685534477234  1.0000
  Hf  Hf2       1.0  0.051804836839437485  0.7093870639801025  0.5552493333816528  1.0000
  Hf  Hf3       1.0  0.8994998335838318  0.35699906945228577  0.24138914048671722  1.0000
  Tl  Tl1       1.0  0.3731120228767395  0.12255259603261948  0.19610758125782013  1.0000
  Zr  Zr1       1.0  0.555533230304718  0.9874609112739563  0.5616530776023865  1.0000
  Zr  Zr2       1.0  0.5476555228233337  0.4054113030433655  0.5258511304855347  1.0000
