data_image0
_chemical_formula_structural       CuRh3V2
_chemical_formula_sum              "Cu1 Rh3 V2"
_cell_length_a       4.66041545323835
_cell_length_b       2.711401169368983
_cell_length_c       5.209399223327637
_cell_angle_alpha    67.66855315545983
_cell_angle_beta     60.25611341540522
_cell_angle_gamma    37.19158395083263

_space_group_name_H-M_alt    "P 1"
_space_group_IT_number       1

loop_
  _space_group_symop_operation_xyz
  'x, y, z'

loop_
  _atom_site_type_symbol
  _atom_site_label
  _atom_site_symmetry_multiplicity
  _atom_site_fract_x
  _atom_site_fract_y
  _atom_site_fract_z
  _atom_site_occupancy
  Cu  Cu1       1.0  0.1663881242275238  0.9878895282745361  0.26052984595298767  1.0000
  Rh  Rh1       1.0  0.6755083799362183  0.6218716502189636  0.7422475814819336  1.0000
  Rh  Rh2       1.0  0.17571277916431427  0.09544730186462402  0.6087515354156494  1.0000
  Rh  Rh3       1.0  0.17454199492931366  0.4068833589553833  0.5918169617652893  1.0000
  V   V1        1.0  0.18223650753498077  0.7337268590927124  0.7249407768249512  1.0000
  V   V2        1.0  0.6744490265846252  0.18963909149169922  0.5717141032218933  1.0000
