data_image0
_chemical_formula_structural       HMo3OPt2
_chemical_formula_sum              "H1 Mo3 O1 Pt2"
_cell_length_a       4.047209485344817
_cell_length_b       5.456218434531142
_cell_length_c       6.063589096069336
_cell_angle_alpha    117.09264615380712
_cell_angle_beta     95.32845148234647
_cell_angle_gamma    87.60105272914988

_space_group_name_H-M_alt    "P 1"
_space_group_IT_number       1

loop_
  _space_group_symop_operation_xyz
  'x, y, z'

loop_
  _atom_site_type_symbol
  _atom_site_label
  _atom_site_symmetry_multiplicity
  _atom_site_fract_x
  _atom_site_fract_y
  _atom_site_fract_z
  _atom_site_occupancy
  H   H1        1.0  0.30066439509391785  0.19755342602729797  0.3590628206729889  1.0000
  Mo  Mo1       1.0  0.310343474149704  0.6895942687988281  0.4780684113502503  1.0000
  Mo  Mo2       1.0  0.30691054463386536  0.913612425327301  0.17297354340553284  1.0000
  Mo  Mo3       1.0  0.3226928114891052  0.4112875163555145  0.6920686960220337  1.0000
  O   O1        1.0  0.8364944458007812  0.6936832666397095  0.5886562466621399  1.0000
  Pt  Pt1       1.0  0.7868384122848511  0.15287673473358154  0.1075955256819725  1.0000
  Pt  Pt2       1.0  0.8216753602027893  0.31569066643714905  0.8984044194221498  1.0000
