data_image0
_chemical_formula_structural       HMo2Pt4
_chemical_formula_sum              "H1 Mo2 Pt4"
_cell_length_a       4.238873804718167
_cell_length_b       4.958411400834412
_cell_length_c       5.398009300231934
_cell_angle_alpha    116.34644346774519
_cell_angle_beta     98.50250721359443
_cell_angle_gamma    87.16677090590639

_space_group_name_H-M_alt    "P 1"
_space_group_IT_number       1

loop_
  _space_group_symop_operation_xyz
  'x, y, z'

loop_
  _atom_site_type_symbol
  _atom_site_label
  _atom_site_symmetry_multiplicity
  _atom_site_fract_x
  _atom_site_fract_y
  _atom_site_fract_z
  _atom_site_occupancy
  H   H1        1.0  0.2893443703651428  0.4621942937374115  0.9026885628700256  1.0000
  Mo  Mo1       1.0  0.7912433743476868  0.11394107341766357  0.09304255247116089  1.0000
  Mo  Mo2       1.0  0.3925760090351105  0.004970190115272999  0.7828754782676697  1.0000
  Pt  Pt1       1.0  0.2568138539791107  0.5989090800285339  0.5406482815742493  1.0000
  Pt  Pt2       1.0  0.4553190767765045  0.4749709963798523  0.20787079632282257  1.0000
  Pt  Pt3       1.0  0.910111129283905  0.009668393060564995  0.07980085909366608  1.0000
  Pt  Pt4       1.0  0.7702097296714783  0.6491485834121704  0.5849074721336365  1.0000
