data_image0
_chemical_formula_structural       Ba3O4
_chemical_formula_sum              "Ba3 O4"
_cell_length_a       4.675177223738472
_cell_length_b       4.493559563804477
_cell_length_c       7.073393821716309
_cell_angle_alpha    106.11027508520492
_cell_angle_beta     93.7148057717814
_cell_angle_gamma    90.72966228967819

_space_group_name_H-M_alt    "P 1"
_space_group_IT_number       1

loop_
  _space_group_symop_operation_xyz
  'x, y, z'

loop_
  _atom_site_type_symbol
  _atom_site_label
  _atom_site_symmetry_multiplicity
  _atom_site_fract_x
  _atom_site_fract_y
  _atom_site_fract_z
  _atom_site_occupancy
  Ba  Ba1       1.0  0.5500122308731079  0.9503844380378723  0.49643170833587646  1.0000
  Ba  Ba2       1.0  0.04732770472764969  0.2621157467365265  0.2276899814605713  1.0000
  Ba  Ba3       1.0  0.055472422391176224  0.4698943495750427  0.4719081521034241  1.0000
  O   O1        1.0  0.5453826189041138  0.7467922568321228  0.21414677798748016  1.0000
  O   O2        1.0  0.058407027274370193  0.9497005939483643  0.13989117741584778  1.0000
  O   O3        1.0  0.5499055981636047  0.4952785074710846  0.717851459980011  1.0000
  O   O4        1.0  0.5557162165641785  0.49956825375556946  0.8093628287315369  1.0000
