data_image0
_chemical_formula_structural       Ba2O4P
_chemical_formula_sum              "Ba2 O4 P1"
_cell_length_a       4.331649510435274
_cell_length_b       4.458637548038348
_cell_length_c       7.223104000091553
_cell_angle_alpha    107.66088853185917
_cell_angle_beta     107.1803528792948
_cell_angle_gamma    87.96856983961646

_space_group_name_H-M_alt    "P 1"
_space_group_IT_number       1

loop_
  _space_group_symop_operation_xyz
  'x, y, z'

loop_
  _atom_site_type_symbol
  _atom_site_label
  _atom_site_symmetry_multiplicity
  _atom_site_fract_x
  _atom_site_fract_y
  _atom_site_fract_z
  _atom_site_occupancy
  Ba  Ba1       1.0  0.69202721118927  0.3539924919605255  0.37762907147407526  1.0000
  Ba  Ba2       1.0  0.6278859972953796  0.1284797042608261  0.6659725308418274  1.0000
  O   O1        1.0  0.2556881010532379  0.7870146036148071  0.6145626306533813  1.0000
  O   O2        1.0  0.20243459939956665  0.8376765251159668  0.35995578765869135  1.0000
  O   O3        1.0  0.7610321640968323  0.492095023393631  0.619189441204071  1.0000
  O   O4        1.0  0.9253570437431335  0.8561334013938904  0.12380963563919066  1.0000
  P   P1        1.0  0.02287822589278221  0.16255462169647217  0.8725286126136779  1.0000
