data_image0
_chemical_formula_structural       GaNp2P2Pb
_chemical_formula_sum              "Ga1 Np2 P2 Pb1"
_cell_length_a       4.99391713744026
_cell_length_b       3.9070402676789406
_cell_length_c       6.672829627990723
_cell_angle_alpha    113.51789758553709
_cell_angle_beta     107.6346518178996
_cell_angle_gamma    123.72846631011146

_space_group_name_H-M_alt    "P 1"
_space_group_IT_number       1

loop_
  _space_group_symop_operation_xyz
  'x, y, z'

loop_
  _atom_site_type_symbol
  _atom_site_label
  _atom_site_symmetry_multiplicity
  _atom_site_fract_x
  _atom_site_fract_y
  _atom_site_fract_z
  _atom_site_occupancy
  Ga  Ga1       1.0  0.08692061901092539  0.9088629484176637  0.196990117430687  1.0000
  Np  Np1       1.0  0.7063065767288208  0.18056917190551766  0.13597995042800906  1.0000
  Np  Np2       1.0  0.6506696939468385  0.9041615128517153  0.2313340157270432  1.0000
  P   P1        1.0  0.7088811993598938  0.7038497924804689  0.6218616366386414  1.0000
  P   P2        1.0  0.4422389566898346  0.22589556872844704  0.40291106700897217  1.0000
  Pb  Pb1       1.0  0.711940705776215  0.6982401013374335  0.8367831110954287  1.0000
