data_image0
_chemical_formula_structural       EuP3ReRu
_chemical_formula_sum              "Eu1 P3 Re1 Ru1"
_cell_length_a       4.800895408951843
_cell_length_b       4.663237821704751
_cell_length_c       5.595594882965088
_cell_angle_alpha    71.1860206916932
_cell_angle_beta     68.18420843590357
_cell_angle_gamma    65.2948757029144

_space_group_name_H-M_alt    "P 1"
_space_group_IT_number       1

loop_
  _space_group_symop_operation_xyz
  'x, y, z'

loop_
  _atom_site_type_symbol
  _atom_site_label
  _atom_site_symmetry_multiplicity
  _atom_site_fract_x
  _atom_site_fract_y
  _atom_site_fract_z
  _atom_site_occupancy
  Eu  Eu1       1.0  0.47166422009468073  0.1266210526227951  0.42533615231513977  1.0000
  P   P1        1.0  0.9617533087730407  0.5723844170570374  0.04123072698712349  1.0000
  P   P2        1.0  0.9472340941429137  0.06561388075351715  0.23706124722957614  1.0000
  P   P3        1.0  0.48212149739265436  0.614132285118103  0.24015802145004272  1.0000
  Re  Re1       1.0  0.46299207210540766  0.6962888836860657  0.342532217502594  1.0000
  Ru  Ru1       1.0  0.004815559834241867  0.34443899989128113  0.4276629686355591  1.0000
