data_image0
_chemical_formula_structural       BFe4Pu
_chemical_formula_sum              "B1 Fe4 Pu1"
_cell_length_a       4.449638999019039
_cell_length_b       4.4335269009601825
_cell_length_c       4.571896553039551
_cell_angle_alpha    96.45037422551586
_cell_angle_beta     108.32311242650235
_cell_angle_gamma    108.37679853277406

_space_group_name_H-M_alt    "P 1"
_space_group_IT_number       1

loop_
  _space_group_symop_operation_xyz
  'x, y, z'

loop_
  _atom_site_type_symbol
  _atom_site_label
  _atom_site_symmetry_multiplicity
  _atom_site_fract_x
  _atom_site_fract_y
  _atom_site_fract_z
  _atom_site_occupancy
  B   B1        1.0  0.09438522905111313  0.6651272177696228  0.9027714729309082  1.0000
  Fe  Fe1       1.0  0.5645639896392822  0.9446438550949097  0.30854445695877075  1.0000
  Fe  Fe2       1.0  0.571896493434906  0.3906259536743164  0.7903170585632324  1.0000
  Fe  Fe3       1.0  0.2942737638950348  0.08372121304273605  0.12377331405878067  1.0000
  Fe  Fe4       1.0  0.06484801322221756  0.8871420621871948  0.3897738754749298  1.0000
  Pu  Pu1       1.0  0.8218552470207214  0.7175583243370056  0.27532181143760676  1.0000
