data_image0
_chemical_formula_structural       FeINpPPr2
_chemical_formula_sum              "Fe1 I1 Np1 P1 Pr2"
_cell_length_a       4.543366392304681
_cell_length_b       4.8873960857157615
_cell_length_c       5.255099296569824
_cell_angle_alpha    63.12324945167083
_cell_angle_beta     61.11574079379556
_cell_angle_gamma    61.84027783685855

_space_group_name_H-M_alt    "P 1"
_space_group_IT_number       1

loop_
  _space_group_symop_operation_xyz
  'x, y, z'

loop_
  _atom_site_type_symbol
  _atom_site_label
  _atom_site_symmetry_multiplicity
  _atom_site_fract_x
  _atom_site_fract_y
  _atom_site_fract_z
  _atom_site_occupancy
  Fe  Fe1       1.0  0.14227336645126343  0.5466029644012451  0.5182372331619263  1.0000
  I   I1        1.0  0.5615035891532898  0.3285730481147766  0.21843740344047552  1.0000
  Np  Np1       1.0  0.5132961273193359  0.2152431160211563  0.34753304719924927  1.0000
  P   P1        1.0  0.24452003836631775  0.6565832495689392  0.4399937987327576  1.0000
  Pr  Pr1       1.0  0.5562930703163147  0.6790111660957336  0.7709381580352783  1.0000
  Pr  Pr2       1.0  0.09127283096313477  0.48149827122688293  0.4967812597751618  1.0000
