data_image0
_chemical_formula_structural       FeGaIP2Re
_chemical_formula_sum              "Fe1 Ga1 I1 P2 Re1"
_cell_length_a       4.4808513175652
_cell_length_b       4.500177371813199
_cell_length_c       6.404201507568359
_cell_angle_alpha    89.97147778172433
_cell_angle_beta     91.29720074071392
_cell_angle_gamma    120.7111489378075

_space_group_name_H-M_alt    "P 1"
_space_group_IT_number       1

loop_
  _space_group_symop_operation_xyz
  'x, y, z'

loop_
  _atom_site_type_symbol
  _atom_site_label
  _atom_site_symmetry_multiplicity
  _atom_site_fract_x
  _atom_site_fract_y
  _atom_site_fract_z
  _atom_site_occupancy
  Fe  Fe1       1.0  0.15884815156459808  0.5541901588439941  0.46660116314887995  1.0000
  Ga  Ga1       1.0  0.4794430732727051  0.7183499336242677  0.5406829714775085  1.0000
  I   I1        1.0  0.8374919891357422  0.5380961298942566  0.09613113105297089  1.0000
  P   P1        1.0  0.8361616730690002  0.036440420895814896  0.014017095789313315  1.0000
  P   P2        1.0  0.3489561975002289  0.6840531826019287  0.9757863283157348  1.0000
  Re  Re1       1.0  0.879102110862732  0.9008483290672303  0.7278860211372375  1.0000
