data_image0
_chemical_formula_structural       Dy8GeS
_chemical_formula_sum              "Dy8 Ge1 S1"
_cell_length_a       6.011448670837649
_cell_length_b       7.609593680501417
_cell_length_c       7.838536262512207
_cell_angle_alpha    123.24976997286183
_cell_angle_beta     90.79501422401033
_cell_angle_gamma    90.30679590378661

_space_group_name_H-M_alt    "P 1"
_space_group_IT_number       1

loop_
  _space_group_symop_operation_xyz
  'x, y, z'

loop_
  _atom_site_type_symbol
  _atom_site_label
  _atom_site_symmetry_multiplicity
  _atom_site_fract_x
  _atom_site_fract_y
  _atom_site_fract_z
  _atom_site_occupancy
  Dy  Dy1       1.0  0.012309256009757519  0.587234377861023  0.6979452967643737  1.0000
  Dy  Dy2       1.0  0.6367857456207275  0.20772887766361234  0.7014379501342772  1.0000
  Dy  Dy3       1.0  0.13559572398662567  0.14376018941402435  0.737428307533264  1.0000
  Dy  Dy4       1.0  0.13126792013645172  0.04219688102602959  0.7367785573005674  1.0000
  Dy  Dy5       1.0  0.6147994995117188  0.8906577825546264  0.34688356518745417  1.0000
  Dy  Dy6       1.0  0.6199883818626404  0.5262929797172546  0.033387597650289536  1.0000
  Dy  Dy7       1.0  0.5810895562171936  0.3694430589675903  0.31109365820884705  1.0000
  Dy  Dy8       1.0  0.11153944581747055  0.3737956881523132  0.33093482255935663  1.0000
  Ge  Ge1       1.0  0.11460039019584656  0.7295302748680114  0.2994036376476288  1.0000
  S   S1        1.0  0.6337864398956299  0.6612033247947693  0.18168330192565915  1.0000
