data_image0
_chemical_formula_structural       CoDy7HU
_chemical_formula_sum              "Co1 Dy7 H1 U1"
_cell_length_a       6.361506682575258
_cell_length_b       6.633520823240775
_cell_length_c       6.952395915985107
_cell_angle_alpha    68.19590429656994
_cell_angle_beta     64.49388336742372
_cell_angle_gamma    61.44358200773185

_space_group_name_H-M_alt    "P 1"
_space_group_IT_number       1

loop_
  _space_group_symop_operation_xyz
  'x, y, z'

loop_
  _atom_site_type_symbol
  _atom_site_label
  _atom_site_symmetry_multiplicity
  _atom_site_fract_x
  _atom_site_fract_y
  _atom_site_fract_z
  _atom_site_occupancy
  Co  Co1       1.0  0.9522920846939087  0.5619114637374878  0.06180242449045182  1.0000
  Dy  Dy1       1.0  0.7487941384315491  0.9577476382255554  0.0012942823814228257  1.0000
  Dy  Dy2       1.0  0.2511909604072571  0.8529785871505737  0.02546532824635506  1.0000
  Dy  Dy3       1.0  0.7258421778678894  0.5978134870529175  0.16358208656311035  1.0000
  Dy  Dy4       1.0  0.0497824028134346  0.6411461234092712  0.2759213149547577  1.0000
  Dy  Dy5       1.0  0.24704307317733765  0.4647007882595062  0.9908130168914796  1.0000
  Dy  Dy6       1.0  0.2649793326854706  0.8993579149246216  0.4559882581233979  1.0000
  Dy  Dy7       1.0  0.7090849280357361  0.4999157190322876  0.8566035628318788  1.0000
  H   H1        1.0  0.5097900629043579  0.7298945188522339  0.3885385990142823  1.0000
  U   U1        1.0  0.24920372664928436  0.8516639471054077  0.45938664674758917  1.0000
