data_image0
_chemical_formula_structural       CoDy5LuPdTbU
_chemical_formula_sum              "Co1 Dy5 Lu1 Pd1 Tb1 U1"
_cell_length_a       5.13049518496072
_cell_length_b       5.509544624334497
_cell_length_c       7.176144123077393
_cell_angle_alpha    117.21911621974343
_cell_angle_beta     111.49764684605324
_cell_angle_gamma    86.29376819218476

_space_group_name_H-M_alt    "P 1"
_space_group_IT_number       1

loop_
  _space_group_symop_operation_xyz
  'x, y, z'

loop_
  _atom_site_type_symbol
  _atom_site_label
  _atom_site_symmetry_multiplicity
  _atom_site_fract_x
  _atom_site_fract_y
  _atom_site_fract_z
  _atom_site_occupancy
  Co  Co1       1.0  0.5650503039360046  0.10073405504226685  0.09619481116533277  1.0000
  Dy  Dy1       1.0  0.0467817522585392  0.32902854681015015  0.7800019979476929  1.0000
  Dy  Dy2       1.0  0.28710150718688965  0.28887754678726196  0.2555752098560333  1.0000
  Dy  Dy3       1.0  0.9482020735740662  0.7382633090019226  0.8584364056587219  1.0000
  Dy  Dy4       1.0  0.5189580321311951  0.23364283144474032  0.623857855796814  1.0000
  Dy  Dy5       1.0  0.7661179900169373  0.3978678286075592  0.23481647670269012  1.0000
  Lu  Lu1       1.0  0.9296597242355347  0.723921537399292  0.16948531568050385  1.0000
  Pd  Pd1       1.0  0.4606018364429474  0.03782615438103676  0.7648223638534546  1.0000
  Tb  Tb1       1.0  0.9723663926124573  0.011958266608417034  0.8492425084114075  1.0000
  U   U1        1.0  0.7547546625137329  0.9651747345924379  0.9836788177490234  1.0000
