data_image0
_chemical_formula_structural       B4Dy3Mo3
_chemical_formula_sum              "B4 Dy3 Mo3"
_cell_length_a       4.496153539824503
_cell_length_b       5.354676551590777
_cell_length_c       4.774410247802734
_cell_angle_alpha    127.78484282357059
_cell_angle_beta     90.53195426292429
_cell_angle_gamma    100.51846542452178

_space_group_name_H-M_alt    "P 1"
_space_group_IT_number       1

loop_
  _space_group_symop_operation_xyz
  'x, y, z'

loop_
  _atom_site_type_symbol
  _atom_site_label
  _atom_site_symmetry_multiplicity
  _atom_site_fract_x
  _atom_site_fract_y
  _atom_site_fract_z
  _atom_site_occupancy
  B   B1        1.0  0.7653843760490417  0.09353017061948776  0.09112538397312164  1.0000
  B   B2        1.0  0.781447172164917  0.9957991242408752  0.7644924521446228  1.0000
  B   B3        1.0  0.742592990398407  0.5624133944511414  0.045259471982717514  1.0000
  B   B4        1.0  0.004644135478883982  0.30545392632484436  0.9657025337219238  1.0000
  Dy  Dy1       1.0  0.24407561123371121  0.7985276579856873  0.2578807771205902  1.0000
  Dy  Dy2       1.0  0.7409420609474182  0.4524211585521698  0.1644895970821381  1.0000
  Dy  Dy3       1.0  0.744457483291626  0.005261116195470095  0.03812992945313454  1.0000
  Mo  Mo1       1.0  0.46927550435066223  0.7544283866882324  0.49516877532005316  1.0000
  Mo  Mo2       1.0  0.27484825253486633  0.2821520268917084  0.6614730954170227  1.0000
  Mo  Mo3       1.0  0.2554422616958618  0.13556025922298431  0.22814351320266724  1.0000
