data_image0
_chemical_formula_structural       B4Dy2Mo4
_chemical_formula_sum              "B4 Dy2 Mo4"
_cell_length_a       3.545208352737485
_cell_length_b       4.804586729315094
_cell_length_c       4.307088375091553
_cell_angle_alpha    144.29213750504044
_cell_angle_beta     86.71288276530647
_cell_angle_gamma    90.50187767864954

_space_group_name_H-M_alt    "P 1"
_space_group_IT_number       1

loop_
  _space_group_symop_operation_xyz
  'x, y, z'

loop_
  _atom_site_type_symbol
  _atom_site_label
  _atom_site_symmetry_multiplicity
  _atom_site_fract_x
  _atom_site_fract_y
  _atom_site_fract_z
  _atom_site_occupancy
  B   B1        1.0  0.30239164829254145  0.9814169406890869  0.47896835207939154  1.0000
  B   B2        1.0  0.9726532697677611  0.9448493123054503  0.9393614530563354  1.0000
  B   B3        1.0  0.6991398334503173  0.5311094522476196  0.19113397598266604  1.0000
  B   B4        1.0  0.9831770658493041  0.7868610620498656  0.45885786414146423  1.0000
  Dy  Dy1       1.0  0.9826717972755431  0.3162421286106109  0.4821345806121826  1.0000
  Dy  Dy2       1.0  0.48732328414916987  0.19392915070056907  0.8901320099830626  1.0000
  Mo  Mo1       1.0  0.00756064150482416  0.02224751748144628  0.7716413736343384  1.0000
  Mo  Mo2       1.0  0.4737961888313293  0.6998662352561948  0.9745115637779235  1.0000
  Mo  Mo3       1.0  0.4866353571414947  0.36473852396011364  0.48132297396659857  1.0000
  Mo  Mo4       1.0  0.994337499141693  0.47589424252510076  0.6954041719436647  1.0000
