data_image0
_chemical_formula_structural       Dy6GaHMoTb
_chemical_formula_sum              "Dy6 Ga1 H1 Mo1 Tb1"
_cell_length_a       5.931158673638151
_cell_length_b       6.751788493794327
_cell_length_c       7.174346446990967
_cell_angle_alpha    121.69652868732591
_cell_angle_beta     90.71047210052814
_cell_angle_gamma    88.81930189858038

_space_group_name_H-M_alt    "P 1"
_space_group_IT_number       1

loop_
  _space_group_symop_operation_xyz
  'x, y, z'

loop_
  _atom_site_type_symbol
  _atom_site_label
  _atom_site_symmetry_multiplicity
  _atom_site_fract_x
  _atom_site_fract_y
  _atom_site_fract_z
  _atom_site_occupancy
  Dy  Dy1       1.0  0.5592893362045288  0.08487799018621445  0.9153145551681519  1.0000
  Dy  Dy2       1.0  0.6839565634727478  0.643333375453949  0.39664769172668457  1.0000
  Dy  Dy3       1.0  0.4099851548671722  0.6637033224105835  0.1122143492102623  1.0000
  Dy  Dy4       1.0  0.559174120426178  0.39408233761787415  0.881710410118103  1.0000
  Dy  Dy5       1.0  0.06225163117051124  0.03027697652578354  0.14731648564338684  1.0000
  Dy  Dy6       1.0  0.4127273261547088  0.1421067714691162  0.5687882304191589  1.0000
  Ga  Ga1       1.0  0.44038873910903925  0.837232232093811  0.2643812000751495  1.0000
  H   H1        1.0  0.06468892097473145  0.1163712814450264  0.23296403884887695  1.0000
  Mo  Mo1       1.0  0.9152430295944213  0.6226078867912292  0.15748801827430725  1.0000
  Tb  Tb1       1.0  0.9780222177505492  0.047717366367578506  0.9176730513572693  1.0000
