data_image0
_chemical_formula_structural       Pd2SSc5Si
_chemical_formula_sum              "Pd2 S1 Sc5 Si1"
_cell_length_a       4.1967288779980745
_cell_length_b       5.17487833281372
_cell_length_c       7.6566338539123535
_cell_angle_alpha    103.54457741608698
_cell_angle_beta     103.02537685155758
_cell_angle_gamma    92.99565022431287

_space_group_name_H-M_alt    "P 1"
_space_group_IT_number       1

loop_
  _space_group_symop_operation_xyz
  'x, y, z'

loop_
  _atom_site_type_symbol
  _atom_site_label
  _atom_site_symmetry_multiplicity
  _atom_site_fract_x
  _atom_site_fract_y
  _atom_site_fract_z
  _atom_site_occupancy
  Pd  Pd1       1.0  0.6700302362442017  0.2212642878293991  0.5377091765403748  1.0000
  Pd  Pd2       1.0  0.039434097707271576  0.021257050335407257  0.5999850630760193  1.0000
  S   S1        1.0  0.7763655185699463  0.7172712087631226  0.14419899880886075  1.0000
  Sc  Sc1       1.0  0.035436831414699554  0.43696534633636475  0.19599802792072293  1.0000
  Sc  Sc2       1.0  0.6578693985939026  0.6948453783988953  0.7588035464286803  1.0000
  Sc  Sc3       1.0  0.8745182752609253  0.42937010526657104  0.9317639470100402  1.0000
  Sc  Sc4       1.0  0.223253071308136  0.7768407464027405  0.44759234786033625  1.0000
  Sc  Sc5       1.0  0.6900840401649475  0.17320136725902557  0.7208254933357239  1.0000
  Si  Si1       1.0  0.9603446125984192  0.2564813196659088  0.1925646513700485  1.0000
