data_image0
_chemical_formula_structural       ClPd2S2Sc3Ti
_chemical_formula_sum              "Cl1 Pd2 S2 Sc3 Ti1"
_cell_length_a       3.8915027265603683
_cell_length_b       5.7796945065365675
_cell_length_c       7.546387195587158
_cell_angle_alpha    112.51979810916744
_cell_angle_beta     100.50908064655756
_cell_angle_gamma    89.66872611958996

_space_group_name_H-M_alt    "P 1"
_space_group_IT_number       1

loop_
  _space_group_symop_operation_xyz
  'x, y, z'

loop_
  _atom_site_type_symbol
  _atom_site_label
  _atom_site_symmetry_multiplicity
  _atom_site_fract_x
  _atom_site_fract_y
  _atom_site_fract_z
  _atom_site_occupancy
  Cl  Cl1       1.0  0.09401609748601912  0.558276355266571  0.3593462407588959  1.0000
  Pd  Pd1       1.0  0.6305860877037047  0.02349969558417797  0.22848279774188995  1.0000
  Pd  Pd2       1.0  0.9438081383705138  0.9638600945472717  0.5707712769508362  1.0000
  S   S1        1.0  0.2235973626375198  0.764319121837616  0.3330034613609314  1.0000
  S   S2        1.0  0.73113876581192  0.2991468608379364  0.09505595266819  1.0000
  Sc  Sc1       1.0  0.27029749751091003  0.8042892217636108  0.054470013827085495  1.0000
  Sc  Sc2       1.0  0.6657640933990477  0.02520029805600643  0.19390323758125305  1.0000
  Sc  Sc3       1.0  0.7723634839057921  0.6523411870002747  0.735505998134613  1.0000
  Ti  Ti1       1.0  0.7542670965194701  0.30565905570983887  0.5969758033752441  1.0000
