data_image0
_chemical_formula_structural       FPd2Sc4Tl2
_chemical_formula_sum              "F1 Pd2 Sc4 Tl2"
_cell_length_a       5.652285976654937
_cell_length_b       5.8008539165327235
_cell_length_c       5.820995330810547
_cell_angle_alpha    61.46965593368642
_cell_angle_beta     61.50195610046987
_cell_angle_gamma    60.12772757389697

_space_group_name_H-M_alt    "P 1"
_space_group_IT_number       1

loop_
  _space_group_symop_operation_xyz
  'x, y, z'

loop_
  _atom_site_type_symbol
  _atom_site_label
  _atom_site_symmetry_multiplicity
  _atom_site_fract_x
  _atom_site_fract_y
  _atom_site_fract_z
  _atom_site_occupancy
  F   F1        1.0  0.35335928201675415  0.3158854842185974  0.8269604444503784  1.0000
  Pd  Pd1       1.0  0.2652691900730133  0.5869916081428528  0.40925487875938416  1.0000
  Pd  Pd2       1.0  0.9153680801391602  0.6075811386108398  0.4020150601863861  1.0000
  Sc  Sc1       1.0  0.47227275371551514  0.415750652551651  0.4215874671936035  1.0000
  Sc  Sc2       1.0  0.815642237663269  0.003089406993240118  0.5318609476089476  1.0000
  Sc  Sc3       1.0  0.4642799496650696  0.08493181318044662  0.42621082067489624  1.0000
  Sc  Sc4       1.0  0.9667544960975647  0.9180144667625427  0.9102903008460999  1.0000
  Tl  Tl1       1.0  0.6374907493591309  0.8304888606071472  0.6378527283668518  1.0000
  Tl  Tl2       1.0  0.1282358467578888  0.3835415542125702  0.10502085089683533  1.0000
