data_image0
_chemical_formula_structural       Pd2SSc5Tl
_chemical_formula_sum              "Pd2 S1 Sc5 Tl1"
_cell_length_a       4.556970497031772
_cell_length_b       3.611592003001331
_cell_length_c       9.966869354248047
_cell_angle_alpha    103.93295983683382
_cell_angle_beta     86.68046713642578
_cell_angle_gamma    142.20186864887722

_space_group_name_H-M_alt    "P 1"
_space_group_IT_number       1

loop_
  _space_group_symop_operation_xyz
  'x, y, z'

loop_
  _atom_site_type_symbol
  _atom_site_label
  _atom_site_symmetry_multiplicity
  _atom_site_fract_x
  _atom_site_fract_y
  _atom_site_fract_z
  _atom_site_occupancy
  Pd  Pd1       1.0  0.08202701061964035  0.8803229928016663  0.07137808948755264  1.0000
  Pd  Pd2       1.0  0.35650134086608887  0.11210155487060547  0.8847149610519409  1.0000
  S   S1        1.0  0.649265468120575  0.7495682239532471  0.4290648102760315  1.0000
  Sc  Sc1       1.0  0.290817528963089  0.7549821138381958  0.681850790977478  1.0000
  Sc  Sc2       1.0  0.2707119584083557  0.4589616358280182  0.45880910754203796  1.0000
  Sc  Sc3       1.0  0.6696305871009827  0.5418341755867004  0.6872111558914185  1.0000
  Sc  Sc4       1.0  0.9272723197937012  0.23044560849666595  0.07683254033327103  1.0000
  Sc  Sc5       1.0  0.3040921092033386  0.5112187266349792  0.37424328923225403  1.0000
  Tl  Tl1       1.0  0.9722344279289246  0.4369134306907654  0.44016939401626587  1.0000
