data_image0
_chemical_formula_structural       As3Ti4
_chemical_formula_sum              "As3 Ti4"
_cell_length_a       4.501781798524459
_cell_length_b       4.777754513992369
_cell_length_c       5.154135704040527
_cell_angle_alpha    112.40154316290152
_cell_angle_beta     112.98016250101408
_cell_angle_gamma    91.8423581573937

_space_group_name_H-M_alt    "P 1"
_space_group_IT_number       1

loop_
  _space_group_symop_operation_xyz
  'x, y, z'

loop_
  _atom_site_type_symbol
  _atom_site_label
  _atom_site_symmetry_multiplicity
  _atom_site_fract_x
  _atom_site_fract_y
  _atom_site_fract_z
  _atom_site_occupancy
  As  As1       1.0  0.4511687755584717  0.6029497385025024  0.6179312467575073  1.0000
  As  As2       1.0  0.0709308385848999  0.04760436713695526  0.871984601020813  1.0000
  As  As3       1.0  0.8955320119857788  0.5407933592796326  0.7319811582565308  1.0000
  Ti  Ti1       1.0  0.45024606585502625  0.6330204010009766  0.7342453002929688  1.0000
  Ti  Ti2       1.0  0.7186265587806702  0.14204755425453186  0.2659163475036621  1.0000
  Ti  Ti3       1.0  0.023720666766166687  0.9237592816352844  0.11162975430488582  1.0000
  Ti  Ti4       1.0  0.9939696192741394  0.6195359230041504  0.6236029863357544  1.0000
