data_image0
_chemical_formula_structural       AsSTi5
_chemical_formula_sum              "As1 S1 Ti5"
_cell_length_a       4.265303165195665
_cell_length_b       4.767666676103975
_cell_length_c       6.840442657470703
_cell_angle_alpha    106.97061875034339
_cell_angle_beta     105.44840431389315
_cell_angle_gamma    91.0389578381736

_space_group_name_H-M_alt    "P 1"
_space_group_IT_number       1

loop_
  _space_group_symop_operation_xyz
  'x, y, z'

loop_
  _atom_site_type_symbol
  _atom_site_label
  _atom_site_symmetry_multiplicity
  _atom_site_fract_x
  _atom_site_fract_y
  _atom_site_fract_z
  _atom_site_occupancy
  As  As1       1.0  0.5383354425430298  0.09933341294527054  0.17998728156089783  1.0000
  S   S1        1.0  0.2898711860179901  0.5549337863922119  0.8769672513008118  1.0000
  Ti  Ti1       1.0  0.5329833626747131  0.048536255955696106  0.8739960193634033  1.0000
  Ti  Ti2       1.0  0.9341652989387512  0.9857494235038757  0.6637990474700928  1.0000
  Ti  Ti3       1.0  0.5456079840660095  0.7392662167549133  0.1735730767250061  1.0000
  Ti  Ti4       1.0  0.007142822258174419  0.21187959611415863  0.435357004404068  1.0000
  Ti  Ti5       1.0  0.9758176207542419  0.5864409804344177  0.939346194267273  1.0000
