data_image0
_chemical_formula_structural       Be2ClSrTa2Te2Zr
_chemical_formula_sum              "Be2 Cl1 Sr1 Ta2 Te2 Zr1"
_cell_length_a       5.904041665875726
_cell_length_b       5.936037968494962
_cell_length_c       5.89896297454834
_cell_angle_alpha    102.84138600365466
_cell_angle_beta     101.97358649255919
_cell_angle_gamma    103.45053864431762

_space_group_name_H-M_alt    "P 1"
_space_group_IT_number       1

loop_
  _space_group_symop_operation_xyz
  'x, y, z'

loop_
  _atom_site_type_symbol
  _atom_site_label
  _atom_site_symmetry_multiplicity
  _atom_site_fract_x
  _atom_site_fract_y
  _atom_site_fract_z
  _atom_site_occupancy
  Be  Be1       1.0  0.9391162395477295  0.9320544600486755  0.1004772782325745  1.0000
  Be  Be2       1.0  0.14994704723358154  0.8884747624397278  0.8873246312141418  1.0000
  Cl  Cl1       1.0  0.44684484601020813  0.1826004832983017  0.7445615530014038  1.0000
  Sr  Sr1       1.0  0.9570665955543518  0.39637434482574463  0.9898597598075867  1.0000
  Ta  Ta1       1.0  0.5182129740715027  0.7714470624923706  0.7726415395736694  1.0000
  Ta  Ta2       1.0  0.9498192071914673  0.9356834292411804  0.5039845108985901  1.0000
  Te  Te1       1.0  0.9769928455352783  0.463077574968338  0.5193768739700317  1.0000
  Te  Te2       1.0  0.47846075892448425  0.6772448420524597  0.27962809801101685  1.0000
  Zr  Zr1       1.0  0.4470077455043793  0.12193285673856735  0.2770234644412994  1.0000
