data_image0
_chemical_formula_structural       Be3Ir3Ta3
_chemical_formula_sum              "Be3 Ir3 Ta3"
_cell_length_a       4.71971166336709
_cell_length_b       4.714732136845228
_cell_length_c       5.3550496101379395
_cell_angle_alpha    89.87501136135687
_cell_angle_beta     90.07620343287577
_cell_angle_gamma    89.98378723464883

_space_group_name_H-M_alt    "P 1"
_space_group_IT_number       1

loop_
  _space_group_symop_operation_xyz
  'x, y, z'

loop_
  _atom_site_type_symbol
  _atom_site_label
  _atom_site_symmetry_multiplicity
  _atom_site_fract_x
  _atom_site_fract_y
  _atom_site_fract_z
  _atom_site_occupancy
  Be  Be1       1.0  0.34450390934944153  0.9580066800117493  0.9326049685478209  1.0000
  Be  Be2       1.0  0.11108559370040894  0.7100510001182556  0.6644884943962098  1.0000
  Be  Be3       1.0  0.6736238598823547  0.9638147354125977  0.6659996509552002  1.0000
  Ir  Ir1       1.0  0.12978482246398926  0.4753870964050293  0.1607046127319336  1.0000
  Ir  Ir2       1.0  0.10446548461914062  0.23559258878231049  0.666840136051178  1.0000
  Ir  Ir3       1.0  0.3620377779006958  0.956218421459198  0.3489024937152863  1.0000
  Ta  Ta1       1.0  0.6210314631462097  0.4694247245788574  0.9016247391700745  1.0000
  Ta  Ta2       1.0  0.6308693885803223  0.4779835045337677  0.43195703625679016  1.0000
  Ta  Ta3       1.0  0.8501580357551575  0.9865161180496216  0.16086021065711975  1.0000
