data_image0
_chemical_formula_structural       Be3Ir3Ta3
_chemical_formula_sum              "Be3 Ir3 Ta3"
_cell_length_a       3.657399817523917
_cell_length_b       5.1588939636777615
_cell_length_c       7.049837589263916
_cell_angle_alpha    111.17901727783011
_cell_angle_beta     104.65664874374941
_cell_angle_gamma    89.97713568532568

_space_group_name_H-M_alt    "P 1"
_space_group_IT_number       1

loop_
  _space_group_symop_operation_xyz
  'x, y, z'

loop_
  _atom_site_type_symbol
  _atom_site_label
  _atom_site_symmetry_multiplicity
  _atom_site_fract_x
  _atom_site_fract_y
  _atom_site_fract_z
  _atom_site_occupancy
  Be  Be1       1.0  0.6647616028785706  0.2800106406211853  0.9345726370811462  1.0000
  Be  Be2       1.0  0.9170669317245483  0.24065551161766052  0.42653903365135193  1.0000
  Be  Be3       1.0  0.44267261028289795  0.03852193430066109  0.4648056924343109  1.0000
  Ir  Ir1       1.0  0.29447174072265625  0.2371087521314621  0.18532681465148926  1.0000
  Ir  Ir2       1.0  0.5146795511245728  0.5123491883277893  0.6225264072418213  1.0000
  Ir  Ir3       1.0  0.7168064713478088  0.8970777988433838  0.019696200266480415  1.0000
  Ta  Ta1       1.0  0.055168889462947845  0.9632092714309692  0.716027021408081  1.0000
  Ta  Ta2       1.0  0.8482726216316223  0.6568363904953003  0.3055307865142822  1.0000
  Ta  Ta3       1.0  0.17003372311592102  0.5691777467727661  0.9371743202209473  1.0000
