data_image0
_chemical_formula_structural       Be2ClErPdSbTaTeXe
_chemical_formula_sum              "Be2 Cl1 Er1 Pd1 Sb1 Ta1 Te1 Xe1"
_cell_length_a       6.257237865189928
_cell_length_b       6.274874928895473
_cell_length_c       6.419236660003662
_cell_angle_alpha    66.38414675832449
_cell_angle_beta     66.32313206269468
_cell_angle_gamma    65.45216146864557

_space_group_name_H-M_alt    "P 1"
_space_group_IT_number       1

loop_
  _space_group_symop_operation_xyz
  'x, y, z'

loop_
  _atom_site_type_symbol
  _atom_site_label
  _atom_site_symmetry_multiplicity
  _atom_site_fract_x
  _atom_site_fract_y
  _atom_site_fract_z
  _atom_site_occupancy
  Be  Be1       1.0  0.4287131726741791  0.6484591960906982  0.8236988782882692  1.0000
  Be  Be2       1.0  0.11548919230699539  0.9335155487060547  0.9104580283164979  1.0000
  Cl  Cl1       1.0  0.45172104239463806  0.9148731231689453  0.4808560609817505  1.0000
  Er  Er1       1.0  0.5875973701477051  0.9524942636489868  0.9915322661399842  1.0000
  Pd  Pd1       1.0  0.16349615156650543  0.39525848627090454  0.0403239279985428  1.0000
  Sb  Sb1       1.0  0.2192879319190979  0.6414875984191895  0.24910870194435122  1.0000
  Ta  Ta1       1.0  0.056941647082567215  0.7701113820075989  0.6701651811599731  1.0000
  Te  Te1       1.0  0.8277302980422974  0.3579559028148651  0.8970558643341064  1.0000
  Xe  Xe1       1.0  0.789813756942749  0.292259156703949  0.4494740068912506  1.0000
