data_image0
_chemical_formula_structural       Al5AsGaIZr3
_chemical_formula_sum              "Al5 As1 Ga1 I1 Zr3"
_cell_length_a       6.542013016857896
_cell_length_b       6.810249801184614
_cell_length_c       7.039597511291504
_cell_angle_alpha    106.27888777138952
_cell_angle_beta     90.06063361492339
_cell_angle_gamma    90.83658588597622

_space_group_name_H-M_alt    "P 1"
_space_group_IT_number       1

loop_
  _space_group_symop_operation_xyz
  'x, y, z'

loop_
  _atom_site_type_symbol
  _atom_site_label
  _atom_site_symmetry_multiplicity
  _atom_site_fract_x
  _atom_site_fract_y
  _atom_site_fract_z
  _atom_site_occupancy
  Al  Al1       1.0  0.8538336753845215  0.6535731554031372  0.09558346867561338  1.0000
  Al  Al2       1.0  0.2741859257221222  0.21883898973464966  0.08788168430328369  1.0000
  Al  Al3       1.0  0.13622310757637024  0.9204307794570923  0.3160044252872467  1.0000
  Al  Al4       1.0  0.2637445330619812  0.727777898311615  0.3682885766029358  1.0000
  Al  Al5       1.0  0.7678012251853943  0.5443832278251648  0.7436748147010803  1.0000
  As  As1       1.0  0.6616408824920654  0.10733165591955185  0.7108911275863647  1.0000
  Ga  Ga1       1.0  0.25977015495300293  0.13178277015686035  0.6582661271095276  1.0000
  I   I1        1.0  0.2783365845680237  0.853943407535553  0.6072976589202881  1.0000
  Zr  Zr1       1.0  0.7780190110206604  0.41400790214538574  0.5590894818305969  1.0000
  Zr  Zr2       1.0  0.6389212608337402  0.7858032584190369  0.4741508066654206  1.0000
  Zr  Zr3       1.0  0.13902387022972107  0.9458919167518616  0.9853868484497071  1.0000
