data_image0
_chemical_formula_structural       Al4I2NOPtZr2
_chemical_formula_sum              "Al4 I2 N1 O1 Pt1 Zr2"
_cell_length_a       5.871271751835301
_cell_length_b       6.011629839080643
_cell_length_c       7.6161041259765625
_cell_angle_alpha    90.639758847952
_cell_angle_beta     89.56412329739808
_cell_angle_gamma    90.0792531747253

_space_group_name_H-M_alt    "P 1"
_space_group_IT_number       1

loop_
  _space_group_symop_operation_xyz
  'x, y, z'

loop_
  _atom_site_type_symbol
  _atom_site_label
  _atom_site_symmetry_multiplicity
  _atom_site_fract_x
  _atom_site_fract_y
  _atom_site_fract_z
  _atom_site_occupancy
  Al  Al1       1.0  0.8346452713012695  0.3713979721069336  0.9381686449050903  1.0000
  Al  Al2       1.0  0.333359956741333  0.9724614024162291  0.9280567169189453  1.0000
  Al  Al3       1.0  0.8373594284057617  0.4426294267177581  0.03931058570742607  1.0000
  Al  Al4       1.0  0.8406332731246948  0.19638998806476593  0.06586300581693649  1.0000
  I   I1        1.0  0.3342358767986297  0.8972404003143309  0.631866455078125  1.0000
  I   I2        1.0  0.8358862996101379  0.6022223830223083  0.9735780358314514  1.0000
  N   N1        1.0  0.3287261128425598  0.24948918819427487  0.321479856967926  1.0000
  O   O1        1.0  0.7077527642250061  0.5339887142181396  0.6323491930961609  1.0000
  Pt  Pt1       1.0  0.8344148397445679  0.3847099840641022  0.9697285294532776  1.0000
  Zr  Zr1       1.0  0.830008327960968  0.7640270590782166  0.4096832275390625  1.0000
  Zr  Zr2       1.0  0.337376207113266  0.3270423710346222  0.6626626253128052  1.0000
