data_image0
_chemical_formula_structural       Al7CrGa3
_chemical_formula_sum              "Al7 Cr1 Ga3"
_cell_length_a       6.261094034920256
_cell_length_b       7.204638635206985
_cell_length_c       6.5609965324401855
_cell_angle_alpha    88.43479232854263
_cell_angle_beta     72.3938599885148
_cell_angle_gamma    72.07873835057511

_space_group_name_H-M_alt    "P 1"
_space_group_IT_number       1

loop_
  _space_group_symop_operation_xyz
  'x, y, z'

loop_
  _atom_site_type_symbol
  _atom_site_label
  _atom_site_symmetry_multiplicity
  _atom_site_fract_x
  _atom_site_fract_y
  _atom_site_fract_z
  _atom_site_occupancy
  Al  Al1       1.0  0.2915017604827881  0.046420365571975715  0.0004973537870682818  1.0000
  Al  Al2       1.0  0.25957363843917836  0.9352044463157655  0.49729815125465393  1.0000
  Al  Al3       1.0  0.8460814952850341  0.22755621373653415  0.011415061540901661  1.0000
  Al  Al4       1.0  0.28683528304100037  0.5180829763412476  0.7571045160293579  1.0000
  Al  Al5       1.0  0.585925817489624  0.2358275800943375  0.5336872339248656  1.0000
  Al  Al6       1.0  0.0022698640823363885  0.5964165925979615  0.10459211468696594  1.0000
  Al  Al7       1.0  0.5701414346694945  0.9594986438751222  0.15784007310867312  1.0000
  Cr  Cr1       1.0  0.8022445440292357  0.3597076833248139  0.6742349863052368  1.0000
  Ga  Ga1       1.0  0.04678620770573615  0.25405287742614746  0.9335566759109498  1.0000
  Ga  Ga2       1.0  0.6599259972572327  0.8313381075859071  0.54465252161026  1.0000
  Ga  Ga3       1.0  0.5967965722084045  0.49373733997344976  0.9538660645484924  1.0000
