data_image0
_chemical_formula_structural       Al9AsGa
_chemical_formula_sum              "Al9 As1 Ga1"
_cell_length_a       6.286342173714193
_cell_length_b       7.948255601391518
_cell_length_c       7.175978183746338
_cell_angle_alpha    88.48001901554854
_cell_angle_beta     67.35025228021979
_cell_angle_gamma    73.04980061057984

_space_group_name_H-M_alt    "P 1"
_space_group_IT_number       1

loop_
  _space_group_symop_operation_xyz
  'x, y, z'

loop_
  _atom_site_type_symbol
  _atom_site_label
  _atom_site_symmetry_multiplicity
  _atom_site_fract_x
  _atom_site_fract_y
  _atom_site_fract_z
  _atom_site_occupancy
  Al  Al1       1.0  0.020768482238054276  0.6736927032470703  0.15671154856681824  1.0000
  Al  Al2       1.0  0.5019550323486328  0.06312915682792664  0.267433226108551  1.0000
  Al  Al3       1.0  0.5105268359184265  0.9616747498512268  0.9786162376403809  1.0000
  Al  Al4       1.0  0.00277101993560791  0.5974157452583313  0.6750423312187195  1.0000
  Al  Al5       1.0  0.010627936571836472  0.746692955493927  0.8005051016807556  1.0000
  Al  Al6       1.0  0.014538172632455826  0.10169626772403717  0.9332601428031921  1.0000
  Al  Al7       1.0  0.015226760879158974  0.07072649896144867  0.4032825529575348  1.0000
  Al  Al8       1.0  0.5034000873565674  0.03110335022211075  0.9977090954780579  1.0000
  Al  Al9       1.0  0.013745994307100773  0.5779314041137695  0.7270764112472534  1.0000
  As  As1       1.0  0.4998340308666229  0.5218067169189453  0.19060632586479187  1.0000
  Ga  Ga1       1.0  0.9984474182128906  0.1550368070602417  0.9951995015144348  1.0000
