data_image0
_chemical_formula_structural       Al7As2YbZr
_chemical_formula_sum              "Al7 As2 Yb1 Zr1"
_cell_length_a       5.376683202736049
_cell_length_b       5.80027449675851
_cell_length_c       7.519016742706299
_cell_angle_alpha    90.64673005842879
_cell_angle_beta     89.97670462235074
_cell_angle_gamma    109.75038373831156

_space_group_name_H-M_alt    "P 1"
_space_group_IT_number       1

loop_
  _space_group_symop_operation_xyz
  'x, y, z'

loop_
  _atom_site_type_symbol
  _atom_site_label
  _atom_site_symmetry_multiplicity
  _atom_site_fract_x
  _atom_site_fract_y
  _atom_site_fract_z
  _atom_site_occupancy
  Al  Al1       1.0  0.7322473526000977  0.850913405418396  0.5441195368766785  1.0000
  Al  Al2       1.0  0.4777318835258484  0.7184749841690063  0.6969954371452332  1.0000
  Al  Al3       1.0  0.7822008728981018  0.8191161751747131  0.310284823179245  1.0000
  Al  Al4       1.0  0.35029834508895874  0.11241244524717331  0.3914050459861756  1.0000
  Al  Al5       1.0  0.34164711833000183  0.30504947900772095  0.9536564946174623  1.0000
  Al  Al6       1.0  0.23343320190906525  0.3862827718257904  0.01782926172018051  1.0000
  Al  Al7       1.0  0.31127721071243286  0.8658044934272766  0.7415572404861451  1.0000
  As  As1       1.0  0.6470711827278137  0.5750637650489807  0.8605085611343385  1.0000
  As  As2       1.0  0.19831876456737518  0.10754501074552536  0.32953110337257385  1.0000
  Yb  Yb1       1.0  0.339112788438797  0.8998333215713501  0.9577577114105226  1.0000
  Zr  Zr1       1.0  0.7652930021286011  0.23925846815109253  0.2577103078365326  1.0000
