data_image0
_chemical_formula_structural       Al4HIPtZr4
_chemical_formula_sum              "Al4 H1 I1 Pt1 Zr4"
_cell_length_a       5.839224423692749
_cell_length_b       6.634234121089532
_cell_length_c       7.567147254943848
_cell_angle_alpha    92.99999192433813
_cell_angle_beta     88.58557755733844
_cell_angle_gamma    87.05876102114954

_space_group_name_H-M_alt    "P 1"
_space_group_IT_number       1

loop_
  _space_group_symop_operation_xyz
  'x, y, z'

loop_
  _atom_site_type_symbol
  _atom_site_label
  _atom_site_symmetry_multiplicity
  _atom_site_fract_x
  _atom_site_fract_y
  _atom_site_fract_z
  _atom_site_occupancy
  Al  Al1       1.0  0.6604958772659302  0.14763762056827545  0.6923341751098634  1.0000
  Al  Al2       1.0  0.15306594967842102  0.013446583412587643  0.4636318087577819  1.0000
  Al  Al3       1.0  0.7261446118354797  0.061284713447093964  0.7818356752395629  1.0000
  Al  Al4       1.0  0.16771255433559418  0.5891149044036865  0.20483739674091336  1.0000
  H   H1        1.0  0.6938151121139526  0.16859053075313568  0.5292177200317383  1.0000
  I   I1        1.0  0.46163469552993774  0.35474082827568054  0.060237385332584374  1.0000
  Pt  Pt1       1.0  0.1363511085510254  0.004708241671323776  0.807039976119995  1.0000
  Zr  Zr1       1.0  0.1703125685453415  0.42080140113830566  0.5630143880844116  1.0000
  Zr  Zr2       1.0  0.6604267954826355  0.6394858360290527  0.10805866867303847  1.0000
  Zr  Zr3       1.0  0.4598678648471832  0.5043590664863586  0.43846568465232844  1.0000
  Zr  Zr4       1.0  0.14304178953170776  0.5879117250442505  0.19320149719715116  1.0000
