data_image0
_chemical_formula_structural       La5NiO3Zn
_chemical_formula_sum              "La5 Ni1 O3 Zn1"
_cell_length_a       4.620158815601408
_cell_length_b       6.030396054629243
_cell_length_c       7.063626289367676
_cell_angle_alpha    116.11285602351437
_cell_angle_beta     108.83466110848553
_cell_angle_gamma    86.25057301366955

_space_group_name_H-M_alt    "P 1"
_space_group_IT_number       1

loop_
  _space_group_symop_operation_xyz
  'x, y, z'

loop_
  _atom_site_type_symbol
  _atom_site_label
  _atom_site_symmetry_multiplicity
  _atom_site_fract_x
  _atom_site_fract_y
  _atom_site_fract_z
  _atom_site_occupancy
  La  La1       1.0  0.7591862082481384  0.5275529026985168  0.8777230381965637  1.0000
  La  La2       1.0  0.20833706855773926  0.21239005029201508  0.6434081196784973  1.0000
  La  La3       1.0  0.09754405915737152  0.21374854445457458  0.05309491604566574  1.0000
  La  La4       1.0  0.1995382010936737  0.4792035222053528  0.6023370623588562  1.0000
  La  La5       1.0  0.21399261057376862  0.9794781804084778  0.6435474753379823  1.0000
  Ni  Ni1       1.0  0.25344109535217285  0.4992157220840454  0.23495352268218997  1.0000
  O   O1        1.0  0.5405584573745728  0.6997554898262024  0.14395646750926977  1.0000
  O   O2        1.0  0.038676999509334564  0.21517710387706757  0.9430373907089232  1.0000
  O   O3        1.0  0.02914080210030079  0.014880259521305561  0.36841925978660583  1.0000
  Zn  Zn1       1.0  0.7303066849708557  0.9846571683883667  0.39678782224655157  1.0000
