data_image0
_chemical_formula_structural       La3Ni3O4
_chemical_formula_sum              "La3 Ni3 O4"
_cell_length_a       5.373036098207227
_cell_length_b       6.149290880822836
_cell_length_c       6.589203357696533
_cell_angle_alpha    115.02093119146
_cell_angle_beta     114.32042944944726
_cell_angle_gamma    88.89145803245405

_space_group_name_H-M_alt    "P 1"
_space_group_IT_number       1

loop_
  _space_group_symop_operation_xyz
  'x, y, z'

loop_
  _atom_site_type_symbol
  _atom_site_label
  _atom_site_symmetry_multiplicity
  _atom_site_fract_x
  _atom_site_fract_y
  _atom_site_fract_z
  _atom_site_occupancy
  La  La1       1.0  0.9493585228919983  0.15497367084026337  0.123298779129982  1.0000
  La  La2       1.0  0.40243345499038696  0.10155825316905975  0.02901291847229004  1.0000
  La  La3       1.0  0.721092939376831  0.60289067029953  0.5874866843223572  1.0000
  Ni  Ni1       1.0  0.8424093723297119  0.016435522586107254  0.8556292653083801  1.0000
  Ni  Ni2       1.0  0.15470929443836212  0.33131706714630127  0.2305564284324646  1.0000
  Ni  Ni3       1.0  0.6426921486854553  0.819460391998291  0.34719327092170715  1.0000
  O   O1        1.0  0.981753945350647  0.8020395040512085  0.5487659573554993  1.0000
  O   O2        1.0  0.6147618293762207  0.4705387651920318  0.03037690371274948  1.0000
  O   O3        1.0  0.4310086667537689  0.6193950176239014  0.11465456336736679  1.0000
  O   O4        1.0  0.8574073910713196  0.9832876920700072  0.84555584192276  1.0000
