data_image0
_chemical_formula_structural       BLa4NiO2Te2
_chemical_formula_sum              "B1 La4 Ni1 O2 Te2"
_cell_length_a       4.780594724655326
_cell_length_b       5.831490393583176
_cell_length_c       7.781379699707031
_cell_angle_alpha    114.10457181038272
_cell_angle_beta     105.68252264059714
_cell_angle_gamma    88.20175686392993

_space_group_name_H-M_alt    "P 1"
_space_group_IT_number       1

loop_
  _space_group_symop_operation_xyz
  'x, y, z'

loop_
  _atom_site_type_symbol
  _atom_site_label
  _atom_site_symmetry_multiplicity
  _atom_site_fract_x
  _atom_site_fract_y
  _atom_site_fract_z
  _atom_site_occupancy
  B   B1        1.0  0.4433339834213257  0.3230029344558716  0.8150521516799928  1.0000
  La  La1       1.0  0.17680124938488007  0.049453817307949066  0.5439931750297546  1.0000
  La  La2       1.0  0.1375754028558731  0.8846954703330994  0.4376974105834961  1.0000
  La  La3       1.0  0.25189802050590515  0.584829568862915  0.1821268945932388  1.0000
  La  La4       1.0  0.1798427700996399  0.7712522745132446  0.6488862037658691  1.0000
  Ni  Ni1       1.0  0.70118647813797  0.0985635295510292  0.05801909044384957  1.0000
  O   O1        1.0  0.5902678966522217  0.030507903546094894  0.3803647160530091  1.0000
  O   O2        1.0  0.8462052345275879  0.543469250202179  0.9815878868103028  1.0000
  Te  Te1       1.0  0.6827152967453003  0.07234252989292145  0.6853588819503784  1.0000
  Te  Te2       1.0  0.734977126121521  0.3337160348892212  0.4202031791210175  1.0000
