data_image0
_chemical_formula_structural       La4Ni3Tl3
_chemical_formula_sum              "La4 Ni3 Tl3"
_cell_length_a       5.812720674609264
_cell_length_b       6.7544045632513985
_cell_length_c       7.590427875518799
_cell_angle_alpha    112.51866832416012
_cell_angle_beta     110.56524420775801
_cell_angle_gamma    86.98712510271505

_space_group_name_H-M_alt    "P 1"
_space_group_IT_number       1

loop_
  _space_group_symop_operation_xyz
  'x, y, z'

loop_
  _atom_site_type_symbol
  _atom_site_label
  _atom_site_symmetry_multiplicity
  _atom_site_fract_x
  _atom_site_fract_y
  _atom_site_fract_z
  _atom_site_occupancy
  La  La1       1.0  0.37113115191459656  0.5441974997520447  0.3063497543334961  1.0000
  La  La2       1.0  0.08009276539087296  0.06629714369773865  0.28525853157043457  1.0000
  La  La3       1.0  0.12691473960876465  0.07775621861219406  0.6388684511184692  1.0000
  La  La4       1.0  0.3541213274002075  0.7409127950668335  0.5215591192245483  1.0000
  Ni  Ni1       1.0  0.8196830153465271  0.8411193490028381  0.5874705910682678  1.0000
  Ni  Ni2       1.0  0.12367701530456543  0.5962163209915161  0.7374916076660156  1.0000
  Ni  Ni3       1.0  0.11877625435590744  0.33004552125930786  0.11399629712104797  1.0000
  Tl  Tl1       1.0  0.5983463525772095  0.979610800743103  0.9991559386253357  1.0000
  Tl  Tl2       1.0  0.6104877591133118  0.0947304219007492  0.960253894329071  1.0000
  Tl  Tl3       1.0  0.8502933979034424  0.588977038860321  0.4532237648963928  1.0000
