data_image0
_chemical_formula_structural       BLa5Ni2OTl
_chemical_formula_sum              "B1 La5 Ni2 O1 Tl1"
_cell_length_a       5.1250842481597045
_cell_length_b       6.695296746646499
_cell_length_c       7.1973161697387695
_cell_angle_alpha    112.35524830176453
_cell_angle_beta     111.54761530151885
_cell_angle_gamma    89.48968520177344

_space_group_name_H-M_alt    "P 1"
_space_group_IT_number       1

loop_
  _space_group_symop_operation_xyz
  'x, y, z'

loop_
  _atom_site_type_symbol
  _atom_site_label
  _atom_site_symmetry_multiplicity
  _atom_site_fract_x
  _atom_site_fract_y
  _atom_site_fract_z
  _atom_site_occupancy
  B   B1        1.0  0.6727308630943298  0.34964561462402344  0.24252413213253024  1.0000
  La  La1       1.0  0.16014601290225983  0.25602081418037415  0.23438897728919986  1.0000
  La  La2       1.0  0.4363284409046173  0.8310691118240356  0.32131871581077576  1.0000
  La  La3       1.0  0.7909024953842163  0.6041697859764099  0.9009879827499391  1.0000
  La  La4       1.0  0.6958000659942627  0.21413782238960266  0.9812517762184144  1.0000
  La  La5       1.0  0.2568393349647522  0.2647086977958679  0.9065651297569276  1.0000
  Ni  Ni1       1.0  0.206495001912117  0.3147086501121521  0.6416465640068054  1.0000
  Ni  Ni2       1.0  0.28905147314071655  0.5581949353218079  0.057976953685283696  1.0000
  O   O1        1.0  0.3651794195175171  0.9095826745033264  0.6463910937309265  1.0000
  Tl  Tl1       1.0  0.8792362809181213  0.047497887164354324  0.645397424697876  1.0000
