data_image0
_chemical_formula_structural       BLa2Ni3O3Te
_chemical_formula_sum              "B1 La2 Ni3 O3 Te1"
_cell_length_a       5.043856118450606
_cell_length_b       5.566317245399324
_cell_length_c       7.947858810424805
_cell_angle_alpha    112.29084868216624
_cell_angle_beta     108.90110815967952
_cell_angle_gamma    89.314447234347

_space_group_name_H-M_alt    "P 1"
_space_group_IT_number       1

loop_
  _space_group_symop_operation_xyz
  'x, y, z'

loop_
  _atom_site_type_symbol
  _atom_site_label
  _atom_site_symmetry_multiplicity
  _atom_site_fract_x
  _atom_site_fract_y
  _atom_site_fract_z
  _atom_site_occupancy
  B   B1        1.0  0.16648638248443604  0.2719239890575409  0.7261669635772704  1.0000
  La  La1       1.0  0.40406715869903564  0.8854034543037413  0.07167708873748772  1.0000
  La  La2       1.0  0.6801630854606628  0.10726798325777052  0.8609401583671569  1.0000
  Ni  Ni1       1.0  0.4092300236225128  0.5956307649612427  0.737732708454132  1.0000
  Ni  Ni2       1.0  0.7038280963897705  0.7723956108093262  0.37529119849205006  1.0000
  Ni  Ni3       1.0  0.2761373817920685  0.8487472534179686  0.1089061647653579  1.0000
  O   O1        1.0  0.5722455382347107  0.5644409656524658  0.4154338240623473  1.0000
  O   O2        1.0  0.03899961709976196  0.11045831441879271  0.5372978448867797  1.0000
  O   O3        1.0  0.5886598229408264  0.1182446777820587  0.20132009685039517  1.0000
  Te  Te1       1.0  0.964146614074707  0.5654194951057434  0.5678259730339049  1.0000
