data_image0
_chemical_formula_structural       Er3O2Se5
_chemical_formula_sum              "Er3 O2 Se5"
_cell_length_a       5.1155908554693035
_cell_length_b       5.83158041419392
_cell_length_c       6.8821258544921875
_cell_angle_alpha    90.26577600673592
_cell_angle_beta     93.22523936887352
_cell_angle_gamma    89.27091544029449

_space_group_name_H-M_alt    "P 1"
_space_group_IT_number       1

loop_
  _space_group_symop_operation_xyz
  'x, y, z'

loop_
  _atom_site_type_symbol
  _atom_site_label
  _atom_site_symmetry_multiplicity
  _atom_site_fract_x
  _atom_site_fract_y
  _atom_site_fract_z
  _atom_site_occupancy
  Er  Er1       1.0  0.026883555576205254  0.5349451303482056  0.5574018955230713  1.0000
  Er  Er2       1.0  0.07959912717342377  0.4040244519710541  0.9079837799072266  1.0000
  Er  Er3       1.0  0.5736679434776306  0.8590801954269409  0.2540634572505951  1.0000
  O   O1        1.0  0.09006775915622711  0.7067386507987976  0.35740405321121216  1.0000
  O   O2        1.0  0.9217120409011841  0.4289662837982178  0.8388739228248596  1.0000
  Se  Se1       1.0  0.6226890087127686  0.7236220836639404  0.036085184663534164  1.0000
  Se  Se2       1.0  0.1269746571779251  0.780794084072113  0.08252588659524918  1.0000
  Se  Se3       1.0  0.5967763066291809  0.6007630228996277  0.4113481342792511  1.0000
  Se  Se4       1.0  0.2906433641910553  0.07443290203809738  0.5509812235832214  1.0000
  Se  Se5       1.0  0.5897269248962402  0.06160177290439606  0.40644991397857666  1.0000
