data_image0
_chemical_formula_structural       Er4O2Se4
_chemical_formula_sum              "Er4 O2 Se4"
_cell_length_a       4.53717649109542
_cell_length_b       5.8375633857028735
_cell_length_c       6.1844987869262695
_cell_angle_alpha    116.30620109618992
_cell_angle_beta     112.80054411580947
_cell_angle_gamma    94.90053449461072

_space_group_name_H-M_alt    "P 1"
_space_group_IT_number       1

loop_
  _space_group_symop_operation_xyz
  'x, y, z'

loop_
  _atom_site_type_symbol
  _atom_site_label
  _atom_site_symmetry_multiplicity
  _atom_site_fract_x
  _atom_site_fract_y
  _atom_site_fract_z
  _atom_site_occupancy
  Er  Er1       1.0  0.5487539172172546  0.011793090961873531  0.5311781764030457  1.0000
  Er  Er2       1.0  0.9752050638198853  0.24480938911437988  0.2755725085735321  1.0000
  Er  Er3       1.0  0.049405600875616074  0.8541865944862366  0.6255071759223938  1.0000
  Er  Er4       1.0  0.5772897601127625  0.07551468908786774  0.13883256912231445  1.0000
  O   O1        1.0  0.06968239694833755  0.6457077860832214  0.7790840864181519  1.0000
  O   O2        1.0  0.4761076271533966  0.739217221736908  0.5414571762084961  1.0000
  Se  Se1       1.0  0.47480061650276184  0.6525459289550781  0.8661686182022094  1.0000
  Se  Se2       1.0  0.49297896027565  0.17985117435455322  0.7489564418792725  1.0000
  Se  Se3       1.0  0.9738363027572632  0.16685321927070618  0.7177824378013611  1.0000
  Se  Se4       1.0  0.9597691297531128  0.2106471061706543  0.11401937901973723  1.0000
