data_image0
_chemical_formula_structural       ErGeIO2PbSe3Zn
_chemical_formula_sum              "Er1 Ge1 I1 O2 Pb1 Se3 Zn1"
_cell_length_a       5.192472129030279
_cell_length_b       5.8588200164367095
_cell_length_c       7.965900421142578
_cell_angle_alpha    91.75581426885732
_cell_angle_beta     91.65022244000536
_cell_angle_gamma    87.69641048624342

_space_group_name_H-M_alt    "P 1"
_space_group_IT_number       1

loop_
  _space_group_symop_operation_xyz
  'x, y, z'

loop_
  _atom_site_type_symbol
  _atom_site_label
  _atom_site_symmetry_multiplicity
  _atom_site_fract_x
  _atom_site_fract_y
  _atom_site_fract_z
  _atom_site_occupancy
  Er  Er1       1.0  0.3167068660259247  0.6163556575775146  0.1276574581861496  1.0000
  Ge  Ge1       1.0  0.3257724642753601  0.24577733874320984  0.7146726846694946  1.0000
  I   I1        1.0  0.31441715359687805  0.77311772108078  0.25769901275634766  1.0000
  O   O1        1.0  0.3136104643344879  0.6160517930984497  0.7425997853279114  1.0000
  O   O2        1.0  0.8221255540847778  0.18090125918388367  0.11238671094179152  1.0000
  Pb  Pb1       1.0  0.8160302639007568  0.6593544483184814  0.768211007118225  1.0000
  Se  Se1       1.0  0.31445327401161194  0.5091492533683777  0.5162602663040161  1.0000
  Se  Se2       1.0  0.3265734016895294  0.7549664974212646  0.5698670744895935  1.0000
  Se  Se3       1.0  0.8265078663825989  0.8969122767448425  0.5618075132369995  1.0000
  Zn  Zn1       1.0  0.8237794041633606  0.836520791053772  0.5776711106300354  1.0000
