data_image0
_chemical_formula_structural       Er2GaMnO2PbSe3
_chemical_formula_sum              "Er2 Ga1 Mn1 O2 Pb1 Se3"
_cell_length_a       7.057438943895448
_cell_length_b       7.41729223019517
_cell_length_c       7.518845558166504
_cell_angle_alpha    61.45901080043218
_cell_angle_beta     61.617404644482946
_cell_angle_gamma    60.86898696701299

_space_group_name_H-M_alt    "P 1"
_space_group_IT_number       1

loop_
  _space_group_symop_operation_xyz
  'x, y, z'

loop_
  _atom_site_type_symbol
  _atom_site_label
  _atom_site_symmetry_multiplicity
  _atom_site_fract_x
  _atom_site_fract_y
  _atom_site_fract_z
  _atom_site_occupancy
  Er  Er1       1.0  0.41476136445999146  0.7075219750404358  0.5969130992889404  1.0000
  Er  Er2       1.0  0.22035858035087585  0.023170601576566696  0.5534597635269165  1.0000
  Ga  Ga1       1.0  0.16720592975616455  0.16828785836696625  0.3877559304237365  1.0000
  Mn  Mn1       1.0  0.6724676489830017  0.6895844340324402  0.9512420892715453  1.0000
  O   O1        1.0  0.869166374206543  0.14089950919151306  0.7977934479713439  1.0000
  O   O2        1.0  0.5933345556259155  0.6822298169136047  0.6062447428703308  1.0000
  Pb  Pb1       1.0  0.23342561721801758  0.7678577899932861  0.5152316689491272  1.0000
  Se  Se1       1.0  0.6050945520401001  0.6978740096092224  0.2731529772281647  1.0000
  Se  Se2       1.0  0.41929981112480164  0.24126534163951874  0.6107190847396851  1.0000
  Se  Se3       1.0  0.8075141906738281  0.08567457646131516  0.3248840868473053  1.0000
