data_image0
_chemical_formula_structural       Bi4Sb2
_chemical_formula_sum              "Bi4 Sb2"
_cell_length_a       4.461666894587738
_cell_length_b       3.171188235853452
_cell_length_c       18.338077545166016
_cell_angle_alpha    105.87998671558412
_cell_angle_beta     100.15620639838022
_cell_angle_gamma    101.93926161565962

_space_group_name_H-M_alt    "P 1"
_space_group_IT_number       1

loop_
  _space_group_symop_operation_xyz
  'x, y, z'

loop_
  _atom_site_type_symbol
  _atom_site_label
  _atom_site_symmetry_multiplicity
  _atom_site_fract_x
  _atom_site_fract_y
  _atom_site_fract_z
  _atom_site_occupancy
  Bi  Bi1       1.0  0.458823025226593  0.3489321768283844  0.6160396933555603  1.0000
  Bi  Bi2       1.0  0.48192599415779114  0.8261762261390686  0.23333337903022763  1.0000
  Bi  Bi3       1.0  0.20121917128562927  0.47067126631736755  0.5461434721946716  1.0000
  Bi  Bi4       1.0  0.8781359195709229  0.9167886972427368  0.35833072662353516  1.0000
  Sb  Sb1       1.0  0.9869437217712402  0.8326614499092102  0.14050163328647614  1.0000
  Sb  Sb2       1.0  0.3539193570613861  0.00013308043708093464  0.8952520489692688  1.0000
