data_image0
_chemical_formula_structural       Bi2Sb2Tb2
_chemical_formula_sum              "Bi2 Sb2 Tb2"
_cell_length_a       5.184665803530642
_cell_length_b       4.911681527811443
_cell_length_c       7.6887006759643555
_cell_angle_alpha    116.31230614470577
_cell_angle_beta     117.9103159758244
_cell_angle_gamma    100.30783134887088

_space_group_name_H-M_alt    "P 1"
_space_group_IT_number       1

loop_
  _space_group_symop_operation_xyz
  'x, y, z'

loop_
  _atom_site_type_symbol
  _atom_site_label
  _atom_site_symmetry_multiplicity
  _atom_site_fract_x
  _atom_site_fract_y
  _atom_site_fract_z
  _atom_site_occupancy
  Bi  Bi1       1.0  0.8574408888816833  0.6829007267951965  0.09416144341230391  1.0000
  Bi  Bi2       1.0  0.10049645602703094  0.44870927929878235  0.05476566776633262  1.0000
  Sb  Sb1       1.0  0.45113518834114075  0.8709796071052551  0.46442899107933044  1.0000
  Sb  Sb2       1.0  0.28617730736732483  0.09363986551761627  0.2493275701999664  1.0000
  Tb  Tb1       1.0  0.7848770022392273  0.021144142374396324  0.24991624057292938  1.0000
  Tb  Tb2       1.0  0.2960291802883148  0.03860282897949219  0.8331298828124999  1.0000
