data_image0
_chemical_formula_structural       BiSb5
_chemical_formula_sum              "Bi1 Sb5"
_cell_length_a       5.728301026080643
_cell_length_b       5.468316403439278
_cell_length_c       9.680213928222656
_cell_angle_alpha    99.57624535786972
_cell_angle_beta     99.53349899487998
_cell_angle_gamma    119.70220916703913

_space_group_name_H-M_alt    "P 1"
_space_group_IT_number       1

loop_
  _space_group_symop_operation_xyz
  'x, y, z'

loop_
  _atom_site_type_symbol
  _atom_site_label
  _atom_site_symmetry_multiplicity
  _atom_site_fract_x
  _atom_site_fract_y
  _atom_site_fract_z
  _atom_site_occupancy
  Bi  Bi1       1.0  0.17397069931030273  0.4013153314590454  0.9698100090026855  1.0000
  Sb  Sb1       1.0  0.6657480597496033  0.031765684485435486  0.7307111024856567  1.0000
  Sb  Sb2       1.0  0.6724061965942383  0.9240715503692627  0.7164377570152283  1.0000
  Sb  Sb3       1.0  0.5355274677276611  0.13124532997608185  0.30696743726730347  1.0000
  Sb  Sb4       1.0  0.1829099804162979  0.15852516889572144  0.18774676322937012  1.0000
  Sb  Sb5       1.0  0.1738601177930832  0.15886236727237701  0.03946983441710473  1.0000
