data_image0
_chemical_formula_structural       O2P2PrZr4
_chemical_formula_sum              "O2 P2 Pr1 Zr4"
_cell_length_a       6.058666001135924
_cell_length_b       6.263500420062793
_cell_length_c       6.671184062957764
_cell_angle_alpha    62.832333799756604
_cell_angle_beta     63.41123905842385
_cell_angle_gamma    61.19138139159071

_space_group_name_H-M_alt    "P 1"
_space_group_IT_number       1

loop_
  _space_group_symop_operation_xyz
  'x, y, z'

loop_
  _atom_site_type_symbol
  _atom_site_label
  _atom_site_symmetry_multiplicity
  _atom_site_fract_x
  _atom_site_fract_y
  _atom_site_fract_z
  _atom_site_occupancy
  O   O1        1.0  0.2751684784889221  0.5001992583274841  0.29947587847709656  1.0000
  O   O2        1.0  0.4233192503452301  0.749957799911499  0.6340165734291077  1.0000
  P   P1        1.0  0.8850693106651306  0.4177749454975128  0.4133708775043488  1.0000
  P   P2        1.0  0.9403767585754395  0.2750122845172882  0.5195996761322021  1.0000
  Pr  Pr1       1.0  0.9384637475013733  0.5594517588615417  0.056424915790557854  1.0000
  Zr  Zr1       1.0  0.41289255023002625  0.6537373065948486  0.03693252429366112  1.0000
  Zr  Zr2       1.0  0.42075663805007935  0.8954505920410156  0.49005052447319025  1.0000
  Zr  Zr3       1.0  0.40115833282470703  0.9535201787948608  0.9706414341926574  1.0000
  Zr  Zr4       1.0  0.8924504518508911  0.8067549467086792  0.8824651241302489  1.0000
