data_image0
_chemical_formula_structural       CoI3MnScTa2Tb2Zn
_chemical_formula_sum              "Co1 I3 Mn1 Sc1 Ta2 Tb2 Zn1"
_cell_length_a       5.378112601890533
_cell_length_b       6.2555419395565455
_cell_length_c       11.665495872497559
_cell_angle_alpha    111.02052480577822
_cell_angle_beta     90.19391963104223
_cell_angle_gamma    88.39872960357265

_space_group_name_H-M_alt    "P 1"
_space_group_IT_number       1

loop_
  _space_group_symop_operation_xyz
  'x, y, z'

loop_
  _atom_site_type_symbol
  _atom_site_label
  _atom_site_symmetry_multiplicity
  _atom_site_fract_x
  _atom_site_fract_y
  _atom_site_fract_z
  _atom_site_occupancy
  Co  Co1       1.0  0.843544840812683  0.8218017220497131  0.21159228682518005  1.0000
  I   I1        1.0  0.6809495091438293  0.4226112961769104  0.6713138222694397  1.0000
  I   I2        1.0  0.4680053293704986  0.25652727484703064  0.4369986951351166  1.0000
  I   I3        1.0  0.34019649028778076  0.8540348410606384  0.21843716502189636  1.0000
  Mn  Mn1       1.0  0.47480025887489313  0.3632912039756775  0.9804173707962036  1.0000
  Sc  Sc1       1.0  0.8407716155052184  0.9911008477210997  0.2109606862068176  1.0000
  Ta  Ta1       1.0  0.9782873392105101  0.4551718831062317  0.5188851356506348  1.0000
  Ta  Ta2       1.0  0.35068339109420776  0.9387899041175842  0.726207971572876  1.0000
  Tb  Tb1       1.0  0.9735528826713561  0.8531344532966614  0.44386225938796997  1.0000
  Tb  Tb2       1.0  0.35290488600730896  0.865510106086731  0.2644761800765991  1.0000
  Zn  Zn1       1.0  0.18150536715984344  0.030481152236461636  0.9425078630447388  1.0000
