data_image0
_chemical_formula_structural       CoI4Tb6
_chemical_formula_sum              "Co1 I4 Tb6"
_cell_length_a       5.979004440646852
_cell_length_b       8.72200104700363
_cell_length_c       10.86492919921875
_cell_angle_alpha    117.1864183506346
_cell_angle_beta     88.9866346240142
_cell_angle_gamma    89.56715965693445

_space_group_name_H-M_alt    "P 1"
_space_group_IT_number       1

loop_
  _space_group_symop_operation_xyz
  'x, y, z'

loop_
  _atom_site_type_symbol
  _atom_site_label
  _atom_site_symmetry_multiplicity
  _atom_site_fract_x
  _atom_site_fract_y
  _atom_site_fract_z
  _atom_site_occupancy
  Co  Co1       1.0  0.1615637093782425  0.8928722739219666  0.9896727800369263  1.0000
  I   I1        1.0  0.9219291806221008  0.13260908424854279  0.6896497607231139  1.0000
  I   I2        1.0  0.6509341597557068  0.12586896121501923  0.1178617849946022  1.0000
  I   I3        1.0  0.41807666420936584  0.5438656806945801  0.7355616092681885  1.0000
  I   I4        1.0  0.4189695119857788  0.03794311732053757  0.6834405660629272  1.0000
  Tb  Tb1       1.0  0.4209345579147339  0.24530325829982758  0.6863319277763367  1.0000
  Tb  Tb2       1.0  0.9223842024803162  0.12044022977352142  0.5725181102752686  1.0000
  Tb  Tb3       1.0  0.9232347011566162  0.7906904816627502  0.24528320133686063  1.0000
  Tb  Tb4       1.0  0.4263562858104706  0.8723675012588501  0.48463425040245056  1.0000
  Tb  Tb5       1.0  0.16392144560813904  0.5621609091758728  0.03542766720056534  1.0000
  Tb  Tb6       1.0  0.6637280583381653  0.8836988806724548  0.9820684790611267  1.0000
