data_image0
_chemical_formula_structural       Co2I4Tb5
_chemical_formula_sum              "Co2 I4 Tb5"
_cell_length_a       6.789027155863494
_cell_length_b       8.381346272231006
_cell_length_c       8.023625373840332
_cell_angle_alpha    122.30819794828807
_cell_angle_beta     89.67654367593673
_cell_angle_gamma    89.07604503065056

_space_group_name_H-M_alt    "P 1"
_space_group_IT_number       1

loop_
  _space_group_symop_operation_xyz
  'x, y, z'

loop_
  _atom_site_type_symbol
  _atom_site_label
  _atom_site_symmetry_multiplicity
  _atom_site_fract_x
  _atom_site_fract_y
  _atom_site_fract_z
  _atom_site_occupancy
  Co  Co1       1.0  0.5642347931861877  0.15012291073799133  0.45616641640663147  1.0000
  Co  Co2       1.0  0.3177267014980316  0.5520493388175964  0.4151363670825959  1.0000
  I   I1        1.0  0.8552661538124083  0.1656608134508133  0.8342352509498596  1.0000
  I   I2        1.0  0.9669439792633056  0.8999610543251038  0.46629104018211365  1.0000
  I   I3        1.0  0.4627221524715423  0.9157889485359192  0.1120738759636879  1.0000
  I   I4        1.0  0.8689661622047423  0.3404156267642975  0.9280177354812622  1.0000
  Tb  Tb1       1.0  0.5666421055793762  0.6692834496498108  0.5648677945137024  1.0000
  Tb  Tb2       1.0  0.876723289489746  0.15315240621566772  0.4536888599395752  1.0000
  Tb  Tb3       1.0  0.49571272730827326  0.4015704393386841  0.4053218960762024  1.0000
  Tb  Tb4       1.0  0.617183268070221  0.6495952010154724  0.6780574321746826  1.0000
  Tb  Tb5       1.0  0.08586812764406203  0.7927942276000977  0.7467931509017944  1.0000
