data_image0
_chemical_formula_structural       Co2I4Tb5
_chemical_formula_sum              "Co2 I4 Tb5"
_cell_length_a       5.718322513442472
_cell_length_b       7.8406327061302035
_cell_length_c       8.229865074157715
_cell_angle_alpha    117.9073209881971
_cell_angle_beta     99.1283661630211
_cell_angle_gamma    88.98688087591454

_space_group_name_H-M_alt    "P 1"
_space_group_IT_number       1

loop_
  _space_group_symop_operation_xyz
  'x, y, z'

loop_
  _atom_site_type_symbol
  _atom_site_label
  _atom_site_symmetry_multiplicity
  _atom_site_fract_x
  _atom_site_fract_y
  _atom_site_fract_z
  _atom_site_occupancy
  Co  Co1       1.0  0.26287370920181274  0.6064175963401794  0.3411288857460022  1.0000
  Co  Co2       1.0  0.7803259491920471  0.4294722080230713  0.6026027202606201  1.0000
  I   I1        1.0  0.7472665905952454  0.41968834400177  0.208354651927948  1.0000
  I   I2        1.0  0.061512455344200134  0.9423556327819824  0.7070435285568237  1.0000
  I   I3        1.0  0.7856631875038147  0.12192004919052124  0.33301645517349243  1.0000
  I   I4        1.0  0.45072197914123535  0.07137078791856766  0.714836835861206  1.0000
  Tb  Tb1       1.0  0.9823346138000488  0.20347723364830017  0.8456979393959045  1.0000
  Tb  Tb2       1.0  0.30285751819610596  0.05104465037584305  0.6234689354896545  1.0000
  Tb  Tb3       1.0  0.5676740407943726  0.6896448135375977  0.0054949764162302555  1.0000
  Tb  Tb4       1.0  0.7774114608764648  0.8893860578536987  0.4201163351535797  1.0000
  Tb  Tb5       1.0  0.3008197546005249  0.622658908367157  0.47847354412078863  1.0000
