data_image0
_chemical_formula_structural       CoI5ScTaTb3
_chemical_formula_sum              "Co1 I5 Sc1 Ta1 Tb3"
_cell_length_a       7.779318601885568
_cell_length_b       8.243245309852107
_cell_length_c       8.07194995880127
_cell_angle_alpha    110.44650163158973
_cell_angle_beta     104.34977109216725
_cell_angle_gamma    108.25193340192702

_space_group_name_H-M_alt    "P 1"
_space_group_IT_number       1

loop_
  _space_group_symop_operation_xyz
  'x, y, z'

loop_
  _atom_site_type_symbol
  _atom_site_label
  _atom_site_symmetry_multiplicity
  _atom_site_fract_x
  _atom_site_fract_y
  _atom_site_fract_z
  _atom_site_occupancy
  Co  Co1       1.0  0.7618001103401185  0.7355170845985413  0.7299858927726746  1.0000
  I   I1        1.0  0.6099770069122314  0.24769121408462524  0.4435169994831085  1.0000
  I   I2        1.0  0.4616029858589173  0.1058085486292839  0.2402571588754654  1.0000
  I   I3        1.0  0.12716032564640045  0.7358264327049255  0.41332274675369257  1.0000
  I   I4        1.0  0.08764707297086717  0.7568678259849548  0.07446891069412226  1.0000
  I   I5        1.0  0.14283281564712524  0.4251110553741455  0.44147661328315735  1.0000
  Sc  Sc1       1.0  0.7776995301246644  0.4363473355770111  0.9669306874275208  1.0000
  Ta  Ta1       1.0  0.3038506507873535  0.07130347192287445  0.7482295036315918  1.0000
  Tb  Tb1       1.0  0.7419692873954774  0.5892912745475769  0.219908207654953  1.0000
  Tb  Tb2       1.0  0.5934328436851501  0.7681653499603271  0.9607941508293152  1.0000
  Tb  Tb3       1.0  0.26606276631355286  0.23374150693416595  0.7168754935264587  1.0000
