data_image0
_chemical_formula_structural       CaCo2I4Tb4
_chemical_formula_sum              "Ca1 Co2 I4 Tb4"
_cell_length_a       6.596298214952526
_cell_length_b       8.672655818891437
_cell_length_c       8.340644836425781
_cell_angle_alpha    122.40195468825257
_cell_angle_beta     89.3570422784547
_cell_angle_gamma    87.99949184539527

_space_group_name_H-M_alt    "P 1"
_space_group_IT_number       1

loop_
  _space_group_symop_operation_xyz
  'x, y, z'

loop_
  _atom_site_type_symbol
  _atom_site_label
  _atom_site_symmetry_multiplicity
  _atom_site_fract_x
  _atom_site_fract_y
  _atom_site_fract_z
  _atom_site_occupancy
  Ca  Ca1       1.0  0.12403639405965805  0.4347754418849945  0.6126328110694885  1.0000
  Co  Co1       1.0  0.6274015307426453  0.4820975363254547  0.9963096976280212  1.0000
  Co  Co2       1.0  0.3899531960487366  0.14099222421646118  0.08787792921066284  1.0000
  I   I1        1.0  0.8709948658943176  0.6524423360824585  0.7910597324371338  1.0000
  I   I2        1.0  0.3870392143726349  0.9527674317359924  0.361600399017334  1.0000
  I   I3        1.0  0.8768811225891113  0.21196916699409485  0.9001531004905701  1.0000
  I   I4        1.0  0.8822056651115417  0.9279130101203918  0.7956522703170776  1.0000
  Tb  Tb1       1.0  0.886243462562561  0.34309977293014526  0.008972465060651302  1.0000
  Tb  Tb2       1.0  0.3710477948188782  0.6310610175132751  0.4013417363166809  1.0000
  Tb  Tb3       1.0  0.3758416771888733  0.6343572735786438  0.3838981986045838  1.0000
  Tb  Tb4       1.0  0.37822046875953674  0.4570339024066925  0.7764565348625183  1.0000
