data_image0
_chemical_formula_structural       H5Mn4Zn
_chemical_formula_sum              "H5 Mn4 Zn1"
_cell_length_a       4.026898421965666
_cell_length_b       5.966609041450173
_cell_length_c       6.236530780792236
_cell_angle_alpha    119.70008762371003
_cell_angle_beta     88.90433251584294
_cell_angle_gamma    90.65106689177551

_space_group_name_H-M_alt    "P 1"
_space_group_IT_number       1

loop_
  _space_group_symop_operation_xyz
  'x, y, z'

loop_
  _atom_site_type_symbol
  _atom_site_label
  _atom_site_symmetry_multiplicity
  _atom_site_fract_x
  _atom_site_fract_y
  _atom_site_fract_z
  _atom_site_occupancy
  H   H1        1.0  0.2704286277294159  0.24026459455490112  0.9726909399032593  1.0000
  H   H2        1.0  0.266988068819046  0.43209680914878845  0.19822406768798828  1.0000
  H   H3        1.0  0.754919707775116  0.8443210124969482  0.10764185339212418  1.0000
  H   H4        1.0  0.7674798369407654  0.4802934527397156  0.47282674908638  1.0000
  H   H5        1.0  0.7878345847129822  0.17054027318954468  0.6753475666046143  1.0000
  Mn  Mn1       1.0  0.770828127861023  0.8436223864555359  0.46879950165748596  1.0000
  Mn  Mn2       1.0  0.26598235964775085  0.8686039447784424  0.30665406584739685  1.0000
  Mn  Mn3       1.0  0.7602289319038391  0.5793903470039368  0.06796576827764511  1.0000
  Mn  Mn4       1.0  0.2651938498020172  0.31331008672714233  0.7273259162902832  1.0000
  Zn  Zn1       1.0  0.28433072566986084  0.27129337191581726  0.9569135308265686  1.0000
