data_image0
_chemical_formula_structural       CsGdH4MnPrZn2
_chemical_formula_sum              "Cs1 Gd1 H4 Mn1 Pr1 Zn2"
_cell_length_a       5.973535157559495
_cell_length_b       6.263265217571673
_cell_length_c       6.63753604888916
_cell_angle_alpha    61.123429744019305
_cell_angle_beta     59.06403022386513
_cell_angle_gamma    58.980746836821716

_space_group_name_H-M_alt    "P 1"
_space_group_IT_number       1

loop_
  _space_group_symop_operation_xyz
  'x, y, z'

loop_
  _atom_site_type_symbol
  _atom_site_label
  _atom_site_symmetry_multiplicity
  _atom_site_fract_x
  _atom_site_fract_y
  _atom_site_fract_z
  _atom_site_occupancy
  Cs  Cs1       1.0  0.4796779155731201  0.6626596450805664  0.4646303951740265  1.0000
  Gd  Gd1       1.0  0.18767631053924563  0.4404075145721435  0.7268516421318054  1.0000
  H   H1        1.0  0.7191022634506226  0.04683511331677437  0.12352201342582703  1.0000
  H   H2        1.0  0.21335269510746002  0.05009432137012481  0.6292780637741089  1.0000
  H   H3        1.0  0.48630663752555847  0.19922003149986264  0.9610581398010254  1.0000
  H   H4        1.0  0.8440272808074953  0.026097130030393597  0.6202336549758911  1.0000
  Mn  Mn1       1.0  0.8152653574943542  0.41875734925270075  0.542113721370697  1.0000
  Pr  Pr1       1.0  0.1883239001035691  0.9444056153297423  0.28979015350341797  1.0000
  Zn  Zn1       1.0  0.9729477167129517  0.30388569831848145  0.9760145545005798  1.0000
  Zn  Zn2       1.0  0.632696807384491  0.4750366806983947  0.7330529689788818  1.0000
