data_image0
_chemical_formula_structural       H5Mn2PScZn
_chemical_formula_sum              "H5 Mn2 P1 Sc1 Zn1"
_cell_length_a       5.32570164341277
_cell_length_b       5.462636082588078
_cell_length_c       6.766108512878418
_cell_angle_alpha    67.63515995871366
_cell_angle_beta     63.440436544442086
_cell_angle_gamma    58.745929193276055

_space_group_name_H-M_alt    "P 1"
_space_group_IT_number       1

loop_
  _space_group_symop_operation_xyz
  'x, y, z'

loop_
  _atom_site_type_symbol
  _atom_site_label
  _atom_site_symmetry_multiplicity
  _atom_site_fract_x
  _atom_site_fract_y
  _atom_site_fract_z
  _atom_site_occupancy
  H   H1        1.0  0.9599902033805847  0.7646664381027222  0.0008515119552612305  1.0000
  H   H2        1.0  0.9696818590164185  0.46580442786216736  0.5207366347312927  1.0000
  H   H3        1.0  0.4601779878139496  0.23365582525730133  0.5110839605331421  1.0000
  H   H4        1.0  0.1654295027256012  0.5027649998664856  0.49772176146507263  1.0000
  H   H5        1.0  0.9497026801109314  0.013535412959754467  0.036644402891397476  1.0000
  Mn  Mn1       1.0  0.45020753145217896  0.024718046188354492  0.3308466374874115  1.0000
  Mn  Mn2       1.0  0.9520673751831055  0.747313916683197  0.48946112394332886  1.0000
  P   P1        1.0  0.9136919975280762  0.399087518453598  0.9713412523269653  1.0000
  Sc  Sc1       1.0  0.4642515778541565  0.7433585524559021  0.5521729588508606  1.0000
  Zn  Zn1       1.0  0.4826475977897644  0.409565806388855  0.16596215963363647  1.0000
