data_image0
_chemical_formula_structural       H4LiLuMn2PrSc
_chemical_formula_sum              "H4 Li1 Lu1 Mn2 Pr1 Sc1"
_cell_length_a       5.567498311167451
_cell_length_b       6.028202474182371
_cell_length_c       6.324012756347656
_cell_angle_alpha    65.1352646185773
_cell_angle_beta     61.75111398137381
_cell_angle_gamma    61.9498205864685

_space_group_name_H-M_alt    "P 1"
_space_group_IT_number       1

loop_
  _space_group_symop_operation_xyz
  'x, y, z'

loop_
  _atom_site_type_symbol
  _atom_site_label
  _atom_site_symmetry_multiplicity
  _atom_site_fract_x
  _atom_site_fract_y
  _atom_site_fract_z
  _atom_site_occupancy
  H   H1        1.0  0.10216522216796875  0.7278962731361389  0.23036926984786987  1.0000
  H   H2        1.0  0.11073760688304901  0.3054511547088623  0.7475889325141907  1.0000
  H   H3        1.0  0.3436538577079773  0.5611974596977234  0.45856645703315735  1.0000
  H   H4        1.0  0.08923482894897461  0.05564427748322487  0.7194581031799316  1.0000
  Li  Li1       1.0  0.7814697027206421  0.5468712449073792  0.8960641026496887  1.0000
  Lu  Lu1       1.0  0.20731468498706818  0.05029667541384697  0.0001542568206787285  1.0000
  Mn  Mn1       1.0  0.6086364388465881  0.5608505010604858  0.2335997074842453  1.0000
  Mn  Mn2       1.0  0.6304755210876465  0.20609933137893677  0.24406525492668152  1.0000
  Pr  Pr1       1.0  0.6564913392066956  0.2258574217557907  0.6983038187026978  1.0000
  Sc  Sc1       1.0  0.09255940467119217  0.7498832941055298  0.5123940110206604  1.0000
