data_image0
_chemical_formula_structural       AlBH4LaMn3
_chemical_formula_sum              "Al1 B1 H4 La1 Mn3"
_cell_length_a       5.167711828963733
_cell_length_b       5.464890773284711
_cell_length_c       6.349526405334473
_cell_angle_alpha    64.7806412664726
_cell_angle_beta     62.43550931360156
_cell_angle_gamma    58.21152636565847

_space_group_name_H-M_alt    "P 1"
_space_group_IT_number       1

loop_
  _space_group_symop_operation_xyz
  'x, y, z'

loop_
  _atom_site_type_symbol
  _atom_site_label
  _atom_site_symmetry_multiplicity
  _atom_site_fract_x
  _atom_site_fract_y
  _atom_site_fract_z
  _atom_site_occupancy
  Al  Al1       1.0  0.9334182739257812  0.6111088991165161  0.5670879483222961  1.0000
  B   B1        1.0  0.8033002614974976  0.98261559009552  0.7710117101669312  1.0000
  H   H1        1.0  0.014823522418737411  0.8761422634124756  0.05387051403522491  1.0000
  H   H2        1.0  0.21612931787967682  0.37830597162246704  0.004664440173655748  1.0000
  H   H3        1.0  0.7995574474334717  0.4481193721294403  0.2822820544242859  1.0000
  H   H4        1.0  0.9715770483016968  0.6131066679954529  0.8929991126060485  1.0000
  La  La1       1.0  0.2095138281583786  0.8732279539108276  0.20247933268547055  1.0000
  Mn  Mn1       1.0  0.07148557901382446  0.3002431392669678  0.3739306628704071  1.0000
  Mn  Mn2       1.0  0.45562806725502014  0.9544487595558167  0.784037709236145  1.0000
  Mn  Mn3       1.0  0.47182586789131165  0.3969455361366272  0.7799359560012817  1.0000
