data_image0
_chemical_formula_structural       AlH4LaMn3Te
_chemical_formula_sum              "Al1 H4 La1 Mn3 Te1"
_cell_length_a       5.685806602778885
_cell_length_b       6.298207360734554
_cell_length_c       6.386300086975098
_cell_angle_alpha    71.93397529972671
_cell_angle_beta     62.871859930400895
_cell_angle_gamma    58.95264086802331

_space_group_name_H-M_alt    "P 1"
_space_group_IT_number       1

loop_
  _space_group_symop_operation_xyz
  'x, y, z'

loop_
  _atom_site_type_symbol
  _atom_site_label
  _atom_site_symmetry_multiplicity
  _atom_site_fract_x
  _atom_site_fract_y
  _atom_site_fract_z
  _atom_site_occupancy
  Al  Al1       1.0  0.8127004504203796  0.08076135814189911  0.4665093719959259  1.0000
  H   H1        1.0  0.8089954257011414  0.39449888467788696  0.47076100111007696  1.0000
  H   H2        1.0  0.4508762061595917  0.012993930839002132  0.12887124717235562  1.0000
  H   H3        1.0  0.2948976755142212  0.7945619225502014  0.12624385952949524  1.0000
  H   H4        1.0  0.7996054291725159  0.5371954441070557  0.020322220399975777  1.0000
  La  La1       1.0  0.49931424856185913  0.38885748386383057  0.29291826486587524  1.0000
  Mn  Mn1       1.0  0.9291809797286987  0.015306980349123478  0.2501832246780396  1.0000
  Mn  Mn2       1.0  0.301363468170166  0.2810306251049042  0.9705749750137329  1.0000
  Mn  Mn3       1.0  0.8034994006156921  0.8066520690917969  0.4847207069396973  1.0000
  Te  Te1       1.0  0.48877063393592834  0.3891337811946869  0.7935259938240051  1.0000
