data_image0
_chemical_formula_structural       BiO3P2RbReRuSb
_chemical_formula_sum              "Bi1 O3 P2 Rb1 Re1 Ru1 Sb1"
_cell_length_a       3.5452366191153533
_cell_length_b       7.441805916033098
_cell_length_c       7.8643479347229
_cell_angle_alpha    115.10320102368101
_cell_angle_beta     102.47349106298388
_cell_angle_gamma    87.91057710679289

_space_group_name_H-M_alt    "P 1"
_space_group_IT_number       1

loop_
  _space_group_symop_operation_xyz
  'x, y, z'

loop_
  _atom_site_type_symbol
  _atom_site_label
  _atom_site_symmetry_multiplicity
  _atom_site_fract_x
  _atom_site_fract_y
  _atom_site_fract_z
  _atom_site_occupancy
  Bi  Bi1       1.0  0.3761761486530304  0.707061231136322  0.6150936484336854  1.0000
  O   O1        1.0  0.8824721574783325  0.0028588545974344015  0.9586619734764101  1.0000
  O   O2        1.0  0.3735012412071228  0.006157839670777321  0.5272474884986879  1.0000
  O   O3        1.0  0.888098418712616  0.797599732875824  0.01229944732040167  1.0000
  P   P1        1.0  0.8850026726722717  0.9775965213775635  0.2673941850662232  1.0000
  P   P2        1.0  0.3367323875427246  0.26869428157806396  0.9723693728446962  1.0000
  Rb  Rb1       1.0  0.8622139692306519  0.49529027938842773  0.24811027944087985  1.0000
  Re  Re1       1.0  0.3739529848098755  0.6958348155021667  0.13181073963642123  1.0000
  Ru  Ru1       1.0  0.37545573711395264  0.9869951009750366  0.8225947618484498  1.0000
  Sb  Sb1       1.0  0.3647044897079468  0.2643764019012451  0.3590318858623505  1.0000
