data_image0
_chemical_formula_structural       Bi2DyHoO2P2Re2
_chemical_formula_sum              "Bi2 Dy1 Ho1 O2 P2 Re2"
_cell_length_a       4.246304598442884
_cell_length_b       7.324517616896782
_cell_length_c       8.049776077270508
_cell_angle_alpha    112.1493532193213
_cell_angle_beta     98.58234585092836
_cell_angle_gamma    90.7582465376202

_space_group_name_H-M_alt    "P 1"
_space_group_IT_number       1

loop_
  _space_group_symop_operation_xyz
  'x, y, z'

loop_
  _atom_site_type_symbol
  _atom_site_label
  _atom_site_symmetry_multiplicity
  _atom_site_fract_x
  _atom_site_fract_y
  _atom_site_fract_z
  _atom_site_occupancy
  Bi  Bi1       1.0  0.6334233283996582  0.5125249028205872  0.30575016140937805  1.0000
  Bi  Bi2       1.0  0.5826199650764465  0.2594481408596039  0.7792081236839294  1.0000
  Dy  Dy1       1.0  0.6063926219940186  0.35817527770996094  0.17512603104114532  1.0000
  Ho  Ho1       1.0  0.5992703437805176  0.003933773376047611  0.5934038758277893  1.0000
  O   O1        1.0  0.5960548520088196  0.9942812919616699  0.9852044582366943  1.0000
  O   O2        1.0  0.14295244216918945  0.6726203560829163  0.9624254703521729  1.0000
  P   P1        1.0  0.05499257519841194  0.9791353344917297  0.95759516954422  1.0000
  P   P2        1.0  0.10241831094026566  0.6823718547821045  0.6052107810974121  1.0000
  Re  Re1       1.0  0.6075989007949829  0.9390091896057129  0.9899318218231201  1.0000
  Re  Re2       1.0  0.07123786956071854  0.6462805867195129  0.6079356074333191  1.0000
