data_image0
_chemical_formula_structural       BiO3PRe5
_chemical_formula_sum              "Bi1 O3 P1 Re5"
_cell_length_a       5.464355429474107
_cell_length_b       5.4627879169567635
_cell_length_c       6.087903022766113
_cell_angle_alpha    127.85520397162136
_cell_angle_beta     111.38020799293376
_cell_angle_gamma    85.31338854480656

_space_group_name_H-M_alt    "P 1"
_space_group_IT_number       1

loop_
  _space_group_symop_operation_xyz
  'x, y, z'

loop_
  _atom_site_type_symbol
  _atom_site_label
  _atom_site_symmetry_multiplicity
  _atom_site_fract_x
  _atom_site_fract_y
  _atom_site_fract_z
  _atom_site_occupancy
  Bi  Bi1       1.0  0.9247604608535767  0.409503310918808  0.0829906314611435  1.0000
  O   O1        1.0  0.6135435700416565  0.7352343201637268  0.6184574961662292  1.0000
  O   O2        1.0  0.4323752820491791  0.943479597568512  0.036334823817014694  1.0000
  O   O3        1.0  0.9454264044761658  0.44198155403137207  0.17622666060924527  1.0000
  P   P1        1.0  0.16070212423801422  0.7559118866920471  0.8364385366439818  1.0000
  Re  Re1       1.0  0.1531529575586319  0.20550137758255005  0.7895964980125426  1.0000
  Re  Re2       1.0  0.3994503319263458  0.32104671001434326  0.4639138579368591  1.0000
  Re  Re3       1.0  0.9253479242324829  0.4712023138999939  0.09559329599142073  1.0000
  Re  Re4       1.0  0.8963101506233215  0.8419791460037231  0.45512387156486506  1.0000
  Re  Re5       1.0  0.43533986806869507  0.4505230784416199  0.13604788482189178  1.0000
