data_image0
_chemical_formula_structural       BiO5PRe2Se
_chemical_formula_sum              "Bi1 O5 P1 Re2 Se1"
_cell_length_a       4.803745841091489
_cell_length_b       7.592236015405233
_cell_length_c       7.731555938720703
_cell_angle_alpha    117.41937592706206
_cell_angle_beta     104.86664410281304
_cell_angle_gamma    89.52504739147511

_space_group_name_H-M_alt    "P 1"
_space_group_IT_number       1

loop_
  _space_group_symop_operation_xyz
  'x, y, z'

loop_
  _atom_site_type_symbol
  _atom_site_label
  _atom_site_symmetry_multiplicity
  _atom_site_fract_x
  _atom_site_fract_y
  _atom_site_fract_z
  _atom_site_occupancy
  Bi  Bi1       1.0  0.11358004063367844  0.3940620422363281  0.9323229193687438  1.0000
  O   O1        1.0  0.9525831937789917  0.9220465421676636  0.21209698915481565  1.0000
  O   O2        1.0  0.31643351912498474  0.5818752646446228  0.44370234012603754  1.0000
  O   O3        1.0  0.598553478717804  0.5844197273254395  0.6945313215255736  1.0000
  O   O4        1.0  0.8993050456047058  0.2238049954175949  0.2609187066555024  1.0000
  O   O5        1.0  0.8603162169456482  0.5973037481307983  0.9343878030776976  1.0000
  P   P1        1.0  0.623403787612915  0.9225436449050903  0.9648842215538024  1.0000
  Re  Re1       1.0  0.7758021354675293  0.5698461532592773  0.5303182601928711  1.0000
  Re  Re2       1.0  0.27310529351234436  0.8880794048309326  0.08110759407281881  1.0000
  Se  Se1       1.0  0.7783083915710449  0.41599276661872864  0.5086700916290283  1.0000
