data_image0
_chemical_formula_structural       Bi2O4Re4
_chemical_formula_sum              "Bi2 O4 Re4"
_cell_length_a       4.520343765031144
_cell_length_b       6.5782110604713235
_cell_length_c       6.834967136383057
_cell_angle_alpha    118.67007088756118
_cell_angle_beta     92.23134869101136
_cell_angle_gamma    88.0322781098641

_space_group_name_H-M_alt    "P 1"
_space_group_IT_number       1

loop_
  _space_group_symop_operation_xyz
  'x, y, z'

loop_
  _atom_site_type_symbol
  _atom_site_label
  _atom_site_symmetry_multiplicity
  _atom_site_fract_x
  _atom_site_fract_y
  _atom_site_fract_z
  _atom_site_occupancy
  Bi  Bi1       1.0  0.5091807246208191  0.6746511459350586  0.24620351195335388  1.0000
  Bi  Bi2       1.0  0.5178172588348389  0.9304364323616027  0.5587965250015258  1.0000
  O   O1        1.0  0.5065982341766357  0.18666796386241913  0.597215473651886  1.0000
  O   O2        1.0  0.006941885221749544  0.30041253566741943  0.7874389886856079  1.0000
  O   O3        1.0  0.015317730605602268  0.9754368662834166  0.04122403636574745  1.0000
  O   O4        1.0  0.5214014649391174  0.41366216540336603  0.5469381809234619  1.0000
  Re  Re1       1.0  0.015189926140010357  0.24234433472156522  0.5779992341995239  1.0000
  Re  Re2       1.0  0.007659546099603176  0.1663094460964203  0.615407407283783  1.0000
  Re  Re3       1.0  0.009102695621550087  0.8974708914756774  0.2949871122837066  1.0000
  Re  Re4       1.0  0.49776536226272583  0.6641878485679626  0.5637030601501465  1.0000
