data_image0
_chemical_formula_structural       BiO4PRbRe2Yb
_chemical_formula_sum              "Bi1 O4 P1 Rb1 Re2 Yb1"
_cell_length_a       5.220378815990361
_cell_length_b       6.995815125627352
_cell_length_c       7.53325080871582
_cell_angle_alpha    117.04303755122554
_cell_angle_beta     108.05888016817158
_cell_angle_gamma    88.21924889722575

_space_group_name_H-M_alt    "P 1"
_space_group_IT_number       1

loop_
  _space_group_symop_operation_xyz
  'x, y, z'

loop_
  _atom_site_type_symbol
  _atom_site_label
  _atom_site_symmetry_multiplicity
  _atom_site_fract_x
  _atom_site_fract_y
  _atom_site_fract_z
  _atom_site_occupancy
  Bi  Bi1       1.0  0.27075082063674927  0.3963388204574585  0.06074046716094016  1.0000
  O   O1        1.0  0.6721065640449524  0.067445769906044  0.3659858703613281  1.0000
  O   O2        1.0  0.00038923544343560934  0.6321226954460144  0.051697321236133575  1.0000
  O   O3        1.0  0.18714477121829987  0.06494320929050446  0.46405005455017084  1.0000
  O   O4        1.0  0.21679963171482086  0.08279947191476822  0.9948406219482421  1.0000
  P   P1        1.0  0.8394863605499268  0.9227448105812074  0.030302386730909344  1.0000
  Rb  Rb1       1.0  0.715786337852478  0.6105247735977173  0.7900778651237488  1.0000
  Re  Re1       1.0  0.1857956498861313  0.10915759205818178  0.4627568423748016  1.0000
  Re  Re2       1.0  0.7320712804794312  0.6198461055755615  0.698195219039917  1.0000
  Yb  Yb1       1.0  0.7234819531440735  0.28929391503334045  0.36744779348373413  1.0000
