data_image0
_chemical_formula_structural       Al5STb
_chemical_formula_sum              "Al5 S1 Tb1"
_cell_length_a       4.864509397154702
_cell_length_b       3.100748279596086
_cell_length_c       6.826389789581299
_cell_angle_alpha    137.27096482936022
_cell_angle_beta     117.54200115828755
_cell_angle_gamma    91.9690982774282

_space_group_name_H-M_alt    "P 1"
_space_group_IT_number       1

loop_
  _space_group_symop_operation_xyz
  'x, y, z'

loop_
  _atom_site_type_symbol
  _atom_site_label
  _atom_site_symmetry_multiplicity
  _atom_site_fract_x
  _atom_site_fract_y
  _atom_site_fract_z
  _atom_site_occupancy
  Al  Al1       1.0  0.9708433747291565  0.5677474737167358  0.19504328072071075  1.0000
  Al  Al2       1.0  0.34933981299400324  0.03867845609784115  0.2869458198547363  1.0000
  Al  Al3       1.0  0.03129224106669421  0.8721475601196288  0.2755655646324157  1.0000
  Al  Al4       1.0  0.10660737007856363  0.8311935663223264  0.46655994653701777  1.0000
  Al  Al5       1.0  0.9817897081375122  0.2567103505134582  0.22593727707862854  1.0000
  S   S1        1.0  0.6944878697395325  0.10657998919486983  0.8714500665664673  1.0000
  Tb  Tb1       1.0  0.6300027966499328  0.20814880728721585  0.5941702723503112  1.0000
