data_image0
_chemical_formula_structural       CGe4H4S5Sc
_chemical_formula_sum              "C1 Ge4 H4 S5 Sc1"
_cell_length_a       6.797079968884519
_cell_length_b       7.277666525880413
_cell_length_c       7.487957954406738
_cell_angle_alpha    110.2901305845044
_cell_angle_beta     107.57284501161251
_cell_angle_gamma    93.32302986112171

_space_group_name_H-M_alt    "P 1"
_space_group_IT_number       1

loop_
  _space_group_symop_operation_xyz
  'x, y, z'

loop_
  _atom_site_type_symbol
  _atom_site_label
  _atom_site_symmetry_multiplicity
  _atom_site_fract_x
  _atom_site_fract_y
  _atom_site_fract_z
  _atom_site_occupancy
  C   C1        1.0  0.46606743335723877  0.6062107682228088  0.8216764330863953  1.0000
  Ge  Ge1       1.0  0.09149438887834549  0.6382014155387878  0.4895850121974945  1.0000
  Ge  Ge2       1.0  0.46746325492858887  0.37025636434555054  0.8796371221542358  1.0000
  Ge  Ge3       1.0  0.03446419909596443  0.3666970729827881  0.336906373500824  1.0000
  Ge  Ge4       1.0  0.6299046874046326  0.4459269046783447  0.6747205257415771  1.0000
  H   H1        1.0  0.2846771776676178  0.07790889590978622  0.42073145508766174  1.0000
  H   H2        1.0  0.5268970727920532  0.781080424785614  0.3885736465454101  1.0000
  H   H3        1.0  0.5255723595619202  0.7771764397621155  0.23449884355068207  1.0000
  H   H4        1.0  0.5327301025390625  0.6302527189254761  0.989398717880249  1.0000
  S   S1        1.0  0.042342666536569595  0.3463514447212219  0.3160642385482788  1.0000
  S   S2        1.0  0.30701303482055664  0.6747721433639526  0.19833014905452728  1.0000
  S   S3        1.0  0.24950066208839417  0.5675021409988403  0.8760027289390564  1.0000
  S   S4        1.0  0.8066728115081787  0.8870761394500732  0.1630163937807083  1.0000
  S   S5        1.0  0.31097862124443054  0.19967523217201233  0.10362593084573746  1.0000
  Sc  Sc1       1.0  0.14926116168498993  0.21759919822216034  0.8312550187110901  1.0000
