data_image0
_chemical_formula_structural       Ge3H5MnNS4Zn
_chemical_formula_sum              "Ge3 H5 Mn1 N1 S4 Zn1"
_cell_length_a       5.89952641137025
_cell_length_b       7.131585186681652
_cell_length_c       7.727381706237793
_cell_angle_alpha    71.27199670105843
_cell_angle_beta     67.7644660381052
_cell_angle_gamma    67.13081056667367

_space_group_name_H-M_alt    "P 1"
_space_group_IT_number       1

loop_
  _space_group_symop_operation_xyz
  'x, y, z'

loop_
  _atom_site_type_symbol
  _atom_site_label
  _atom_site_symmetry_multiplicity
  _atom_site_fract_x
  _atom_site_fract_y
  _atom_site_fract_z
  _atom_site_occupancy
  Ge  Ge1       1.0  0.0020027698483317683  0.7957770228385926  0.13223491609096524  1.0000
  Ge  Ge2       1.0  0.47001031041145325  0.11829499155282976  0.9788961410522461  1.0000
  Ge  Ge3       1.0  0.001851557521149516  0.28723543882369995  0.9512243270874023  1.0000
  H   H1        1.0  0.57871013879776  0.5490743517875671  0.550378680229187  1.0000
  H   H2        1.0  0.5826850533485413  0.5577582120895386  0.9762276411056519  1.0000
  H   H3        1.0  0.8334919214248657  0.8918379545211793  0.8388124108314514  1.0000
  H   H4        1.0  0.13484634459018704  0.9469481706619264  0.8196802735328674  1.0000
  H   H5        1.0  0.24514354765415192  0.7174835801124573  0.07891463488340378  1.0000
  Mn  Mn1       1.0  0.21871095895767212  0.2768227159976959  0.5341773629188538  1.0000
  N   N1        1.0  0.68441241979599  0.6323772072792053  0.1274622082710266  1.0000
  S   S1        1.0  0.010399511083960533  0.6158007979393005  0.7964819669723511  1.0000
  S   S2        1.0  0.3360727131366729  0.8771977424621583  0.3333141803741455  1.0000
  S   S3        1.0  0.08091016113758087  0.047997333109378815  0.829724133014679  1.0000
  S   S4        1.0  0.5261487364768982  0.28567102551460266  0.831355631351471  1.0000
  Zn  Zn1       1.0  0.594632089138031  0.5421619415283203  0.20686215162277222  1.0000
