data_image0
_chemical_formula_structural       CGeH4S7U2
_chemical_formula_sum              "C1 Ge1 H4 S7 U2"
_cell_length_a       6.912281832467102
_cell_length_b       7.322742375581608
_cell_length_c       7.528799057006836
_cell_angle_alpha    105.6764874270906
_cell_angle_beta     111.36715910054593
_cell_angle_gamma    96.8505929898592

_space_group_name_H-M_alt    "P 1"
_space_group_IT_number       1

loop_
  _space_group_symop_operation_xyz
  'x, y, z'

loop_
  _atom_site_type_symbol
  _atom_site_label
  _atom_site_symmetry_multiplicity
  _atom_site_fract_x
  _atom_site_fract_y
  _atom_site_fract_z
  _atom_site_occupancy
  C   C1        1.0  0.020644303411245346  0.32026976346969604  0.4215657413005829  1.0000
  Ge  Ge1       1.0  0.521955668926239  0.8432451486587524  0.795033872127533  1.0000
  H   H1        1.0  0.43510368466377264  0.29110655188560486  0.6013892292976379  1.0000
  H   H2        1.0  0.19840367138385775  0.5491536259651184  0.030182868242263794  1.0000
  H   H3        1.0  0.11426473408937456  0.8377013206481934  0.029794888570904732  1.0000
  H   H4        1.0  0.30325040221214294  0.7255487442016602  0.2984274923801422  1.0000
  S   S1        1.0  0.1254146844148636  0.8379456996917725  0.04376230761408806  1.0000
  S   S2        1.0  0.6699509024620056  0.0643121749162674  0.5954062342643738  1.0000
  S   S3        1.0  0.5188379287719727  0.867310106754303  0.3605281412601471  1.0000
  S   S4        1.0  0.8805093169212342  0.14704418182373047  0.19283953309059143  1.0000
  S   S5        1.0  0.09821031987667085  0.8496471047401428  0.7523113489151001  1.0000
  S   S6        1.0  0.35719823837280273  0.3504500687122345  0.19122178852558136  1.0000
  S   S7        1.0  0.5762456655502319  0.9250308871269226  0.48071625828742987  1.0000
  U   U1        1.0  0.14399710297584534  0.8553900718688965  0.4683123826980591  1.0000
  U   U2        1.0  0.8064340353012086  0.8090729117393494  0.3050946891307831  1.0000
