data_image0
_chemical_formula_structural       H4NS10
_chemical_formula_sum              "H4 N1 S10"
_cell_length_a       6.023994175861861
_cell_length_b       6.86012144666483
_cell_length_c       6.780326843261719
_cell_angle_alpha    101.51377315065562
_cell_angle_beta     97.16872664428695
_cell_angle_gamma    89.18518644173294

_space_group_name_H-M_alt    "P 1"
_space_group_IT_number       1

loop_
  _space_group_symop_operation_xyz
  'x, y, z'

loop_
  _atom_site_type_symbol
  _atom_site_label
  _atom_site_symmetry_multiplicity
  _atom_site_fract_x
  _atom_site_fract_y
  _atom_site_fract_z
  _atom_site_occupancy
  H   H1        1.0  0.691644012928009  0.2538466155529022  0.6962684392929077  1.0000
  H   H2        1.0  0.3597957193851471  0.8981354236602782  0.4698567688465119  1.0000
  H   H3        1.0  0.9232348203659058  0.6451859474182128  0.09288936853408813  1.0000
  H   H4        1.0  0.42118972539901733  0.602136492729187  0.025559710338711742  1.0000
  N   N1        1.0  0.9623316526412964  0.6121816039085388  0.44082668423652654  1.0000
  S   S1        1.0  0.579717755317688  0.029022373259067532  0.10737514495849611  1.0000
  S   S2        1.0  0.18790873885154724  0.4424657523632049  0.9023352265357972  1.0000
  S   S3        1.0  0.1872972846031189  0.8462699651718139  0.9246087074279786  1.0000
  S   S4        1.0  0.11826808750629425  0.32821068167686457  0.8004781603813172  1.0000
  S   S5        1.0  0.6403650641441345  0.8510202169418334  0.7771056294441224  1.0000
  S   S6        1.0  0.6226413249969482  0.80161714553833  0.9113299846649171  1.0000
  S   S7        1.0  0.2807612121105194  0.027336459606885907  0.08753447979688644  1.0000
  S   S8        1.0  0.7372155189514159  0.6724863648414611  0.1399090439081192  1.0000
  S   S9        1.0  0.11251747608184814  0.3752878606319427  0.5780707597732544  1.0000
  S   S10       1.0  0.62464439868927  0.2591143548488617  0.7356454730033875  1.0000
