data_image0
_chemical_formula_structural       H4NS9U
_chemical_formula_sum              "H4 N1 S9 U1"
_cell_length_a       6.751611999756794
_cell_length_b       6.959608017463383
_cell_length_c       6.825955867767334
_cell_angle_alpha    95.38475137606055
_cell_angle_beta     94.89820347737766
_cell_angle_gamma    90.87908607140278

_space_group_name_H-M_alt    "P 1"
_space_group_IT_number       1

loop_
  _space_group_symop_operation_xyz
  'x, y, z'

loop_
  _atom_site_type_symbol
  _atom_site_label
  _atom_site_symmetry_multiplicity
  _atom_site_fract_x
  _atom_site_fract_y
  _atom_site_fract_z
  _atom_site_occupancy
  H   H1        1.0  0.38924938440322876  0.6923059225082397  0.9827545881271361  1.0000
  H   H2        1.0  0.29207903146743774  0.18385763466358185  0.47194468975067133  1.0000
  H   H3        1.0  0.8362380862236023  0.18249912559986115  0.9596351385116576  1.0000
  H   H4        1.0  0.32930752635002136  0.46273747086524963  0.46985495090484614  1.0000
  N   N1        1.0  0.151412233710289  0.8380765318870544  0.04358662292361261  1.0000
  S   S1        1.0  0.35151273012161255  0.6675472855567932  0.5283188819885254  1.0000
  S   S2        1.0  0.8856364488601685  0.1990465521812439  0.6267665028572083  1.0000
  S   S3        1.0  0.10312645137310028  0.5059852004051208  0.22875154018402097  1.0000
  S   S4        1.0  0.6445832252502441  0.7346567511558533  0.3934630155563354  1.0000
  S   S5        1.0  0.08586753904819489  0.6820569038391113  0.8077232837677001  1.0000
  S   S6        1.0  0.07413828372955322  0.041313838213682175  0.2849648594856262  1.0000
  S   S7        1.0  0.5689539909362793  0.30644887685775757  0.5277262330055237  1.0000
  S   S8        1.0  0.3317531943321228  0.9379702806472778  0.6240089535713196  1.0000
  S   S9        1.0  0.6121869087219238  0.3302934765815735  0.037031639367341995  1.0000
  U   U1        1.0  0.3760165274143219  0.7009420990943909  0.7974003553390502  1.0000
