data_image0
_chemical_formula_structural       GeH4S9U
_chemical_formula_sum              "Ge1 H4 S9 U1"
_cell_length_a       6.1307657586788675
_cell_length_b       7.104456020175609
_cell_length_c       9.285600662231445
_cell_angle_alpha    72.45481370332753
_cell_angle_beta     70.20982980619854
_cell_angle_gamma    67.7303596199412

_space_group_name_H-M_alt    "P 1"
_space_group_IT_number       1

loop_
  _space_group_symop_operation_xyz
  'x, y, z'

loop_
  _atom_site_type_symbol
  _atom_site_label
  _atom_site_symmetry_multiplicity
  _atom_site_fract_x
  _atom_site_fract_y
  _atom_site_fract_z
  _atom_site_occupancy
  Ge  Ge1       1.0  0.44520327448844915  0.41390714049339294  0.21642227470874786  1.0000
  H   H1        1.0  0.3416135907173157  0.4399706721305847  0.23721589148044586  1.0000
  H   H2        1.0  0.7145438194274903  0.908743143081665  0.7181100249290466  1.0000
  H   H3        1.0  0.02943936921656132  0.81792813539505  0.25372087955474854  1.0000
  H   H4        1.0  0.7943801879882814  0.12764334678649902  0.45172300934791565  1.0000
  S   S1        1.0  0.11590236425399782  0.6285054683685303  0.9435923099517822  1.0000
  S   S2        1.0  0.9636380076408387  0.055462222546339035  0.3689289689064026  1.0000
  S   S3        1.0  0.6201791167259216  0.841129720211029  0.8786798715591431  1.0000
  S   S4        1.0  0.9482645988464357  0.3471980094909668  0.5829133987426758  1.0000
  S   S5        1.0  0.1324867308139801  0.8195571303367615  0.9063510298728943  1.0000
  S   S6        1.0  0.511188268661499  0.5913577675819397  0.5914441347122192  1.0000
  S   S7        1.0  0.4643747806549073  0.059042464941740036  0.9422752857208252  1.0000
  S   S8        1.0  0.9166924953460694  0.3637346625328064  0.1356990784406662  1.0000
  S   S9        1.0  0.4877654612064362  0.07019665092229843  0.6007347702980042  1.0000
  U   U1        1.0  0.13570666313171387  0.43742287158966064  0.4620327055454254  1.0000
