data_image0
_chemical_formula_structural       Br3ClF2Pb2S
_chemical_formula_sum              "Br3 Cl1 F2 Pb2 S1"
_cell_length_a       5.496929368998758
_cell_length_b       6.117997129326279
_cell_length_c       9.581411361694336
_cell_angle_alpha    104.64034213926439
_cell_angle_beta     102.97567768163351
_cell_angle_gamma    105.34704643934722

_space_group_name_H-M_alt    "P 1"
_space_group_IT_number       1

loop_
  _space_group_symop_operation_xyz
  'x, y, z'

loop_
  _atom_site_type_symbol
  _atom_site_label
  _atom_site_symmetry_multiplicity
  _atom_site_fract_x
  _atom_site_fract_y
  _atom_site_fract_z
  _atom_site_occupancy
  Br  Br1       1.0  0.4711800217628479  0.11512043327093124  0.6091161966323853  1.0000
  Br  Br2       1.0  0.718103289604187  0.8040027022361755  0.02660883404314523  1.0000
  Br  Br3       1.0  0.2088751643896103  0.9135091304779053  0.04876838997006419  1.0000
  Cl  Cl1       1.0  0.18830683827400208  0.28500476479530334  0.2870531678199768  1.0000
  F   F1        1.0  0.8091305494308472  0.0552327036857605  0.7774368524551392  1.0000
  F   F2        1.0  0.29772716760635376  0.8092969655990601  0.029228443279862428  1.0000
  Pb  Pb1       1.0  0.7706324458122253  0.5912485122680664  0.7710294723510742  1.0000
  Pb  Pb2       1.0  0.2535618245601654  0.5360479354858398  0.33896660804748535  1.0000
  S   S1        1.0  0.02598218061029911  0.969805121421814  0.8510625958442688  1.0000
