data_image0
_chemical_formula_structural       Br5CuF2Pt
_chemical_formula_sum              "Br5 Cu1 F2 Pt1"
_cell_length_a       5.455706985691868
_cell_length_b       5.960883772332173
_cell_length_c       10.47537612915039
_cell_angle_alpha    92.19313902596099
_cell_angle_beta     89.84884288547265
_cell_angle_gamma    119.10873411570695

_space_group_name_H-M_alt    "P 1"
_space_group_IT_number       1

loop_
  _space_group_symop_operation_xyz
  'x, y, z'

loop_
  _atom_site_type_symbol
  _atom_site_label
  _atom_site_symmetry_multiplicity
  _atom_site_fract_x
  _atom_site_fract_y
  _atom_site_fract_z
  _atom_site_occupancy
  Br  Br1       1.0  0.44683316349983215  0.9195645451545715  0.9009092450141907  1.0000
  Br  Br2       1.0  0.7790562510490417  0.9153807163238525  0.8871292471885681  1.0000
  Br  Br3       1.0  0.298357218503952  0.6844959855079651  0.15796789526939392  1.0000
  Br  Br4       1.0  0.8650555610656738  0.17571485042572021  0.7177533507347107  1.0000
  Br  Br5       1.0  0.30895960330963135  0.27470389008522034  0.597086250782013  1.0000
  Cu  Cu1       1.0  0.08827602118253708  0.1346321403980255  0.10304969549179077  1.0000
  F   F1        1.0  0.06878187507390976  0.6027635931968689  0.6250089406967163  1.0000
  F   F2        1.0  0.8276631236076355  0.6663739085197449  0.3826848864555359  1.0000
  Pt  Pt1       1.0  0.9794698357582092  0.4042905271053314  0.363301545381546  1.0000
