data_image0
_chemical_formula_structural       Br6CuF2
_chemical_formula_sum              "Br6 Cu1 F2"
_cell_length_a       5.095202770282139
_cell_length_b       5.435575848174077
_cell_length_c       12.159578323364258
_cell_angle_alpha    89.6707119233206
_cell_angle_beta     89.46393436098994
_cell_angle_gamma    121.0466017541574

_space_group_name_H-M_alt    "P 1"
_space_group_IT_number       1

loop_
  _space_group_symop_operation_xyz
  'x, y, z'

loop_
  _atom_site_type_symbol
  _atom_site_label
  _atom_site_symmetry_multiplicity
  _atom_site_fract_x
  _atom_site_fract_y
  _atom_site_fract_z
  _atom_site_occupancy
  Br  Br1       1.0  0.004616273567080498  0.3790392577648163  0.5202491283416748  1.0000
  Br  Br2       1.0  0.6385994553565979  0.11260879039764404  0.2930968701839447  1.0000
  Br  Br3       1.0  0.6328589916229248  0.8882741332054138  0.422917515039444  1.0000
  Br  Br4       1.0  0.5885866284370422  0.08567308634519577  0.13569077849388123  1.0000
  Br  Br5       1.0  0.11150752007961273  0.07986138761043549  0.8485993742942811  1.0000
  Br  Br6       1.0  0.635504424571991  0.573410153388977  0.3490232825279236  1.0000
  Cu  Cu1       1.0  0.21751876175403595  0.8805178999900818  0.5893181562423706  1.0000
  F   F1        1.0  0.8283504843711853  0.40524822473526  0.7768660783767701  1.0000
  F   F2        1.0  0.08443120121955872  0.4102248251438141  0.1388004869222641  1.0000
