data_image0
_chemical_formula_structural       Br3ClF2Pb3
_chemical_formula_sum              "Br3 Cl1 F2 Pb3"
_cell_length_a       5.3028278525691155
_cell_length_b       5.559092326382517
_cell_length_c       11.151638984680176
_cell_angle_alpha    89.8525298408731
_cell_angle_beta     91.54387948893212
_cell_angle_gamma    116.46640786527448

_space_group_name_H-M_alt    "P 1"
_space_group_IT_number       1

loop_
  _space_group_symop_operation_xyz
  'x, y, z'

loop_
  _atom_site_type_symbol
  _atom_site_label
  _atom_site_symmetry_multiplicity
  _atom_site_fract_x
  _atom_site_fract_y
  _atom_site_fract_z
  _atom_site_occupancy
  Br  Br1       1.0  0.7579036355018616  0.921705961227417  0.35974207520484924  1.0000
  Br  Br2       1.0  0.2517879605293274  0.42379099130630493  0.2256487607955933  1.0000
  Br  Br3       1.0  0.6182776689529419  0.4182528555393219  0.7218724489212036  1.0000
  Cl  Cl1       1.0  0.09728638082742691  0.425218403339386  0.8698303699493409  1.0000
  F   F1        1.0  0.451860636472702  0.4400371015071869  0.23918323218822482  1.0000
  F   F2        1.0  0.14702709019184113  0.7253957390785217  0.22577621042728427  1.0000
  Pb  Pb1       1.0  0.7626129984855652  0.7500987648963928  0.22118166089057925  1.0000
  Pb  Pb2       1.0  0.1285901665687561  0.24622029066085815  0.09296206384897232  1.0000
  Pb  Pb3       1.0  0.4377135932445526  0.9446282982826233  0.11443046480417253  1.0000
