data_image0
_chemical_formula_structural       Br4Cu2FPb2
_chemical_formula_sum              "Br4 Cu2 F1 Pb2"
_cell_length_a       5.247142118084338
_cell_length_b       5.593030851060828
_cell_length_c       10.358237266540527
_cell_angle_alpha    89.42309619249455
_cell_angle_beta     90.01871817315259
_cell_angle_gamma    106.7735169047933

_space_group_name_H-M_alt    "P 1"
_space_group_IT_number       1

loop_
  _space_group_symop_operation_xyz
  'x, y, z'

loop_
  _atom_site_type_symbol
  _atom_site_label
  _atom_site_symmetry_multiplicity
  _atom_site_fract_x
  _atom_site_fract_y
  _atom_site_fract_z
  _atom_site_occupancy
  Br  Br1       1.0  0.5680971145629883  0.9025841951370239  0.8830755352973938  1.0000
  Br  Br2       1.0  0.03375569358468056  0.8879793286323547  0.2729127109050751  1.0000
  Br  Br3       1.0  0.5947209000587463  0.21574506163597107  0.7776429057121277  1.0000
  Br  Br4       1.0  0.2259053736925125  0.3925841152667999  0.2745752036571503  1.0000
  Cu  Cu1       1.0  0.6025617122650146  0.2084442526102066  0.4147647023200989  1.0000
  Cu  Cu2       1.0  0.8407651782035828  0.8808437585830688  0.4009038209915161  1.0000
  F   F1        1.0  0.9187657833099365  0.6820024847984314  0.7848576903343201  1.0000
  Pb  Pb1       1.0  0.2612997591495514  0.3862095773220062  0.5429992079734802  1.0000
  Pb  Pb2       1.0  0.08103957772254944  0.885965883731842  0.7644678950309753  1.0000
