data_image0
_chemical_formula_structural       Br5CuF2Pb
_chemical_formula_sum              "Br5 Cu1 F2 Pb1"
_cell_length_a       5.134575820764766
_cell_length_b       6.085533742765357
_cell_length_c       10.928009033203125
_cell_angle_alpha    88.94242842525992
_cell_angle_beta     89.57305504539316
_cell_angle_gamma    104.69135239055555

_space_group_name_H-M_alt    "P 1"
_space_group_IT_number       1

loop_
  _space_group_symop_operation_xyz
  'x, y, z'

loop_
  _atom_site_type_symbol
  _atom_site_label
  _atom_site_symmetry_multiplicity
  _atom_site_fract_x
  _atom_site_fract_y
  _atom_site_fract_z
  _atom_site_occupancy
  Br  Br1       1.0  0.3291986286640167  0.40999287366867065  0.9399915933609008  1.0000
  Br  Br2       1.0  0.6663792729377747  0.93617045879364  0.1743796020746231  1.0000
  Br  Br3       1.0  0.8207352161407471  0.9119032025337218  0.9239688515663146  1.0000
  Br  Br4       1.0  0.22361768782138822  0.9331123828887938  0.6752910017967224  1.0000
  Br  Br5       1.0  0.29948827624320984  0.4337411522865295  0.22940406203269956  1.0000
  Cu  Cu1       1.0  0.33975866436958313  0.6372093558311462  0.4317981600761413  1.0000
  F   F1        1.0  0.11250641196966171  0.12113025039434432  0.7181342244148254  1.0000
  F   F2        1.0  0.6443252563476562  0.45962619781494135  0.7206670641899109  1.0000
  Pb  Pb1       1.0  0.9691958427429199  0.21208903193473813  0.09784746915102004  1.0000
