data_image0
_chemical_formula_structural       As10
_chemical_formula_sum              "As10"
_cell_length_a       6.265937525748612
_cell_length_b       7.061886981020508
_cell_length_c       7.471187591552734
_cell_angle_alpha    115.4484469794072
_cell_angle_beta     90.77349072250726
_cell_angle_gamma    91.02052131580609

_space_group_name_H-M_alt    "P 1"
_space_group_IT_number       1

loop_
  _space_group_symop_operation_xyz
  'x, y, z'

loop_
  _atom_site_type_symbol
  _atom_site_label
  _atom_site_symmetry_multiplicity
  _atom_site_fract_x
  _atom_site_fract_y
  _atom_site_fract_z
  _atom_site_occupancy
  As  As1       1.0  0.729386568069458  0.9982488751411438  0.9796724319458008  1.0000
  As  As2       1.0  0.7175055742263794  0.10956501215696335  0.8971031904220581  1.0000
  As  As3       1.0  0.22155754268169403  0.053831297904253006  0.2908015847206116  1.0000
  As  As4       1.0  0.2318798303604126  0.9484848380088806  0.4807281196117401  1.0000
  As  As5       1.0  0.7304970026016235  0.11800739169120789  0.6654937267303467  1.0000
  As  As6       1.0  0.23415924608707428  0.38899365067481995  0.35788261890411377  1.0000
  As  As7       1.0  0.23350821435451508  0.11277344077825546  0.6579935550689697  1.0000
  As  As8       1.0  0.7124812602996826  0.758645236492157  0.4425116777420044  1.0000
  As  As9       1.0  0.05695849657058716  0.7828683853149414  0.6938501000404358  1.0000
  As  As10      1.0  0.22733446955680847  0.8099181652069092  0.12043345719575882  1.0000
