data_image0
_chemical_formula_structural       As6K3Pb
_chemical_formula_sum              "As6 K3 Pb1"
_cell_length_a       6.875930331417198
_cell_length_b       6.57782960808777
_cell_length_c       7.962038040161133
_cell_angle_alpha    79.90959505944124
_cell_angle_beta     66.30832960099836
_cell_angle_gamma    76.74576676576858

_space_group_name_H-M_alt    "P 1"
_space_group_IT_number       1

loop_
  _space_group_symop_operation_xyz
  'x, y, z'

loop_
  _atom_site_type_symbol
  _atom_site_label
  _atom_site_symmetry_multiplicity
  _atom_site_fract_x
  _atom_site_fract_y
  _atom_site_fract_z
  _atom_site_occupancy
  As  As1       1.0  0.2272437959909439  0.6430690884590149  0.9071813225746155  1.0000
  As  As2       1.0  0.9410009384155273  0.07168447971343994  0.4252868592739105  1.0000
  As  As3       1.0  0.442256897687912  0.6820535063743591  0.5552530288696289  1.0000
  As  As4       1.0  0.4465511441230774  0.14579325914382935  0.9675458073616028  1.0000
  As  As5       1.0  0.49165904521942133  0.24097736179828644  0.6720467209815979  1.0000
  As  As6       1.0  0.17011962831020355  0.9347373247146606  0.17358601093292236  1.0000
  K   K1        1.0  0.9359388947486877  0.0872550755739212  0.07231702655553823  1.0000
  K   K2        1.0  0.9561609625816345  0.7107236385345459  0.06977505981922155  1.0000
  K   K3        1.0  0.6983740925788879  0.825701892375946  0.8629566431045532  1.0000
  Pb  Pb1       1.0  0.9441080689430237  0.690443754196167  0.5554730892181396  1.0000
