data_image0
_chemical_formula_structural       As7KTa2
_chemical_formula_sum              "As7 K1 Ta2"
_cell_length_a       6.986516271801148
_cell_length_b       6.46089582329432
_cell_length_c       7.546135425567627
_cell_angle_alpha    93.63478669757019
_cell_angle_beta     91.61714322657565
_cell_angle_gamma    101.14920167310741

_space_group_name_H-M_alt    "P 1"
_space_group_IT_number       1

loop_
  _space_group_symop_operation_xyz
  'x, y, z'

loop_
  _atom_site_type_symbol
  _atom_site_label
  _atom_site_symmetry_multiplicity
  _atom_site_fract_x
  _atom_site_fract_y
  _atom_site_fract_z
  _atom_site_occupancy
  As  As1       1.0  0.5966692566871643  0.061798974871635444  0.07951416820287704  1.0000
  As  As2       1.0  0.3477502167224884  0.07737355679273605  0.9928567409515381  1.0000
  As  As3       1.0  0.5827904939651489  0.2358813583850861  0.4741828739643097  1.0000
  As  As4       1.0  0.29071009159088135  0.7936934232711792  0.5472602248191833  1.0000
  As  As5       1.0  0.28053387999534607  0.37536105513572693  0.4565723240375519  1.0000
  As  As6       1.0  0.6357385516166687  0.1389455795288086  0.031888071447610855  1.0000
  As  As7       1.0  0.7855439186096193  0.2426067888736725  0.6136703491210938  1.0000
  K   K1        1.0  0.10770389437675477  0.9029881954193115  0.7624895572662354  1.0000
  Ta  Ta1       1.0  0.05689888447523118  0.7420218586921692  0.9240500926971436  1.0000
  Ta  Ta2       1.0  0.11582822352647783  0.6274994611740112  0.8153560757637024  1.0000
