data_image0
_chemical_formula_structural       As7K2Ta
_chemical_formula_sum              "As7 K2 Ta1"
_cell_length_a       5.422210732167104
_cell_length_b       5.284537638527995
_cell_length_c       8.26087474822998
_cell_angle_alpha    90.54667859906037
_cell_angle_beta     89.70660908298531
_cell_angle_gamma    89.31256863055981

_space_group_name_H-M_alt    "P 1"
_space_group_IT_number       1

loop_
  _space_group_symop_operation_xyz
  'x, y, z'

loop_
  _atom_site_type_symbol
  _atom_site_label
  _atom_site_symmetry_multiplicity
  _atom_site_fract_x
  _atom_site_fract_y
  _atom_site_fract_z
  _atom_site_occupancy
  As  As1       1.0  0.5480532646179199  0.8267385363578796  0.6636662483215332  1.0000
  As  As2       1.0  0.4635796546936035  0.9084379076957703  0.2865312397480011  1.0000
  As  As3       1.0  0.05703456327319145  0.6604830026626587  0.39790013432502747  1.0000
  As  As4       1.0  0.8015732765197754  0.39976444840431213  0.47153028845787043  1.0000
  As  As5       1.0  0.7995477914810181  0.5704309344291687  0.44635528326034546  1.0000
  As  As6       1.0  0.7881409525871277  0.3782804012298584  0.09042441844940186  1.0000
  As  As7       1.0  0.47898977994918823  0.9302541017532349  0.40510764718055725  1.0000
  K   K1        1.0  0.5508632063865662  0.6361005902290344  0.07440608739852905  1.0000
  K   K2        1.0  0.06791742146015167  0.1322498768568039  0.5864349007606506  1.0000
  Ta  Ta1       1.0  0.28645795583724976  0.7633912563323975  0.2122608721256256  1.0000
