data_image0
_chemical_formula_structural       As8KTa
_chemical_formula_sum              "As8 K1 Ta1"
_cell_length_a       6.440759262498538
_cell_length_b       6.548961554726684
_cell_length_c       6.4642229080200195
_cell_angle_alpha    107.09122527105126
_cell_angle_beta     109.04644462820065
_cell_angle_gamma    108.0395318515982

_space_group_name_H-M_alt    "P 1"
_space_group_IT_number       1

loop_
  _space_group_symop_operation_xyz
  'x, y, z'

loop_
  _atom_site_type_symbol
  _atom_site_label
  _atom_site_symmetry_multiplicity
  _atom_site_fract_x
  _atom_site_fract_y
  _atom_site_fract_z
  _atom_site_occupancy
  As  As1       1.0  0.9160912632942201  0.5683082938194275  0.2268628180027008  1.0000
  As  As2       1.0  0.17959932982921603  0.3101232647895813  0.8178055882453918  1.0000
  As  As3       1.0  0.5087777972221375  0.9830582141876221  0.7054453492164612  1.0000
  As  As4       1.0  0.02051466889679432  0.5146039128303528  0.9537569284439087  1.0000
  As  As5       1.0  0.4910708069801331  0.5284653902053833  0.12678277492523202  1.0000
  As  As6       1.0  0.9108877778053285  0.1309504210948944  0.02572306990623481  1.0000
  As  As7       1.0  0.01182767376303673  0.20698121190071106  0.10539838671684265  1.0000
  As  As8       1.0  0.932726562023163  0.5842646360397339  0.3972659707069398  1.0000
  K   K1        1.0  0.6759441494941713  0.6792244911193848  0.43259772658348095  1.0000
  Ta  Ta1       1.0  0.41918531060218817  0.6271798014640808  0.9324045777320862  1.0000
