data_image0
_chemical_formula_structural       As6GaPZnZr
_chemical_formula_sum              "As6 Ga1 P1 Zn1 Zr1"
_cell_length_a       6.4967413130567655
_cell_length_b       7.468462492437377
_cell_length_c       7.7863264083862305
_cell_angle_alpha    124.21371895974998
_cell_angle_beta     90.318144594486
_cell_angle_gamma    89.87710402276596

_space_group_name_H-M_alt    "P 1"
_space_group_IT_number       1

loop_
  _space_group_symop_operation_xyz
  'x, y, z'

loop_
  _atom_site_type_symbol
  _atom_site_label
  _atom_site_symmetry_multiplicity
  _atom_site_fract_x
  _atom_site_fract_y
  _atom_site_fract_z
  _atom_site_occupancy
  As  As1       1.0  0.5162848830223083  0.15934354066848755  0.7235293388366698  1.0000
  As  As2       1.0  0.01488543301820755  0.9636228084564209  0.47007635235786444  1.0000
  As  As3       1.0  0.5195240378379822  0.8675445914268494  0.4426923394203186  1.0000
  As  As4       1.0  0.5268218517303467  0.1903567910194397  0.62688809633255  1.0000
  As  As5       1.0  0.5192947387695312  0.9711283445358276  0.5566278696060181  1.0000
  As  As6       1.0  0.023021863773465157  0.9735524654388428  0.070979245007038  1.0000
  Ga  Ga1       1.0  0.01848359778523445  0.9517995119094849  0.496436208486557  1.0000
  P   P1        1.0  0.03114147111773491  0.04601883515715599  0.06444228440523148  1.0000
  Zn  Zn1       1.0  0.5265357494354248  0.8201119899749756  0.3958060145378113  1.0000
  Zr  Zr1       1.0  0.02174586057662964  0.6563334465026855  0.07886510342359543  1.0000
