data_image0
_chemical_formula_structural       CoEuFGaI2K3Mo2NPtTi
_chemical_formula_sum              "Co1 Eu1 F1 Ga1 I2 K3 Mo2 N1 Pt1 Ti1"
_cell_length_a       7.85422702144403
_cell_length_b       9.957854460337318
_cell_length_c       10.877092361450195
_cell_angle_alpha    122.02130259892064
_cell_angle_beta     90.21214393680542
_cell_angle_gamma    90.94339461590472

_space_group_name_H-M_alt    "P 1"
_space_group_IT_number       1

loop_
  _space_group_symop_operation_xyz
  'x, y, z'

loop_
  _atom_site_type_symbol
  _atom_site_label
  _atom_site_symmetry_multiplicity
  _atom_site_fract_x
  _atom_site_fract_y
  _atom_site_fract_z
  _atom_site_occupancy
  Co  Co1       1.0  0.7833442091941832  0.3540290296077728  0.4298662841320038  1.0000
  Eu  Eu1       1.0  0.2701668441295624  0.8618474006652832  0.4931915700435638  1.0000
  F   F1        1.0  0.5806222558021545  0.11668621748685837  0.7904222011566162  1.0000
  Ga  Ga1       1.0  0.2820352613925934  0.9925711154937744  0.4286304414272308  1.0000
  I   I1        1.0  0.016943350434303284  0.9188358187675476  0.2869603037834166  1.0000
  I   I2        1.0  0.5198752284049988  0.575263500213623  0.8940831422805786  1.0000
  K   K1        1.0  0.7831411361694335  0.9910399913787842  0.26688489317893976  1.0000
  K   K2        1.0  0.7813060879707335  0.17826198041439056  0.7096145153045654  1.0000
  K   K3        1.0  0.2880009710788727  0.6091141104698181  0.09214351326227184  1.0000
  Mo  Mo1       1.0  0.5078704953193665  0.3366260528564453  0.28145706653594965  1.0000
  Mo  Mo2       1.0  0.027621360495686528  0.33222633600234985  0.4170180857181549  1.0000
  N   N1        1.0  0.02019098587334156  0.07442508637905121  0.876332700252533  1.0000
  Pt  Pt1       1.0  0.3076305091381073  0.6600453853607178  0.24458798766136167  1.0000
  Ti  Ti1       1.0  0.8163444995880126  0.9912449717521667  0.454925924539566  1.0000
