data_image0
_chemical_formula_structural       CoI4K3NpPbPtTaUZr
_chemical_formula_sum              "Co1 I4 K3 Np1 Pb1 Pt1 Ta1 U1 Zr1"
_cell_length_a       7.1161299167554
_cell_length_b       9.568930082044979
_cell_length_c       9.418105125427246
_cell_angle_alpha    121.03348821874856
_cell_angle_beta     88.53455048367462
_cell_angle_gamma    90.422462411667

_space_group_name_H-M_alt    "P 1"
_space_group_IT_number       1

loop_
  _space_group_symop_operation_xyz
  'x, y, z'

loop_
  _atom_site_type_symbol
  _atom_site_label
  _atom_site_symmetry_multiplicity
  _atom_site_fract_x
  _atom_site_fract_y
  _atom_site_fract_z
  _atom_site_occupancy
  Co  Co1       1.0  0.48699569702148443  0.8452238440513611  0.24329736828804008  1.0000
  I   I1        1.0  0.9886956810951234  0.6441747546195984  0.27003902196884144  1.0000
  I   I2        1.0  0.49083501100540167  0.7750552296638489  0.47929736971855164  1.0000
  I   I3        1.0  0.48994401097297674  0.7855003476142883  0.8906259536743164  1.0000
  I   I4        1.0  0.4871457219123841  0.662108838558197  0.7322388887405396  1.0000
  K   K1        1.0  0.9985677599906922  0.6298967003822327  0.9346956610679626  1.0000
  K   K2        1.0  0.4916835725307465  0.3714864253997803  0.8820672631263733  1.0000
  K   K3        1.0  0.4899707436561585  0.5242493748664856  0.7257376313209534  1.0000
  Np  Np1       1.0  0.9895339012145997  0.556751012802124  0.6202173233032227  1.0000
  Pb  Pb1       1.0  0.9892061352729798  0.8310918807983398  0.4283786118030548  1.0000
  Pt  Pt1       1.0  0.9890360236167909  0.5953376889228821  0.5992315411567688  1.0000
  Ta  Ta1       1.0  0.4876899123191834  0.3008706271648407  0.3903441131114959  1.0000
  U   U1        1.0  0.9894725680351258  0.1142755001783371  0.2225077897310257  1.0000
  Zr  Zr1       1.0  0.49308532476425176  0.047539208084344864  0.021126084029674523  1.0000
