data_image0
_chemical_formula_structural       Ag5Ce4FKMoTe2
_chemical_formula_sum              "Ag5 Ce4 F1 K1 Mo1 Te2"
_cell_length_a       6.221410013220671
_cell_length_b       7.053647938131668
_cell_length_c       6.5573320388793945
_cell_angle_alpha    123.90347843196272
_cell_angle_beta     66.9120231974945
_cell_angle_gamma    79.89141847008159

_space_group_name_H-M_alt    "P 1"
_space_group_IT_number       1

loop_
  _space_group_symop_operation_xyz
  'x, y, z'

loop_
  _atom_site_type_symbol
  _atom_site_label
  _atom_site_symmetry_multiplicity
  _atom_site_fract_x
  _atom_site_fract_y
  _atom_site_fract_z
  _atom_site_occupancy
  Ag  Ag1       1.0  0.1885196715593338  0.09946484118700032  0.17164477705955508  1.0000
  Ag  Ag2       1.0  0.6709589362144469  0.7729846239089967  0.8043364882469178  1.0000
  Ag  Ag3       1.0  0.7980823516845703  0.5856364369392395  0.532131016254425  1.0000
  Ag  Ag4       1.0  0.1910904496908188  0.9796045422554016  0.6560878157615662  1.0000
  Ag  Ag5       1.0  0.2249635607004166  0.092918112874031  0.9459946751594543  1.0000
  Ce  Ce1       1.0  0.31162521243095387  0.23665046691894542  0.920530140399933  1.0000
  Ce  Ce2       1.0  0.31396195292472845  0.956109583377838  0.46270638704299927  1.0000
  Ce  Ce3       1.0  0.19277356564998627  0.1447433233261108  0.6010759472846985  1.0000
  Ce  Ce4       1.0  0.8093256950378418  0.063890054821968  0.9224944114685059  1.0000
  F   F1        1.0  0.7999494671821594  0.6500381231307985  0.7475737333297731  1.0000
  K   K1        1.0  0.7915306091308594  0.5432769656181335  0.08955664187669761  1.0000
  Mo  Mo1       1.0  0.6494420766830444  0.8770164847373962  0.0834591910243035  1.0000
  Te  Te1       1.0  0.6775789856910706  0.03801386430859566  0.30727237462997437  1.0000
  Te  Te2       1.0  0.6946063041687012  0.24268329143524173  0.06282577663660048  1.0000
