data_image0
_chemical_formula_structural       Ca2CoGaHfI4KMo2NV
_chemical_formula_sum              "Ca2 Co1 Ga1 Hf1 I4 K1 Mo2 N1 V1"
_cell_length_a       7.435206637092294
_cell_length_b       9.108940154052705
_cell_length_c       9.342202186584473
_cell_angle_alpha    126.1197765682489
_cell_angle_beta     88.16404932653585
_cell_angle_gamma    89.61858207083708

_space_group_name_H-M_alt    "P 1"
_space_group_IT_number       1

loop_
  _space_group_symop_operation_xyz
  'x, y, z'

loop_
  _atom_site_type_symbol
  _atom_site_label
  _atom_site_symmetry_multiplicity
  _atom_site_fract_x
  _atom_site_fract_y
  _atom_site_fract_z
  _atom_site_occupancy
  Ca  Ca1       1.0  0.993435502052307  0.7505716681480408  0.9112626314163208  1.0000
  Ca  Ca2       1.0  0.0049663581885397426  0.19403767585754395  0.6932342648506165  1.0000
  Co  Co1       1.0  0.01689314842224121  0.23804177343845367  0.41448360681533813  1.0000
  Ga  Ga1       1.0  0.4962292313575744  0.20554490387439728  0.7644875645637512  1.0000
  Hf  Hf1       1.0  0.512000322341919  0.6397866010665894  0.4895031154155731  1.0000
  I   I1        1.0  0.006341060623526572  0.5610914826393127  0.7071202397346497  1.0000
  I   I2        1.0  0.8659724593162536  0.8018798232078552  0.4024330675601959  1.0000
  I   I3        1.0  0.9968137145042418  0.003902281168848276  0.029709164053201675  1.0000
  I   I4        1.0  0.9909532666206359  0.7702077031135559  0.8905380368232727  1.0000
  K   K1        1.0  0.012507734820246695  0.7772749662399292  0.23758485913276683  1.0000
  Mo  Mo1       1.0  0.5202674269676208  0.42086008191108704  0.3273192048072815  1.0000
  Mo  Mo2       1.0  0.49948093295097346  0.029357753694057465  0.26619505882263184  1.0000
  N   N1        1.0  0.4876047074794769  0.2650246024131775  0.9555200934410095  1.0000
  V   V1        1.0  0.0017970800399780271  0.529874324798584  0.6885281801223755  1.0000
