data_image0
_chemical_formula_structural       AgCaCeGaI3KNiPPtTlUZr
_chemical_formula_sum              "Ag1 Ca1 Ce1 Ga1 I3 K1 Ni1 P1 Pt1 Tl1 U1 Zr1"
_cell_length_a       5.958874092889022
_cell_length_b       7.799958342995743
_cell_length_c       8.297011375427246
_cell_angle_alpha    124.03715947571943
_cell_angle_beta     88.76206879284932
_cell_angle_gamma    89.22454685847825

_space_group_name_H-M_alt    "P 1"
_space_group_IT_number       1

loop_
  _space_group_symop_operation_xyz
  'x, y, z'

loop_
  _atom_site_type_symbol
  _atom_site_label
  _atom_site_symmetry_multiplicity
  _atom_site_fract_x
  _atom_site_fract_y
  _atom_site_fract_z
  _atom_site_occupancy
  Ag  Ag1       1.0  0.6671715378761292  0.7192842960357666  0.9615443348884583  1.0000
  Ca  Ca1       1.0  0.6601934432983398  0.9747663140296936  0.43673473596572876  1.0000
  Ce  Ce1       1.0  0.6780176162719727  0.6996859908103943  0.3447847366333007  1.0000
  Ga  Ga1       1.0  0.14780156314373016  0.43394288420677185  0.5258661508560181  1.0000
  I   I1        1.0  0.15687306225299835  0.020669564604759216  0.11754961311817169  1.0000
  I   I2        1.0  0.16336601972579956  0.3307754099369049  0.6466001868247986  1.0000
  I   I3        1.0  0.40973374247550964  0.05789560079574585  0.6489230990409851  1.0000
  K   K1        1.0  0.14314156770706177  0.6452738046646118  0.14001601934432983  1.0000
  Ni  Ni1       1.0  0.6674591898918152  0.29962438344955444  0.699995219707489  1.0000
  P   P1        1.0  0.15670277178287506  0.058070290833711624  0.8529435992240906  1.0000
  Pt  Pt1       1.0  0.6471452116966248  0.022638289257884026  0.02779599465429783  1.0000
  Tl  Tl1       1.0  0.1400076448917389  0.25108858942985535  0.6180384755134583  1.0000
  U   U1        1.0  0.16242757439613342  0.3948093354701996  0.2012117505073547  1.0000
  Zr  Zr1       1.0  0.6674531102180481  0.11064761877059937  0.1548037827014923  1.0000
