data_image0
_chemical_formula_structural       Ag4CeK5NpTe3
_chemical_formula_sum              "Ag4 Ce1 K5 Np1 Te3"
_cell_length_a       7.7163455027846055
_cell_length_b       8.324519998793862
_cell_length_c       15.635456085205078
_cell_angle_alpha    111.52079496943718
_cell_angle_beta     92.49198310915607
_cell_angle_gamma    98.57418087182545

_space_group_name_H-M_alt    "P 1"
_space_group_IT_number       1

loop_
  _space_group_symop_operation_xyz
  'x, y, z'

loop_
  _atom_site_type_symbol
  _atom_site_label
  _atom_site_symmetry_multiplicity
  _atom_site_fract_x
  _atom_site_fract_y
  _atom_site_fract_z
  _atom_site_occupancy
  Ag  Ag1       1.0  0.04199615865945816  0.6259163618087769  0.6701446771621704  1.0000
  Ag  Ag2       1.0  0.42324951291084284  0.5554230809211731  0.9879775643348695  1.0000
  Ag  Ag3       1.0  0.6010951399803162  0.5141836404800415  0.16841532289981842  1.0000
  Ag  Ag4       1.0  0.349855899810791  0.14514575898647308  0.7720932960510254  1.0000
  Ce  Ce1       1.0  0.8968553543090819  0.5899335741996765  0.3201942443847656  1.0000
  K   K1        1.0  0.8676046133041381  0.44961756467819214  0.869312584400177  1.0000
  K   K2        1.0  0.35846489667892456  0.3009601831436157  0.12365930527448656  1.0000
  K   K3        1.0  0.31981590390205383  0.944715142250061  0.7502459883689881  1.0000
  K   K4        1.0  0.9294686317443847  0.5268274545669556  0.45598018169403076  1.0000
  K   K5        1.0  0.5632889866828918  0.958058774471283  0.16913078725337985  1.0000
  Np  Np1       1.0  0.3110845983028412  0.06537552177906036  0.7053203582763672  1.0000
  Te  Te1       1.0  0.34855636954307556  0.4234553873538971  0.4967953860759735  1.0000
  Te  Te2       1.0  0.8856939077377318  0.21783563494682312  0.8050857186317444  1.0000
  Te  Te3       1.0  0.5635022521018982  0.4728357791900635  0.09004185348749161  1.0000
