data_image0
_chemical_formula_structural       Ag6AsK
_chemical_formula_sum              "Ag6 As1 K1"
_cell_length_a       4.551837494255762
_cell_length_b       5.983764847097549
_cell_length_c       6.591681480407715
_cell_angle_alpha    129.78988400392032
_cell_angle_beta     87.59488376946499
_cell_angle_gamma    93.34690123396051

_space_group_name_H-M_alt    "P 1"
_space_group_IT_number       1

loop_
  _space_group_symop_operation_xyz
  'x, y, z'

loop_
  _atom_site_type_symbol
  _atom_site_label
  _atom_site_symmetry_multiplicity
  _atom_site_fract_x
  _atom_site_fract_y
  _atom_site_fract_z
  _atom_site_occupancy
  Ag  Ag1       1.0  0.25029948353767395  0.7163300514221191  0.09670304507017136  1.0000
  Ag  Ag2       1.0  0.7377841472625732  0.5783827304840088  0.8002630472183228  1.0000
  Ag  Ag3       1.0  0.24668540060520172  0.9087796211242676  0.92995947599411  1.0000
  Ag  Ag4       1.0  0.9955031871795654  0.5397653579711914  0.2821948230266571  1.0000
  Ag  Ag5       1.0  0.7625798583030701  0.16878999769687653  0.8449667692184447  1.0000
  Ag  Ag6       1.0  0.26520299911499023  0.7342535257339478  0.8540368080139159  1.0000
  As  As1       1.0  0.5028530955314636  0.6138937473297119  0.7906304597854614  1.0000
  K   K1        1.0  0.7688003182411194  0.7706646919250488  0.22949753701686856  1.0000
