data_image0
_chemical_formula_structural       Ag5AlK2
_chemical_formula_sum              "Ag5 Al1 K2"
_cell_length_a       5.4479210467315
_cell_length_b       5.967282193472096
_cell_length_c       7.834327697753906
_cell_angle_alpha    89.6144599372845
_cell_angle_beta     90.39501013812774
_cell_angle_gamma    89.84820637444334

_space_group_name_H-M_alt    "P 1"
_space_group_IT_number       1

loop_
  _space_group_symop_operation_xyz
  'x, y, z'

loop_
  _atom_site_type_symbol
  _atom_site_label
  _atom_site_symmetry_multiplicity
  _atom_site_fract_x
  _atom_site_fract_y
  _atom_site_fract_z
  _atom_site_occupancy
  Ag  Ag1       1.0  0.2541608512401581  0.4402350187301635  0.7018138766288757  1.0000
  Ag  Ag2       1.0  0.3517593443393707  0.542716383934021  0.9445931315422058  1.0000
  Ag  Ag3       1.0  0.002978010335937143  0.9768001437187194  0.014815105125308037  1.0000
  Ag  Ag4       1.0  0.7314423322677612  0.2577057182788849  0.4497392475605011  1.0000
  Ag  Ag5       1.0  0.2512146830558777  0.9136006832122802  0.8990309238433838  1.0000
  Al  Al1       1.0  0.26783281564712524  0.1417379081249237  0.8632471561431885  1.0000
  K   K1        1.0  0.7672151923179626  0.052602637559175484  0.2669152319431305  1.0000
  K   K2        1.0  0.7544087171554565  0.4217438697814941  0.8952758312225342  1.0000
