data_image0
_chemical_formula_structural       F2Fe2H2O4Zn6
_chemical_formula_sum              "F2 Fe2 H2 O4 Zn6"
_cell_length_a       6.419506846123732
_cell_length_b       6.1080825033709045
_cell_length_c       6.536587715148926
_cell_angle_alpha    67.33139419964758
_cell_angle_beta     61.35304565978595
_cell_angle_gamma    62.03786255299186

_space_group_name_H-M_alt    "P 1"
_space_group_IT_number       1

loop_
  _space_group_symop_operation_xyz
  'x, y, z'

loop_
  _atom_site_type_symbol
  _atom_site_label
  _atom_site_symmetry_multiplicity
  _atom_site_fract_x
  _atom_site_fract_y
  _atom_site_fract_z
  _atom_site_occupancy
  F   F1        1.0  0.9146788120269775  0.6393657922744751  0.9079514741897584  1.0000
  F   F2        1.0  0.21554550528526306  0.4922187030315399  0.723604440689087  1.0000
  Fe  Fe1       1.0  0.7486592531204224  0.6737886667251587  0.7235512137413026  1.0000
  Fe  Fe2       1.0  0.6760580539703369  0.3340795636177063  0.6133017539978027  1.0000
  H   H1        1.0  0.8311104774475098  0.5162953734397888  0.8972313404083253  1.0000
  H   H2        1.0  0.5233389735221863  0.8762708306312561  0.978251338005066  1.0000
  O   O1        1.0  0.37906837463378906  0.12287566065788269  0.8704882860183717  1.0000
  O   O2        1.0  0.4765242338180542  0.6963909268379211  0.1700630933046341  1.0000
  O   O3        1.0  0.8354532718658447  0.9712954759597778  0.9319630265235902  1.0000
  O   O4        1.0  0.8283698558807373  0.7937290668487549  0.9562155008316041  1.0000
  Zn  Zn1       1.0  0.022005461156368256  0.8302134275436401  0.604673445224762  1.0000
  Zn  Zn2       1.0  0.43022361397743225  0.1517869085073471  0.2733040153980255  1.0000
  Zn  Zn3       1.0  0.1697673499584198  0.6469434499740601  0.14100398123264313  1.0000
  Zn  Zn4       1.0  0.014122266322374344  0.3062129616737366  0.6683449149131775  1.0000
  Zn  Zn5       1.0  0.8259241580963135  0.0580529160797596  0.2842325270175934  1.0000
  Zn  Zn6       1.0  0.18301035463809967  0.3373284339904785  0.5188495516777039  1.0000
