data_image0
_chemical_formula_structural       F3H3O4Zn6
_chemical_formula_sum              "F3 H3 O4 Zn6"
_cell_length_a       5.739108595356448
_cell_length_b       6.07298313227235
_cell_length_c       6.182391166687012
_cell_angle_alpha    59.97547728850159
_cell_angle_beta     60.89552771084536
_cell_angle_gamma    59.19975164619068

_space_group_name_H-M_alt    "P 1"
_space_group_IT_number       1

loop_
  _space_group_symop_operation_xyz
  'x, y, z'

loop_
  _atom_site_type_symbol
  _atom_site_label
  _atom_site_symmetry_multiplicity
  _atom_site_fract_x
  _atom_site_fract_y
  _atom_site_fract_z
  _atom_site_occupancy
  F   F1        1.0  0.8379504680633545  0.6382469534873962  0.9707847237586975  1.0000
  F   F2        1.0  0.1578092873096466  0.13498571515083313  0.4041626751422882  1.0000
  F   F3        1.0  0.6476131677627563  0.9705576300621033  0.36584341526031494  1.0000
  H   H1        1.0  0.5190126895904541  0.09743859618902206  0.06419902294874191  1.0000
  H   H2        1.0  0.5249613523483276  0.443207710981369  0.5770942568778992  1.0000
  H   H3        1.0  0.9497092366218567  0.29271945357322693  0.8478509783744812  1.0000
  O   O1        1.0  0.865513265132904  0.6406514048576355  0.3413858413696289  1.0000
  O   O2        1.0  0.3727670907974243  0.6938627362251282  0.3668361008167267  1.0000
  O   O3        1.0  0.9000083804130554  0.1488707810640335  0.22316628694534302  1.0000
  O   O4        1.0  0.4957626163959503  0.19437333941459656  0.7099382281303406  1.0000
  Zn  Zn1       1.0  0.9306502342224121  0.4176226556301117  0.7444832921028137  1.0000
  Zn  Zn2       1.0  0.16686488687992096  0.0443987101316452  0.6377207040786743  1.0000
  Zn  Zn3       1.0  0.9022592902183533  0.48272573947906494  0.6961790323257446  1.0000
  Zn  Zn4       1.0  0.15014952421188354  0.47937947511672974  0.7288914322853088  1.0000
  Zn  Zn5       1.0  0.41522079706192017  0.3986918032169342  0.7163260579109192  1.0000
  Zn  Zn6       1.0  0.640510082244873  0.9615821242332458  0.33857372403144836  1.0000
