data_image0
_chemical_formula_structural       F3Fe2H3O5Zn3
_chemical_formula_sum              "F3 Fe2 H3 O5 Zn3"
_cell_length_a       4.859025119126977
_cell_length_b       5.4872119532016
_cell_length_c       5.262576580047607
_cell_angle_alpha    57.94985999689488
_cell_angle_beta     58.91344156187976
_cell_angle_gamma    60.24804992427835

_space_group_name_H-M_alt    "P 1"
_space_group_IT_number       1

loop_
  _space_group_symop_operation_xyz
  'x, y, z'

loop_
  _atom_site_type_symbol
  _atom_site_label
  _atom_site_symmetry_multiplicity
  _atom_site_fract_x
  _atom_site_fract_y
  _atom_site_fract_z
  _atom_site_occupancy
  F   F1        1.0  0.39757275581359863  0.7396525740623474  0.22694049775600433  1.0000
  F   F2        1.0  0.7956697940826416  0.8830493688583374  0.7050766348838806  1.0000
  F   F3        1.0  0.6909324526786804  0.20284074544906616  0.02670970745384693  1.0000
  Fe  Fe1       1.0  0.7027068734169006  0.6838124990463257  0.038627266883850014  1.0000
  Fe  Fe2       1.0  0.09640732407569885  0.5082210302352905  0.4878983497619629  1.0000
  H   H1        1.0  0.38615018129348755  0.5310813188552856  0.22627520561218262  1.0000
  H   H2        1.0  0.6770846247673035  0.2548874020576477  0.7679378986358643  1.0000
  H   H3        1.0  0.08815282583236694  0.18027231097221375  0.8934296369552612  1.0000
  O   O1        1.0  0.06790255755186081  0.8992024660110474  0.7449974417686462  1.0000
  O   O2        1.0  0.15972422063350677  0.1782555878162384  0.7181519865989685  1.0000
  O   O3        1.0  0.06357792019844055  0.2579713463783264  0.39347201585769653  1.0000
  O   O4        1.0  0.5483055114746094  0.8922526240348816  0.42034149169921875  1.0000
  O   O5        1.0  0.6313338279724121  0.10321211814880371  0.19847463071346283  1.0000
  Zn  Zn1       1.0  0.8415748476982117  0.761790931224823  0.4366105794906616  1.0000
  Zn  Zn2       1.0  0.7243704199790955  0.7011376619338989  0.8945202827453613  1.0000
  Zn  Zn3       1.0  0.3684309720993042  0.945970892906189  0.7845456600189209  1.0000
