data_image0
_chemical_formula_structural       F3H3O5Zn5
_chemical_formula_sum              "F3 H3 O5 Zn5"
_cell_length_a       5.156807317316895
_cell_length_b       3.5487981118492176
_cell_length_c       6.1079840660095215
_cell_angle_alpha    147.69809088569733
_cell_angle_beta     101.29799617815567
_cell_angle_gamma    87.57828765406506

_space_group_name_H-M_alt    "P 1"
_space_group_IT_number       1

loop_
  _space_group_symop_operation_xyz
  'x, y, z'

loop_
  _atom_site_type_symbol
  _atom_site_label
  _atom_site_symmetry_multiplicity
  _atom_site_fract_x
  _atom_site_fract_y
  _atom_site_fract_z
  _atom_site_occupancy
  F   F1        1.0  0.7508392930030823  0.07416108995676043  0.06761118024587633  1.0000
  F   F2        1.0  0.6479952335357666  0.6902645826339722  0.00809124298393726  1.0000
  F   F3        1.0  0.34321290254592896  0.7551541328430178  0.5856871604919435  1.0000
  H   H1        1.0  0.6575257182121277  0.6830783486366274  0.5925734639167787  1.0000
  H   H2        1.0  0.23814623057842255  0.8548092246055602  0.5203577876091003  1.0000
  H   H3        1.0  0.6354691982269287  0.6798570752143861  0.29160851240158087  1.0000
  O   O1        1.0  0.6575825810432434  0.1988099217414857  0.3383019864559174  1.0000
  O   O2        1.0  0.26981672644615173  0.40095612406730646  0.594397246837616  1.0000
  O   O3        1.0  0.6221022009849548  0.6407780647277833  0.19356615841388708  1.0000
  O   O4        1.0  0.11879046261310577  0.15426072478294375  0.0402943566441536  1.0000
  O   O5        1.0  0.16396810114383698  0.8675727248191833  0.08506234735250477  1.0000
  Zn  Zn1       1.0  0.4184940755367279  0.42819249629974365  0.6319053173065186  1.0000
  Zn  Zn2       1.0  0.9237892627716067  0.20199768245220207  0.5779183506965638  1.0000
  Zn  Zn3       1.0  0.3231409192085266  0.670332729816437  0.3802743554115296  1.0000
  Zn  Zn4       1.0  0.24707087874412537  0.08423928916454317  0.062156174331903465  1.0000
  Zn  Zn5       1.0  0.9917885065078735  0.5480281710624697  0.652200758457184  1.0000
