data_image0
_chemical_formula_structural       F3Fe2H2O5Zn4
_chemical_formula_sum              "F3 Fe2 H2 O5 Zn4"
_cell_length_a       6.279611143688099
_cell_length_b       6.433427070814233
_cell_length_c       6.672372341156006
_cell_angle_alpha    62.10967634096261
_cell_angle_beta     60.576423040599785
_cell_angle_gamma    59.61603811715773

_space_group_name_H-M_alt    "P 1"
_space_group_IT_number       1

loop_
  _space_group_symop_operation_xyz
  'x, y, z'

loop_
  _atom_site_type_symbol
  _atom_site_label
  _atom_site_symmetry_multiplicity
  _atom_site_fract_x
  _atom_site_fract_y
  _atom_site_fract_z
  _atom_site_occupancy
  F   F1        1.0  0.29110604524612427  0.5709283351898193  0.1927034705877304  1.0000
  F   F2        1.0  0.07621253281831741  0.6384783983230591  0.7644242644309998  1.0000
  F   F3        1.0  0.44708508253097534  0.9552791714668274  0.09884216636419296  1.0000
  Fe  Fe1       1.0  0.12915369868278503  0.17878279089927673  0.22844769060611725  1.0000
  Fe  Fe2       1.0  0.789950430393219  0.9778925180435181  0.25669634342193604  1.0000
  H   H1        1.0  0.3613339960575104  0.5696538686752319  0.9416114687919617  1.0000
  H   H2        1.0  0.9306938052177429  0.03887147083878517  0.04960099980235106  1.0000
  O   O1        1.0  0.8738616108894348  0.20289751887321472  0.303444504737854  1.0000
  O   O2        1.0  0.5403698682785034  0.6723894476890564  0.1495735943317414  1.0000
  O   O3        1.0  0.4344896972179413  0.23685193061828613  0.9032900929450989  1.0000
  O   O4        1.0  0.10558436065912247  0.1817898452281952  0.7115830183029175  1.0000
  O   O5        1.0  0.6378676295280457  0.6809883117675781  0.7509250640869141  1.0000
  Zn  Zn1       1.0  0.6477856040000916  0.9525009393692017  0.08293332904577255  1.0000
  Zn  Zn2       1.0  0.5522844195365906  0.7668885588645935  0.13319164514541626  1.0000
  Zn  Zn3       1.0  0.13818077743053436  0.1690518707036972  0.5081790089607239  1.0000
  Zn  Zn4       1.0  0.9632714986801147  0.5224410891532898  0.8574676513671875  1.0000
