data_image0
_chemical_formula_structural       FFe3H2O6Zn4
_chemical_formula_sum              "F1 Fe3 H2 O6 Zn4"
_cell_length_a       5.097280513721531
_cell_length_b       6.2536730078329805
_cell_length_c       6.7313690185546875
_cell_angle_alpha    118.45303638336888
_cell_angle_beta     99.60352997333366
_cell_angle_gamma    85.04204391413988

_space_group_name_H-M_alt    "P 1"
_space_group_IT_number       1

loop_
  _space_group_symop_operation_xyz
  'x, y, z'

loop_
  _atom_site_type_symbol
  _atom_site_label
  _atom_site_symmetry_multiplicity
  _atom_site_fract_x
  _atom_site_fract_y
  _atom_site_fract_z
  _atom_site_occupancy
  F   F1        1.0  0.8564786314964294  0.1281137764453888  0.7013182044029236  1.0000
  Fe  Fe1       1.0  0.6758577227592468  0.3533231317996979  0.9127724766731261  1.0000
  Fe  Fe2       1.0  0.5150715112686157  0.2482341229915619  0.05388004332780837  1.0000
  Fe  Fe3       1.0  0.10051120817661285  0.03169875964522362  0.1536768227815628  1.0000
  H   H1        1.0  0.15436458587646484  0.9487330913543701  0.6167157888412476  1.0000
  H   H2        1.0  0.6098096966743469  0.8639704585075378  0.9165595769882201  1.0000
  O   O1        1.0  0.6766545176506042  0.9414278268814087  0.5642032027244568  1.0000
  O   O2        1.0  0.6273312568664551  0.29396072030067444  0.7182444334030151  1.0000
  O   O3        1.0  0.6738372445106506  0.07956218719482422  0.5047014355659485  1.0000
  O   O4        1.0  0.15105219185352325  0.9502628445625305  0.11395159363746636  1.0000
  O   O5        1.0  0.20438413321971893  0.35615238547325134  0.35267290472984314  1.0000
  O   O6        1.0  0.15217645466327667  0.6334030032157898  0.8482877016067504  1.0000
  Zn  Zn1       1.0  0.04149498790502548  0.5401961803436279  0.14291155338287354  1.0000
  Zn  Zn2       1.0  0.17306028306484222  0.04424884915351868  0.4456839263439178  1.0000
  Zn  Zn3       1.0  0.7456767559051514  0.3172377347946167  0.24569700658321378  1.0000
  Zn  Zn4       1.0  0.008513891138136387  0.6355395317077637  0.025843646377325055  1.0000
