data_image0
_chemical_formula_structural       PRu4S2Sm5
_chemical_formula_sum              "P1 Ru4 S2 Sm5"
_cell_length_a       3.9167665011872015
_cell_length_b       7.703451010799202
_cell_length_c       7.643587112426758
_cell_angle_alpha    119.63061114363617
_cell_angle_beta     92.13933822719176
_cell_angle_gamma    88.61720361105854

_space_group_name_H-M_alt    "P 1"
_space_group_IT_number       1

loop_
  _space_group_symop_operation_xyz
  'x, y, z'

loop_
  _atom_site_type_symbol
  _atom_site_label
  _atom_site_symmetry_multiplicity
  _atom_site_fract_x
  _atom_site_fract_y
  _atom_site_fract_z
  _atom_site_occupancy
  P   P1        1.0  0.02533943206071854  0.9475300312042235  0.13070324063301086  1.0000
  Ru  Ru1       1.0  0.5254825353622438  0.1953538805246353  0.5258385539054871  1.0000
  Ru  Ru2       1.0  0.5162895321846008  0.46812555193901056  0.08839679509401323  1.0000
  Ru  Ru3       1.0  0.014753275550901892  0.599841296672821  0.25514772534370417  1.0000
  Ru  Ru4       1.0  0.015224386937916282  0.9409831166267394  0.37659490108489996  1.0000
  S   S1        1.0  0.03696459531784058  0.21461004018783567  0.07938636094331741  1.0000
  S   S2        1.0  0.523820996284485  0.885693073272705  0.6155489087104797  1.0000
  Sm  Sm1       1.0  0.006168603897094727  0.2225399166345596  0.9995253682136537  1.0000
  Sm  Sm2       1.0  0.010102759115397932  0.10310936719179152  0.6032431125640869  1.0000
  Sm  Sm3       1.0  0.5056287050247192  0.7434943318367003  0.18545450270175937  1.0000
  Sm  Sm4       1.0  0.5249770879745485  0.7155932188034057  0.9918957948684693  1.0000
  Sm  Sm5       1.0  0.5229403376579286  0.6456083655357361  0.19107696413993838  1.0000
