data_image0
_chemical_formula_structural       MnP2Ru4SScSm2Tl
_chemical_formula_sum              "Mn1 P2 Ru4 S1 Sc1 Sm2 Tl1"
_cell_length_a       4.334823647747353
_cell_length_b       7.51687578705996
_cell_length_c       7.48874568939209
_cell_angle_alpha    123.99223471642999
_cell_angle_beta     90.5599185245718
_cell_angle_gamma    94.17180671678258

_space_group_name_H-M_alt    "P 1"
_space_group_IT_number       1

loop_
  _space_group_symop_operation_xyz
  'x, y, z'

loop_
  _atom_site_type_symbol
  _atom_site_label
  _atom_site_symmetry_multiplicity
  _atom_site_fract_x
  _atom_site_fract_y
  _atom_site_fract_z
  _atom_site_occupancy
  Mn  Mn1       1.0  0.9397536516189575  0.5212224125862122  0.10985388606786721  1.0000
  P   P1        1.0  0.47099798917770386  0.4885115027427673  0.08559641987085342  1.0000
  P   P2        1.0  0.9622183442115784  0.5987642407417297  0.9148634672164917  1.0000
  Ru  Ru1       1.0  0.4401529133319855  0.2630627155303955  0.37877094745635986  1.0000
  Ru  Ru2       1.0  0.960722804069519  0.02268178202211857  0.2523494064807892  1.0000
  Ru  Ru3       1.0  0.9523105025291443  0.9876788854598998  0.8659140467643738  1.0000
  Ru  Ru4       1.0  0.9420697093009949  0.09360484778881073  0.9158344864845276  1.0000
  S   S1        1.0  0.9603406190872192  0.8509545922279358  0.07283123582601542  1.0000
  Sc  Sc1       1.0  0.4860057532787323  0.04403775930404663  0.10242623835802078  1.0000
  Sm  Sm1       1.0  0.45777374505996704  0.4503743946552276  0.6682617664337158  1.0000
  Sm  Sm2       1.0  0.9770795702934265  0.548028290271759  0.3521051108837127  1.0000
  Tl  Tl1       1.0  0.455828994512558  0.8983857631683348  0.6550137996673584  1.0000
