data_image0
_chemical_formula_structural       PRu11
_chemical_formula_sum              "P1 Ru11"
_cell_length_a       3.7064071197934156
_cell_length_b       7.253204947729985
_cell_length_c       7.034193515777588
_cell_angle_alpha    124.8516769248726
_cell_angle_beta     82.98974970367041
_cell_angle_gamma    89.68900393732287

_space_group_name_H-M_alt    "P 1"
_space_group_IT_number       1

loop_
  _space_group_symop_operation_xyz
  'x, y, z'

loop_
  _atom_site_type_symbol
  _atom_site_label
  _atom_site_symmetry_multiplicity
  _atom_site_fract_x
  _atom_site_fract_y
  _atom_site_fract_z
  _atom_site_occupancy
  P   P1        1.0  0.5664351582527161  0.3005200922489166  0.6463417410850525  1.0000
  Ru  Ru1       1.0  0.06135934218764305  0.14800302684307098  0.19595834612846375  1.0000
  Ru  Ru2       1.0  0.5592057704925537  0.8348259329795837  0.10948376357555384  1.0000
  Ru  Ru3       1.0  0.5675679445266724  0.8885675072669983  0.5170223712921143  1.0000
  Ru  Ru4       1.0  0.07231350988149643  0.09123239666223526  0.28808218240737915  1.0000
  Ru  Ru5       1.0  0.5674065351486206  0.10523645579814911  0.15111149847507477  1.0000
  Ru  Ru6       1.0  0.5509471893310547  0.5535818934440613  0.10985535383224489  1.0000
  Ru  Ru7       1.0  0.044734325259923935  0.6328641772270203  0.28559619188308716  1.0000
  Ru  Ru8       1.0  0.06637632101774216  0.6432998776435852  0.24452696740627292  1.0000
  Ru  Ru9       1.0  0.5710136294364929  0.7456009387969971  0.6307452917098999  1.0000
  Ru  Ru10      1.0  0.05012417957186699  0.39973899722099304  0.31630799174308777  1.0000
  Ru  Ru11      1.0  0.05567474663257599  0.5766043663024902  0.01951475627720356  1.0000
