data_image0
_chemical_formula_structural       PRu6SSm3U
_chemical_formula_sum              "P1 Ru6 S1 Sm3 U1"
_cell_length_a       4.333573840834308
_cell_length_b       7.141937211369378
_cell_length_c       7.419992446899414
_cell_angle_alpha    118.94325661326461
_cell_angle_beta     89.5169033536839
_cell_angle_gamma    109.43603973956789

_space_group_name_H-M_alt    "P 1"
_space_group_IT_number       1

loop_
  _space_group_symop_operation_xyz
  'x, y, z'

loop_
  _atom_site_type_symbol
  _atom_site_label
  _atom_site_symmetry_multiplicity
  _atom_site_fract_x
  _atom_site_fract_y
  _atom_site_fract_z
  _atom_site_occupancy
  P   P1        1.0  0.19408722221851343  0.4916588962078094  0.011142460629343987  1.0000
  Ru  Ru1       1.0  0.6513302326202393  0.03784070536494255  0.8482974767684937  1.0000
  Ru  Ru2       1.0  0.16935354471206665  0.19510033726692197  0.20342017710208893  1.0000
  Ru  Ru3       1.0  0.18657204508781433  0.68898606300354  0.6309858560562134  1.0000
  Ru  Ru4       1.0  0.6715303659439087  0.540387749671936  0.19716908037662506  1.0000
  Ru  Ru5       1.0  0.17015400528907765  0.978601574897766  0.14490902423858643  1.0000
  Ru  Ru6       1.0  0.17198170721530914  0.022923195734620094  0.4867982566356659  1.0000
  S   S1        1.0  0.17116242647171015  0.4336501061916351  0.5785136818885803  1.0000
  Sm  Sm1       1.0  0.6698161959648132  0.3912861347198486  0.22514484822750092  1.0000
  Sm  Sm2       1.0  0.18072223663330078  0.26504120230674744  0.07536105811595917  1.0000
  Sm  Sm3       1.0  0.6925745010375975  0.9902091026306151  0.8657068014144897  1.0000
  U   U1        1.0  0.6728981733322144  0.23370264470577237  0.7396093606948853  1.0000
