data_image0
_chemical_formula_structural       MoPRu9S
_chemical_formula_sum              "Mo1 P1 Ru9 S1"
_cell_length_a       3.008878898837038
_cell_length_b       7.6911292078132885
_cell_length_c       7.112234115600586
_cell_angle_alpha    128.82747425029058
_cell_angle_beta     84.93971257906709
_cell_angle_gamma    97.00993442072951

_space_group_name_H-M_alt    "P 1"
_space_group_IT_number       1

loop_
  _space_group_symop_operation_xyz
  'x, y, z'

loop_
  _atom_site_type_symbol
  _atom_site_label
  _atom_site_symmetry_multiplicity
  _atom_site_fract_x
  _atom_site_fract_y
  _atom_site_fract_z
  _atom_site_occupancy
  Mo  Mo1       1.0  0.4252054691314697  0.9626073837280273  0.15680235624313354  1.0000
  P   P1        1.0  0.9194849133491515  0.8116326928138733  0.10083697736263275  1.0000
  Ru  Ru1       1.0  0.9273958802223204  0.7972490787506104  0.4999340176582337  1.0000
  Ru  Ru2       1.0  0.9327240586280822  0.18674544990062714  0.9793609976768494  1.0000
  Ru  Ru3       1.0  0.9347723126411437  0.6107582449913025  0.44715529680252075  1.0000
  Ru  Ru4       1.0  0.4313191771507263  0.7028002738952637  0.9711947441101074  1.0000
  Ru  Ru5       1.0  0.41822078824043274  0.14170219004154205  0.6648157238960266  1.0000
  Ru  Ru6       1.0  0.41821032762527466  0.9501349329948425  0.17218200862407684  1.0000
  Ru  Ru7       1.0  0.41286230087280273  0.033653534948825836  0.6284859776496887  1.0000
  Ru  Ru8       1.0  0.41772881150245667  0.08456452190876007  0.2448507398366928  1.0000
  Ru  Ru9       1.0  0.9037150144577025  0.3331594169139862  0.14152219891548157  1.0000
  S   S1        1.0  0.7986286878585815  0.23427510261535645  0.6191816926002502  1.0000
