data_image0
_chemical_formula_structural       PRu8Sm3
_chemical_formula_sum              "P1 Ru8 Sm3"
_cell_length_a       5.18711370293697
_cell_length_b       7.622482887212975
_cell_length_c       7.818948268890381
_cell_angle_alpha    122.48364958263159
_cell_angle_beta     86.59437116310589
_cell_angle_gamma    106.61072758862737

_space_group_name_H-M_alt    "P 1"
_space_group_IT_number       1

loop_
  _space_group_symop_operation_xyz
  'x, y, z'

loop_
  _atom_site_type_symbol
  _atom_site_label
  _atom_site_symmetry_multiplicity
  _atom_site_fract_x
  _atom_site_fract_y
  _atom_site_fract_z
  _atom_site_occupancy
  P   P1        1.0  0.6875090003013611  0.584316074848175  0.5684342980384827  1.0000
  Ru  Ru1       1.0  0.16254520416259766  0.29080265760421753  0.8111720681190491  1.0000
  Ru  Ru2       1.0  0.6815187931060791  0.33720722794532776  0.29857778549194336  1.0000
  Ru  Ru3       1.0  0.40410831570625305  0.059171780943870544  0.08339882642030716  1.0000
  Ru  Ru4       1.0  0.6819963455200195  0.7387138605117798  0.7203574776649476  1.0000
  Ru  Ru5       1.0  0.6824514269828796  0.08197016268968582  0.9699998497962952  1.0000
  Ru  Ru6       1.0  0.684322714805603  0.3887847065925598  0.7164989113807678  1.0000
  Ru  Ru7       1.0  0.16653858125209808  0.7004954814910889  0.00232899188995367  1.0000
  Ru  Ru8       1.0  0.18132252991199493  0.7263774871826172  0.2216110676527024  1.0000
  Sm  Sm1       1.0  0.17842376232147217  0.8410975337028503  0.45634114742279064  1.0000
  Sm  Sm2       1.0  0.6785448789596558  0.06221637129783631  0.25502222776412964  1.0000
  Sm  Sm3       1.0  0.15908655524253845  0.34125620126724243  0.92963707447052  1.0000
