data_image0
_chemical_formula_structural       F3Ga2PScZn2
_chemical_formula_sum              "F3 Ga2 P1 Sc1 Zn2"
_cell_length_a       6.194231659747431
_cell_length_b       6.338954244140261
_cell_length_c       6.963930130004883
_cell_angle_alpha    109.37688387486716
_cell_angle_beta     96.65552258679571
_cell_angle_gamma    109.85868148414642

_space_group_name_H-M_alt    "P 1"
_space_group_IT_number       1

loop_
  _space_group_symop_operation_xyz
  'x, y, z'

loop_
  _atom_site_type_symbol
  _atom_site_label
  _atom_site_symmetry_multiplicity
  _atom_site_fract_x
  _atom_site_fract_y
  _atom_site_fract_z
  _atom_site_occupancy
  F   F1        1.0  0.9598363637924194  0.10888417065143585  0.44512543082237244  1.0000
  F   F2        1.0  0.9269449710845947  0.7064576745033264  0.5106094479560852  1.0000
  F   F3        1.0  0.5272538661956787  0.9730636477470398  0.5569387078285217  1.0000
  Ga  Ga1       1.0  0.17139528691768646  0.6768205761909485  0.8781086206436157  1.0000
  Ga  Ga2       1.0  0.5497937798500061  0.9040601253509521  0.9671212434768677  1.0000
  P   P1        1.0  0.669401228427887  0.5849453210830688  0.8139811754226685  1.0000
  Sc  Sc1       1.0  0.4590590000152588  0.5643682479858398  0.6345755457878113  1.0000
  Zn  Zn1       1.0  0.932217538356781  0.562432587146759  0.6024523377418518  1.0000
  Zn  Zn2       1.0  0.20026379823684692  0.7670350670814514  0.681897759437561  1.0000
