data_image0
_chemical_formula_structural       Cr4F2K3
_chemical_formula_sum              "Cr4 F2 K3"
_cell_length_a       6.129643063952653
_cell_length_b       5.998477747202306
_cell_length_c       6.138666152954102
_cell_angle_alpha    109.9395825970308
_cell_angle_beta     112.79916244677818
_cell_angle_gamma    106.53697154501486

_space_group_name_H-M_alt    "P 1"
_space_group_IT_number       1

loop_
  _space_group_symop_operation_xyz
  'x, y, z'

loop_
  _atom_site_type_symbol
  _atom_site_label
  _atom_site_symmetry_multiplicity
  _atom_site_fract_x
  _atom_site_fract_y
  _atom_site_fract_z
  _atom_site_occupancy
  Cr  Cr1       1.0  0.5055694580078125  0.8428336381912231  0.6421166062355043  1.0000
  Cr  Cr2       1.0  0.45255184173583984  0.39636221528053284  0.47566869854927063  1.0000
  Cr  Cr3       1.0  0.9620217680931091  0.33425217866897583  0.5054077506065369  1.0000
  Cr  Cr4       1.0  0.24282881617546082  0.20828749239444733  0.10109500586986546  1.0000
  F   F1        1.0  0.9031277298927307  0.6947947144508362  0.3668661713600159  1.0000
  F   F2        1.0  0.016315970569849014  0.024842677637934685  0.6271573305130005  1.0000
  K   K1        1.0  0.0018591792322695255  0.6891314387321472  0.11489534378051765  1.0000
  K   K2        1.0  0.5645299553871155  0.14969336986541748  0.8089243769645691  1.0000
  K   K3        1.0  0.9538751244544983  0.33096635341644287  0.5431647896766663  1.0000
