data_image0
_chemical_formula_structural       F2Ga3KPt2Se
_chemical_formula_sum              "F2 Ga3 K1 Pt2 Se1"
_cell_length_a       5.19784855750146
_cell_length_b       6.875276550164243
_cell_length_c       7.847353458404541
_cell_angle_alpha    121.54622988579032
_cell_angle_beta     89.23938952857836
_cell_angle_gamma    87.6986443685821

_space_group_name_H-M_alt    "P 1"
_space_group_IT_number       1

loop_
  _space_group_symop_operation_xyz
  'x, y, z'

loop_
  _atom_site_type_symbol
  _atom_site_label
  _atom_site_symmetry_multiplicity
  _atom_site_fract_x
  _atom_site_fract_y
  _atom_site_fract_z
  _atom_site_occupancy
  F   F1        1.0  0.9186017513275146  0.13671693205833435  0.2787337899208069  1.0000
  F   F2        1.0  0.9130241870880127  0.578988254070282  0.43288075923919683  1.0000
  Ga  Ga1       1.0  0.9091207385063171  0.45956283807754517  0.8578142523765564  1.0000
  Ga  Ga2       1.0  0.9198351502418518  0.6081783771514893  0.06590592116117483  1.0000
  Ga  Ga3       1.0  0.40899035334587097  0.07850529998540878  0.8930955529212952  1.0000
  K   K1        1.0  0.41515257954597473  0.9910726547241211  0.26151338219642645  1.0000
  Pt  Pt1       1.0  0.9166193604469299  0.5665894150733948  0.7503584027290344  1.0000
  Pt  Pt2       1.0  0.4133220613002777  0.000775858061388135  0.7406050562858582  1.0000
  Se  Se1       1.0  0.4070281982421875  0.14131470024585724  0.10486368834972382  1.0000
