data_image0
_chemical_formula_structural       Cd2Hg4Zr3
_chemical_formula_sum              "Cd2 Hg4 Zr3"
_cell_length_a       4.3656024134493645
_cell_length_b       7.411924783417226
_cell_length_c       7.430195331573486
_cell_angle_alpha    119.78292168436313
_cell_angle_beta     90.06467412984726
_cell_angle_gamma    90.16309534215955

_space_group_name_H-M_alt    "P 1"
_space_group_IT_number       1

loop_
  _space_group_symop_operation_xyz
  'x, y, z'

loop_
  _atom_site_type_symbol
  _atom_site_label
  _atom_site_symmetry_multiplicity
  _atom_site_fract_x
  _atom_site_fract_y
  _atom_site_fract_z
  _atom_site_occupancy
  Cd  Cd1       1.0  0.11365587264299393  0.34315264225006104  0.7832808494567871  1.0000
  Cd  Cd2       1.0  0.10832872986793518  0.600777268409729  0.5328475832939148  1.0000
  Hg  Hg1       1.0  0.11150019615888596  0.8622063994407654  0.03531301021575928  1.0000
  Hg  Hg2       1.0  0.10940725356340408  0.9502421021461487  0.46109488606452936  1.0000
  Hg  Hg3       1.0  0.10993130505084991  0.29115891456604004  0.12197235971689223  1.0000
  Hg  Hg4       1.0  0.6082270741462708  0.5985865592956543  0.7828280925750732  1.0000
  Zr  Zr1       1.0  0.6083923578262329  0.0011893510818481445  0.7888953685760498  1.0000
  Zr  Zr2       1.0  0.6087328791618347  0.19427092373371124  0.3554874360561371  1.0000
  Zr  Zr3       1.0  0.6094489097595215  0.6207513809204102  0.19929578900337214  1.0000
