data_image0
_chemical_formula_structural       CdGeHHgKTe2Zr2
_chemical_formula_sum              "Cd1 Ge1 H1 Hg1 K1 Te2 Zr2"
_cell_length_a       4.209546281427323
_cell_length_b       4.200598034740421
_cell_length_c       15.526633262634277
_cell_angle_alpha    89.94354905121533
_cell_angle_beta     89.9366086372813
_cell_angle_gamma    119.60734448676837

_space_group_name_H-M_alt    "P 1"
_space_group_IT_number       1

loop_
  _space_group_symop_operation_xyz
  'x, y, z'

loop_
  _atom_site_type_symbol
  _atom_site_label
  _atom_site_symmetry_multiplicity
  _atom_site_fract_x
  _atom_site_fract_y
  _atom_site_fract_z
  _atom_site_occupancy
  Cd  Cd1       1.0  0.09896109253168106  0.9589978456497192  0.4180910885334015  1.0000
  Ge  Ge1       1.0  0.43166595697402954  0.6335793733596802  0.6429412364959717  1.0000
  H   H1        1.0  0.7669703960418701  0.2923513352870941  0.44140318036079407  1.0000
  Hg  Hg1       1.0  0.7675252556800842  0.29278114438056946  0.17122937738895416  1.0000
  K   K1        1.0  0.4345208704471588  0.6307975649833679  0.9931660890579224  1.0000
  Te  Te1       1.0  0.43201982975006104  0.6311737298965454  0.3089572191238404  1.0000
  Te  Te2       1.0  0.7672068476676941  0.2941579818725586  0.8333688974380493  1.0000
  Zr  Zr1       1.0  0.7682780623435974  0.29251229763031006  0.5815907120704651  1.0000
  Zr  Zr2       1.0  0.09702423214912415  0.9583131074905396  0.7332488298416138  1.0000
