data_image0
_chemical_formula_structural       Cd2Hg5Zr2
_chemical_formula_sum              "Cd2 Hg5 Zr2"
_cell_length_a       4.877430311330666
_cell_length_b       7.339925151782887
_cell_length_c       7.360692024230957
_cell_angle_alpha    119.77824331532429
_cell_angle_beta     89.9295500631525
_cell_angle_gamma    90.14773641274911

_space_group_name_H-M_alt    "P 1"
_space_group_IT_number       1

loop_
  _space_group_symop_operation_xyz
  'x, y, z'

loop_
  _atom_site_type_symbol
  _atom_site_label
  _atom_site_symmetry_multiplicity
  _atom_site_fract_x
  _atom_site_fract_y
  _atom_site_fract_z
  _atom_site_occupancy
  Cd  Cd1       1.0  0.5162439346313477  0.46424564719200134  0.6959683299064636  1.0000
  Cd  Cd2       1.0  0.5131089091300964  0.9924067258834839  0.4204627871513366  1.0000
  Hg  Hg1       1.0  0.01606517843902111  0.7518085837364197  0.47651365399360657  1.0000
  Hg  Hg2       1.0  0.5127255320549011  0.9037405848503113  0.7859452366828918  1.0000
  Hg  Hg3       1.0  0.5149096846580505  0.594918966293335  0.11075412482023242  1.0000
  Hg  Hg4       1.0  0.01634659431874752  0.25323477387428284  0.47378736734390253  1.0000
  Hg  Hg5       1.0  0.5161921977996826  0.23017644882202148  0.19047264754772186  1.0000
  Zr  Zr1       1.0  0.010003447532653809  0.8150636553764343  0.021508926525712013  1.0000
  Zr  Zr2       1.0  0.018576854839920998  0.22742024064064026  0.8916465640068054  1.0000
