data_image0
_chemical_formula_structural       CdGeHg2PrTe3Zr
_chemical_formula_sum              "Cd1 Ge1 Hg2 Pr1 Te3 Zr1"
_cell_length_a       6.440275798331546
_cell_length_b       6.416316437888316
_cell_length_c       6.416162490844727
_cell_angle_alpha    98.80348464739019
_cell_angle_beta     98.93738784726914
_cell_angle_gamma    99.07071909738713

_space_group_name_H-M_alt    "P 1"
_space_group_IT_number       1

loop_
  _space_group_symop_operation_xyz
  'x, y, z'

loop_
  _atom_site_type_symbol
  _atom_site_label
  _atom_site_symmetry_multiplicity
  _atom_site_fract_x
  _atom_site_fract_y
  _atom_site_fract_z
  _atom_site_occupancy
  Cd  Cd1       1.0  0.3225579261779785  0.8062815070152283  0.5944874286651611  1.0000
  Ge  Ge1       1.0  0.6334004402160645  0.6553104519844055  0.5557895302772522  1.0000
  Hg  Hg1       1.0  0.9477816820144653  0.8938518166542053  0.8827882409095764  1.0000
  Hg  Hg2       1.0  0.6783071756362915  0.2928820848464966  0.5966222882270813  1.0000
  Pr  Pr1       1.0  0.3508000671863556  0.4081648290157318  0.13494403660297394  1.0000
  Te  Te1       1.0  0.4431841969490051  0.9170929789543152  0.10121598094701767  1.0000
  Te  Te2       1.0  0.17219337821006775  0.23293714225292206  0.6057299375534058  1.0000
  Te  Te3       1.0  0.8677696585655212  0.44283705949783325  0.10341568291187286  1.0000
  Zr  Zr1       1.0  0.8546130061149597  0.8664758801460266  0.3634316921234131  1.0000
