data_image0
_chemical_formula_structural       Mg3MnO5P
_chemical_formula_sum              "Mg3 Mn1 O5 P1"
_cell_length_a       5.7771806686897715
_cell_length_b       5.954164966773947
_cell_length_c       5.580893516540527
_cell_angle_alpha    58.55127634366059
_cell_angle_beta     56.71091166903336
_cell_angle_gamma    60.7814695150163

_space_group_name_H-M_alt    "P 1"
_space_group_IT_number       1

loop_
  _space_group_symop_operation_xyz
  'x, y, z'

loop_
  _atom_site_type_symbol
  _atom_site_label
  _atom_site_symmetry_multiplicity
  _atom_site_fract_x
  _atom_site_fract_y
  _atom_site_fract_z
  _atom_site_occupancy
  Mg  Mg1       1.0  0.3551323413848877  0.545408308506012  0.3522190451622009  1.0000
  Mg  Mg2       1.0  0.6709303855895996  0.49704533815383906  0.6389862298965454  1.0000
  Mg  Mg3       1.0  0.3560795485973358  0.21558265388011932  0.3579406142234802  1.0000
  Mn  Mn1       1.0  0.3583517074584961  0.8899500370025635  0.846553385257721  1.0000
  O   O1        1.0  0.9913915991783142  0.35072967410087585  0.80338454246521  1.0000
  O   O2        1.0  0.9901539087295532  0.6758087277412415  0.3068108856678009  1.0000
  O   O3        1.0  0.5177581906318665  0.35623493790626526  0.8508730530738831  1.0000
  O   O4        1.0  0.9691653251647949  0.6253597140312195  0.996180534362793  1.0000
  O   O5        1.0  0.47575774788856506  0.9171950817108153  0.6491655707359314  1.0000
  P   P1        1.0  0.745993435382843  0.7043796181678772  0.8284375667572021  1.0000
