data_image0
_chemical_formula_structural       AgFMg2O6
_chemical_formula_sum              "Ag1 F1 Mg2 O6"
_cell_length_a       4.697925004107631
_cell_length_b       5.639413061125105
_cell_length_c       5.249556064605713
_cell_angle_alpha    60.12673230246194
_cell_angle_beta     54.56808022176509
_cell_angle_gamma    63.952924906207556

_space_group_name_H-M_alt    "P 1"
_space_group_IT_number       1

loop_
  _space_group_symop_operation_xyz
  'x, y, z'

loop_
  _atom_site_type_symbol
  _atom_site_label
  _atom_site_symmetry_multiplicity
  _atom_site_fract_x
  _atom_site_fract_y
  _atom_site_fract_z
  _atom_site_occupancy
  Ag  Ag1       1.0  0.31659770011901855  0.695499837398529  0.8002588748931885  1.0000
  F   F1        1.0  0.06481332331895828  0.697333574295044  0.3964957892894745  1.0000
  Mg  Mg1       1.0  0.896293044090271  0.08627580106258392  0.3349662721157075  1.0000
  Mg  Mg2       1.0  0.0876169428229332  0.1729271113872528  0.10384883731603622  1.0000
  O   O1        1.0  0.35655114054679865  0.9828855395317079  0.9271256327629089  1.0000
  O   O2        1.0  0.8850632309913635  0.32314831018447876  0.842145562171936  1.0000
  O   O3        1.0  0.24428501725196838  0.3325778543949127  0.6060688495635986  1.0000
  O   O4        1.0  0.8271130323410034  0.9633919596672059  0.39300811290740967  1.0000
  O   O5        1.0  0.7972800135612488  0.6910148859024048  0.31675484776496887  1.0000
  O   O6        1.0  0.3108937442302704  0.7059615850448608  0.876225471496582  1.0000
