data_image0
_chemical_formula_structural       Mg2Mo3O5
_chemical_formula_sum              "Mg2 Mo3 O5"
_cell_length_a       4.596924052196691
_cell_length_b       6.203784836303227
_cell_length_c       6.306352138519287
_cell_angle_alpha    70.42127701027454
_cell_angle_beta     61.53021824794982
_cell_angle_gamma    61.18588373301876

_space_group_name_H-M_alt    "P 1"
_space_group_IT_number       1

loop_
  _space_group_symop_operation_xyz
  'x, y, z'

loop_
  _atom_site_type_symbol
  _atom_site_label
  _atom_site_symmetry_multiplicity
  _atom_site_fract_x
  _atom_site_fract_y
  _atom_site_fract_z
  _atom_site_occupancy
  Mg  Mg1       1.0  0.6022807955741882  0.7547427415847778  0.8055604696273804  1.0000
  Mg  Mg2       1.0  0.13360172510147095  0.4697616696357727  0.3911527693271637  1.0000
  Mo  Mo1       1.0  0.320755273103714  0.7162578701972961  0.5459024906158447  1.0000
  Mo  Mo2       1.0  0.035417698323726654  0.8140048384666443  0.38787609338760376  1.0000
  Mo  Mo3       1.0  0.5979217290878296  0.22807247936725616  0.5718052983283997  1.0000
  O   O1        1.0  0.663281261920929  0.24464410543441772  0.8991583585739136  1.0000
  O   O2        1.0  0.6692585349082947  0.2090923935174942  0.8934166431427002  1.0000
  O   O3        1.0  0.6375675201416016  0.629400372505188  0.08194799721240997  1.0000
  O   O4        1.0  0.38785630464553833  0.5069277882575989  0.20866866409778595  1.0000
  O   O5        1.0  0.1661422699689865  0.3564040958881378  0.956359326839447  1.0000
