data_image0
_chemical_formula_structural       Mg2Mo3O5
_chemical_formula_sum              "Mg2 Mo3 O5"
_cell_length_a       5.295845751281721
_cell_length_b       5.583921297551812
_cell_length_c       5.242311954498291
_cell_angle_alpha    61.506329225092465
_cell_angle_beta     59.331109364833424
_cell_angle_gamma    60.38045272763615

_space_group_name_H-M_alt    "P 1"
_space_group_IT_number       1

loop_
  _space_group_symop_operation_xyz
  'x, y, z'

loop_
  _atom_site_type_symbol
  _atom_site_label
  _atom_site_symmetry_multiplicity
  _atom_site_fract_x
  _atom_site_fract_y
  _atom_site_fract_z
  _atom_site_occupancy
  Mg  Mg1       1.0  0.4859672784805298  0.44893983006477356  0.6065987944602966  1.0000
  Mg  Mg2       1.0  0.5205916166305542  0.13116967678070068  0.9745604395866394  1.0000
  Mo  Mo1       1.0  0.19417771697044373  0.6978691816329956  0.34449252486228943  1.0000
  Mo  Mo2       1.0  0.8713264465332031  0.20860831439495087  0.6264573335647583  1.0000
  Mo  Mo3       1.0  0.9447735548019409  0.45079857110977173  0.8622351288795471  1.0000
  O   O1        1.0  0.9867173433303833  0.13942621648311615  0.3009117543697358  1.0000
  O   O2        1.0  0.035004623234272  0.6428261995315552  0.15601776540279388  1.0000
  O   O3        1.0  0.4248141348361969  0.32702431082725525  0.66752028465271  1.0000
  O   O4        1.0  0.4224023222923279  0.6308284401893616  0.25827333331108093  1.0000
  O   O5        1.0  0.9311243891716003  0.6920945048332214  0.3381205201148987  1.0000
