data_image0
_chemical_formula_structural       BaFMg2O6
_chemical_formula_sum              "Ba1 F1 Mg2 O6"
_cell_length_a       5.91409291348639
_cell_length_b       5.938386175212662
_cell_length_c       5.826161861419678
_cell_angle_alpha    60.67140994586254
_cell_angle_beta     60.594545738292865
_cell_angle_gamma    59.91630536891976

_space_group_name_H-M_alt    "P 1"
_space_group_IT_number       1

loop_
  _space_group_symop_operation_xyz
  'x, y, z'

loop_
  _atom_site_type_symbol
  _atom_site_label
  _atom_site_symmetry_multiplicity
  _atom_site_fract_x
  _atom_site_fract_y
  _atom_site_fract_z
  _atom_site_occupancy
  Ba  Ba1       1.0  0.013608315959572792  0.0010889002587646246  0.3200751841068268  1.0000
  F   F1        1.0  0.708797812461853  0.002925400622189045  0.792068600654602  1.0000
  Mg  Mg1       1.0  0.4938187301158905  0.9960896968841554  0.3852464258670805  1.0000
  Mg  Mg2       1.0  0.4344674050807953  0.47464495897293096  0.15949799120426178  1.0000
  O   O1        1.0  0.9190645217895508  0.48046851158142095  0.7004547715187073  1.0000
  O   O2        1.0  0.96369469165802  0.9591128826141359  0.17511318624019606  1.0000
  O   O3        1.0  0.42503121495246887  0.017109692096710205  0.9421150088310242  1.0000
  O   O4        1.0  0.6336148381233215  0.7924072742462158  0.07773929089307785  1.0000
  O   O5        1.0  0.6570944786071777  0.8035739660263062  0.4754956066608429  1.0000
  O   O6        1.0  0.12737634778022763  0.47902452945709234  0.48613885045051575  1.0000
