data_image0
_chemical_formula_structural       BaMg2O7
_chemical_formula_sum              "Ba1 Mg2 O7"
_cell_length_a       5.977649502200408
_cell_length_b       6.101788097235986
_cell_length_c       5.846094608306885
_cell_angle_alpha    62.82370076943342
_cell_angle_beta     61.240267992883446
_cell_angle_gamma    61.57911471670118

_space_group_name_H-M_alt    "P 1"
_space_group_IT_number       1

loop_
  _space_group_symop_operation_xyz
  'x, y, z'

loop_
  _atom_site_type_symbol
  _atom_site_label
  _atom_site_symmetry_multiplicity
  _atom_site_fract_x
  _atom_site_fract_y
  _atom_site_fract_z
  _atom_site_occupancy
  Ba  Ba1       1.0  0.6896843314170837  0.7427757978439331  0.9002498984336853  1.0000
  Mg  Mg1       1.0  0.18303409218788147  0.6675276756286621  0.365744411945343  1.0000
  Mg  Mg2       1.0  0.17864026129245758  0.893293559551239  0.8746945858001709  1.0000
  O   O1        1.0  0.5592300891876221  0.88688063621521  0.5607696771621704  1.0000
  O   O2        1.0  0.21942371129989624  0.19227749109268188  0.36979910731315613  1.0000
  O   O3        1.0  0.7856664061546326  0.1489083170890808  0.30394107103347784  1.0000
  O   O4        1.0  0.8584567308425903  0.13894867897033691  0.4809490144252777  1.0000
  O   O5        1.0  0.6706886291503906  0.3925652801990509  0.6274108290672302  1.0000
  O   O6        1.0  0.431692510843277  0.1755390763282776  0.8998746275901794  1.0000
  O   O7        1.0  0.6635533571243286  0.6815721392631531  0.1479113698005677  1.0000
