data_image0
_chemical_formula_structural       Al4Na3TeTi
_chemical_formula_sum              "Al4 Na3 Te1 Ti1"
_cell_length_a       5.2245951978533185
_cell_length_b       5.266942725111457
_cell_length_c       7.337348937988281
_cell_angle_alpha    73.92742372445278
_cell_angle_beta     69.3434733302917
_cell_angle_gamma    61.01637966945336

_space_group_name_H-M_alt    "P 1"
_space_group_IT_number       1

loop_
  _space_group_symop_operation_xyz
  'x, y, z'

loop_
  _atom_site_type_symbol
  _atom_site_label
  _atom_site_symmetry_multiplicity
  _atom_site_fract_x
  _atom_site_fract_y
  _atom_site_fract_z
  _atom_site_occupancy
  Al  Al1       1.0  0.01319833192974329  0.2590743601322174  0.08520009368658067  1.0000
  Al  Al2       1.0  0.35504743456840515  0.04753291234374046  0.7477580904960632  1.0000
  Al  Al3       1.0  0.589550256729126  0.6241270899772644  0.18039555847644806  1.0000
  Al  Al4       1.0  0.6636974215507507  0.6852913498878479  0.4331631064414978  1.0000
  Na  Na1       1.0  0.6664645671844482  0.18404969573020935  0.9406901597976685  1.0000
  Na  Na2       1.0  0.8601266145706177  0.5050185322761536  0.43238091468811035  1.0000
  Na  Na3       1.0  0.29447293281555176  0.08850519359111786  0.41475215554237366  1.0000
  Te  Te1       1.0  0.8627008199691772  0.2948632538318634  0.49897581338882446  1.0000
  Ti  Ti1       1.0  0.4439954459667206  0.8047586679458618  0.9409345984458923  1.0000
