data_image0
_chemical_formula_structural       Al5Na2Te2
_chemical_formula_sum              "Al5 Na2 Te2"
_cell_length_a       4.575178932624233
_cell_length_b       5.440594228705653
_cell_length_c       9.480292320251465
_cell_angle_alpha    83.24615591285351
_cell_angle_beta     75.74068795589446
_cell_angle_gamma    63.919378218303315

_space_group_name_H-M_alt    "P 1"
_space_group_IT_number       1

loop_
  _space_group_symop_operation_xyz
  'x, y, z'

loop_
  _atom_site_type_symbol
  _atom_site_label
  _atom_site_symmetry_multiplicity
  _atom_site_fract_x
  _atom_site_fract_y
  _atom_site_fract_z
  _atom_site_occupancy
  Al  Al1       1.0  0.174814835190773  0.8484126329421997  0.3207489252090454  1.0000
  Al  Al2       1.0  0.15799131989479065  0.3105926513671875  0.033925943076610565  1.0000
  Al  Al3       1.0  0.5121161341667175  0.10146751254796982  0.6135478019714355  1.0000
  Al  Al4       1.0  0.7094026207923889  0.9238457083702087  0.3973024785518646  1.0000
  Al  Al5       1.0  0.422050803899765  0.8034452199935913  0.4302160143852234  1.0000
  Na  Na1       1.0  0.5291515588760376  0.9274049401283264  0.910102903842926  1.0000
  Na  Na2       1.0  0.0008361339569091797  0.4225928783416748  0.43021127581596375  1.0000
  Te  Te1       1.0  0.5106779336929321  0.5485898852348328  0.6002734303474426  1.0000
  Te  Te2       1.0  0.044653479009866714  0.08403631299734116  0.8617469668388367  1.0000
