data_image0
_chemical_formula_structural       Al4Na2Te3
_chemical_formula_sum              "Al4 Na2 Te3"
_cell_length_a       5.749256887119611
_cell_length_b       5.9425075453048395
_cell_length_c       8.992487907409668
_cell_angle_alpha    73.82277317332733
_cell_angle_beta     70.7202833396741
_cell_angle_gamma    61.45231913302846

_space_group_name_H-M_alt    "P 1"
_space_group_IT_number       1

loop_
  _space_group_symop_operation_xyz
  'x, y, z'

loop_
  _atom_site_type_symbol
  _atom_site_label
  _atom_site_symmetry_multiplicity
  _atom_site_fract_x
  _atom_site_fract_y
  _atom_site_fract_z
  _atom_site_occupancy
  Al  Al1       1.0  0.8431705832481384  0.2626371383666992  0.580436646938324  1.0000
  Al  Al2       1.0  0.7581344246864319  0.6408370137214661  0.27132847905158997  1.0000
  Al  Al3       1.0  0.6657007336616516  0.6087585091590881  0.532668948173523  1.0000
  Al  Al4       1.0  0.023939520120620644  0.9489719271659852  0.359997034072876  1.0000
  Na  Na1       1.0  0.3416234254837036  0.2851785123348236  0.18187454342842102  1.0000
  Na  Na2       1.0  0.8429503440856934  0.7625206112861633  0.13402655720710754  1.0000
  Te  Te1       1.0  0.4567018747329712  0.2501929998397827  0.12339537590742111  1.0000
  Te  Te2       1.0  0.15663142502307892  0.7064028382301331  0.309190958738327  1.0000
  Te  Te3       1.0  0.20982971787452698  0.34205392003059387  0.7497501969337463  1.0000
