data_image0
_chemical_formula_structural       Al4CeNa2Te2
_chemical_formula_sum              "Al4 Ce1 Na2 Te2"
_cell_length_a       5.4698714203218355
_cell_length_b       6.147277125159003
_cell_length_c       7.937601566314697
_cell_angle_alpha    83.60827565260522
_cell_angle_beta     72.26003309203458
_cell_angle_gamma    64.86322019249094

_space_group_name_H-M_alt    "P 1"
_space_group_IT_number       1

loop_
  _space_group_symop_operation_xyz
  'x, y, z'

loop_
  _atom_site_type_symbol
  _atom_site_label
  _atom_site_symmetry_multiplicity
  _atom_site_fract_x
  _atom_site_fract_y
  _atom_site_fract_z
  _atom_site_occupancy
  Al  Al1       1.0  0.2712745666503906  0.05647528916597366  0.8980420827865602  1.0000
  Al  Al2       1.0  0.46191227436065674  0.3156910836696625  0.913259744644165  1.0000
  Al  Al3       1.0  0.25373244285583496  0.6842781901359558  0.42583587765693665  1.0000
  Al  Al4       1.0  0.003048153594136238  0.11025594174861908  0.577762246131897  1.0000
  Ce  Ce1       1.0  0.15700510144233704  0.3160652816295624  0.39883917570114136  1.0000
  Na  Na1       1.0  0.15898901224136353  0.6828334927558899  0.10666753351688385  1.0000
  Na  Na2       1.0  0.6679213047027588  0.9680498242378235  0.6962203979492188  1.0000
  Te  Te1       1.0  0.4966387152671814  0.9043642282485962  0.19749000668525696  1.0000
  Te  Te2       1.0  0.950880765914917  0.2996271252632141  0.1374514847993851  1.0000
