data_image0
_chemical_formula_structural       Al4LaNa2Te2
_chemical_formula_sum              "Al4 La1 Na2 Te2"
_cell_length_a       5.702471881860316
_cell_length_b       5.988047731995769
_cell_length_c       7.900962829589844
_cell_angle_alpha    84.25657013186303
_cell_angle_beta     77.80897856160038
_cell_angle_gamma    60.291664004024476

_space_group_name_H-M_alt    "P 1"
_space_group_IT_number       1

loop_
  _space_group_symop_operation_xyz
  'x, y, z'

loop_
  _atom_site_type_symbol
  _atom_site_label
  _atom_site_symmetry_multiplicity
  _atom_site_fract_x
  _atom_site_fract_y
  _atom_site_fract_z
  _atom_site_occupancy
  Al  Al1       1.0  0.5450547933578491  0.7581406235694885  0.9016558527946472  1.0000
  Al  Al2       1.0  0.0918816328048706  0.641349732875824  0.4130276143550873  1.0000
  Al  Al3       1.0  0.32020190358161926  0.9663972854614258  0.04648371413350105  1.0000
  Al  Al4       1.0  0.07844454795122147  0.14474718272686005  0.404331773519516  1.0000
  La  La1       1.0  0.3979833424091339  0.13939757645130157  0.0498959943652153  1.0000
  Na  Na1       1.0  0.46873211860656744  0.4673483669757843  0.7399568557739258  1.0000
  Na  Na2       1.0  0.9430732727050782  0.16672803461551666  0.613821804523468  1.0000
  Te  Te1       1.0  0.424796611070633  0.33015158772468567  0.821578860282898  1.0000
  Te  Te2       1.0  0.7146766185760498  0.6792184114456177  0.5687358379364014  1.0000
