data_image0
_chemical_formula_structural       CCl2Ge2I2InLi4MgPb2
_chemical_formula_sum              "C1 Cl2 Ge2 I2 In1 Li4 Mg1 Pb2"
_cell_length_a       7.072645147533979
_cell_length_b       7.18514178546237
_cell_length_c       8.434072494506836
_cell_angle_alpha    95.1331559392325
_cell_angle_beta     90.2710047219301
_cell_angle_gamma    91.48595415161405

_space_group_name_H-M_alt    "P 1"
_space_group_IT_number       1

loop_
  _space_group_symop_operation_xyz
  'x, y, z'

loop_
  _atom_site_type_symbol
  _atom_site_label
  _atom_site_symmetry_multiplicity
  _atom_site_fract_x
  _atom_site_fract_y
  _atom_site_fract_z
  _atom_site_occupancy
  C   C1        1.0  0.7262803912162782  0.3879048824310303  0.10323791205883026  1.0000
  Cl  Cl1       1.0  0.21348595619201663  0.9512388110160828  0.1414409726858139  1.0000
  Cl  Cl2       1.0  0.21671511232852939  0.381035178899765  0.4156861901283264  1.0000
  Ge  Ge1       1.0  0.2445444166660309  0.13007499277591705  0.5974085927009583  1.0000
  Ge  Ge2       1.0  0.20790743827819827  0.26190564036369324  0.25637221336364746  1.0000
  I   I1        1.0  0.708407759666443  0.8240576386451721  0.23479121923446655  1.0000
  I   I2        1.0  0.7142921090126039  0.1656894087791443  0.624351978302002  1.0000
  In  In1       1.0  0.2190007716417313  0.8050511479377747  0.5573217868804932  1.0000
  Li  Li1       1.0  0.25040075182914734  0.22280587255954742  0.14102652668952942  1.0000
  Li  Li2       1.0  0.7347192764282228  0.9634172916412354  0.7212656736373901  1.0000
  Li  Li3       1.0  0.6906872391700745  0.2604110836982727  0.47119075059890747  1.0000
  Li  Li4       1.0  0.9108983278274537  0.6301537156105042  0.30500033497810364  1.0000
  Mg  Mg1       1.0  0.21310774981975558  0.28245753049850464  0.38595524430274963  1.0000
  Pb  Pb1       1.0  0.21027669310569766  0.8393234014511108  0.5431733131408691  1.0000
  Pb  Pb2       1.0  0.7404900789260865  0.24660886824131012  0.20364801585674286  1.0000
