data_image0
_chemical_formula_structural       CaCl2GeIrLi4NiPb2ReUZn
_chemical_formula_sum              "Ca1 Cl2 Ge1 Ir1 Li4 Ni1 Pb2 Re1 U1 Zn1"
_cell_length_a       7.069477190051278
_cell_length_b       7.399921959018438
_cell_length_c       7.68104887008667
_cell_angle_alpha    110.14195174685482
_cell_angle_beta     108.27218920898588
_cell_angle_gamma    114.00357318007264

_space_group_name_H-M_alt    "P 1"
_space_group_IT_number       1

loop_
  _space_group_symop_operation_xyz
  'x, y, z'

loop_
  _atom_site_type_symbol
  _atom_site_label
  _atom_site_symmetry_multiplicity
  _atom_site_fract_x
  _atom_site_fract_y
  _atom_site_fract_z
  _atom_site_occupancy
  Ca  Ca1       1.0  0.01848582923412323  0.32928159832954407  0.8803552389144896  1.0000
  Cl  Cl1       1.0  0.9795888066291809  0.2649069130420685  0.06897832453250884  1.0000
  Cl  Cl2       1.0  0.476187527179718  0.5233348608016968  0.21837505698204038  1.0000
  Ge  Ge1       1.0  0.5063038468360901  0.5883029103279114  0.7841247916221618  1.0000
  Ir  Ir1       1.0  0.4999186396598816  0.4863581955432892  0.1101536452770233  1.0000
  Li  Li1       1.0  0.656154215335846  0.3658871352672577  0.6422903537750243  1.0000
  Li  Li2       1.0  0.06204741820693016  0.40304210782051086  0.716057777404785  1.0000
  Li  Li3       1.0  0.011919979006052017  0.22148697078227997  0.687832474708557  1.0000
  Li  Li4       1.0  0.5056058168411255  0.5994424819946289  0.42668220400810236  1.0000
  Ni  Ni1       1.0  0.4628990888595581  0.007893184199929237  0.6050109863281249  1.0000
  Pb  Pb1       1.0  0.015496181324124336  0.3589109778404236  0.2855007350444793  1.0000
  Pb  Pb2       1.0  0.5102897882461548  0.18503494560718536  0.3626339435577392  1.0000
  Re  Re1       1.0  0.5603585243225098  0.7466558218002319  0.11462588608264922  1.0000
  U   U1        1.0  0.9822839498519897  0.20520292222499847  0.6226780414581298  1.0000
  Zn  Zn1       1.0  0.5006982088088989  0.697827160358429  0.4152394235134125  1.0000
