data_image0
_chemical_formula_structural       ClInLiNb12
_chemical_formula_sum              "Cl1 In1 Li1 Nb12"
_cell_length_a       5.985391255636293
_cell_length_b       6.03302341204599
_cell_length_c       7.4235334396362305
_cell_angle_alpha    92.03554762432647
_cell_angle_beta     90.62056743230676
_cell_angle_gamma    97.90560956862898

_space_group_name_H-M_alt    "P 1"
_space_group_IT_number       1

loop_
  _space_group_symop_operation_xyz
  'x, y, z'

loop_
  _atom_site_type_symbol
  _atom_site_label
  _atom_site_symmetry_multiplicity
  _atom_site_fract_x
  _atom_site_fract_y
  _atom_site_fract_z
  _atom_site_occupancy
  Cl  Cl1       1.0  0.291881263256073  0.6532964706420898  0.8563036918640137  1.0000
  In  In1       1.0  0.638349711894989  0.12579217553138733  0.5981658697128296  1.0000
  Li  Li1       1.0  0.2878793776035309  0.5308045744895935  0.9121503829956055  1.0000
  Nb  Nb1       1.0  0.28628799319267273  0.7194275856018066  0.3078668713569641  1.0000
  Nb  Nb2       1.0  0.78748619556427  0.25862014293670654  0.7908056378364563  1.0000
  Nb  Nb3       1.0  0.7888744473457336  0.3630065619945526  0.7730265259742737  1.0000
  Nb  Nb4       1.0  0.78956538438797  0.21472524106502533  0.6480808854103088  1.0000
  Nb  Nb5       1.0  0.28701815009117126  0.7923218011856079  0.4074978828430176  1.0000
  Nb  Nb6       1.0  0.2889706492424011  0.4343412220478058  0.8543311953544617  1.0000
  Nb  Nb7       1.0  0.2866867780685425  0.9453614950180054  0.049418769776821136  1.0000
  Nb  Nb8       1.0  0.7893093228340149  0.4149792194366455  0.36108648777008057  1.0000
  Nb  Nb9       1.0  0.2898750305175781  0.5239692330360413  0.8396809697151184  1.0000
  Nb  Nb10      1.0  0.7876027822494507  0.13285082578659058  0.2867260277271271  1.0000
  Nb  Nb11      1.0  0.2892332077026367  0.13599611818790436  0.1267152577638626  1.0000
  Nb  Nb12      1.0  0.7890518307685852  0.34258919954299927  0.6723600625991821  1.0000
