data_image0
_chemical_formula_structural       Cl3CoFGeILi2NbPPbSbTaZn
_chemical_formula_sum              "Cl3 Co1 F1 Ge1 I1 Li2 Nb1 P1 Pb1 Sb1 Ta1 Zn1"
_cell_length_a       6.5372923303955375
_cell_length_b       6.295511874485097
_cell_length_c       6.644059181213379
_cell_angle_alpha    111.07232944661865
_cell_angle_beta     114.2729571745949
_cell_angle_gamma    112.79607271016826

_space_group_name_H-M_alt    "P 1"
_space_group_IT_number       1

loop_
  _space_group_symop_operation_xyz
  'x, y, z'

loop_
  _atom_site_type_symbol
  _atom_site_label
  _atom_site_symmetry_multiplicity
  _atom_site_fract_x
  _atom_site_fract_y
  _atom_site_fract_z
  _atom_site_occupancy
  Cl  Cl1       1.0  0.18305373191833496  0.8929130434989929  0.17808546125888824  1.0000
  Cl  Cl2       1.0  0.37782880663871765  0.398969829082489  0.6027688384056091  1.0000
  Cl  Cl3       1.0  0.1567666083574295  0.31821683049201965  0.3339873254299164  1.0000
  Co  Co1       1.0  0.26095980405807495  0.8923672437667847  0.38294395804405207  1.0000
  F   F1        1.0  0.7845544219017029  0.8305032253265381  0.8630073070526124  1.0000
  Ge  Ge1       1.0  0.2352892309427261  0.9689345359802246  0.9937555789947511  1.0000
  I   I1        1.0  0.8700255751609802  0.8083858489990234  0.33918195962905884  1.0000
  Li  Li1       1.0  0.7997363209724426  0.1443936973810196  0.616010844707489  1.0000
  Li  Li2       1.0  0.8862969875335693  0.5004047155380249  0.45042857527732855  1.0000
  Nb  Nb1       1.0  0.739051878452301  0.1191040575504303  0.5395417213439941  1.0000
  P   P1        1.0  0.8534325361251831  0.4847812354564667  0.6563783288002014  1.0000
  Pb  Pb1       1.0  0.8828399777412415  0.9319954514503479  0.043506234884262085  1.0000
  Sb  Sb1       1.0  0.40959811210632324  0.92653888463974  0.5094547867774963  1.0000
  Ta  Ta1       1.0  0.23713177442550656  0.8274953365325928  0.5500369668006897  1.0000
  Zn  Zn1       1.0  0.3843739330768585  0.3828231692314148  0.8190218210220338  1.0000
