data_image0
_chemical_formula_structural       Cl3Nb12
_chemical_formula_sum              "Cl3 Nb12"
_cell_length_a       6.443821087437737
_cell_length_b       6.312917122166271
_cell_length_c       7.793927192687988
_cell_angle_alpha    98.08440342708207
_cell_angle_beta     100.12094801765843
_cell_angle_gamma    92.89201305747915

_space_group_name_H-M_alt    "P 1"
_space_group_IT_number       1

loop_
  _space_group_symop_operation_xyz
  'x, y, z'

loop_
  _atom_site_type_symbol
  _atom_site_label
  _atom_site_symmetry_multiplicity
  _atom_site_fract_x
  _atom_site_fract_y
  _atom_site_fract_z
  _atom_site_occupancy
  Cl  Cl1       1.0  0.08436459302902222  0.9684039950370789  0.34450602531433105  1.0000
  Cl  Cl2       1.0  0.6129403710365295  0.3156093657016754  0.28693804144859314  1.0000
  Cl  Cl3       1.0  0.08638156205415726  0.46780893206596375  0.421811580657959  1.0000
  Nb  Nb1       1.0  0.06216154992580414  0.6391078233718872  0.2206050455570221  1.0000
  Nb  Nb2       1.0  0.5715906023979187  0.7470104694366455  0.6242190003395081  1.0000
  Nb  Nb3       1.0  0.5639999508857727  0.9618233442306519  0.9089334011077881  1.0000
  Nb  Nb4       1.0  0.5598430633544922  0.800657331943512  0.2750072777271271  1.0000
  Nb  Nb5       1.0  0.5597571134567261  0.9642407298088074  0.8638025522232056  1.0000
  Nb  Nb6       1.0  0.05605785548686981  0.4698042571544647  0.3838253915309906  1.0000
  Nb  Nb7       1.0  0.06122466176748276  0.25483936071395874  0.6756699681282043  1.0000
  Nb  Nb8       1.0  0.07353977859020233  0.9407066702842712  0.7740908265113831  1.0000
  Nb  Nb9       1.0  0.06314552575349808  0.7585725784301758  0.3828684687614441  1.0000
  Nb  Nb10      1.0  0.560600996017456  0.5758266448974609  0.30763915181159973  1.0000
  Nb  Nb11      1.0  0.5595396757125854  0.5433931946754456  0.8514057397842407  1.0000
  Nb  Nb12      1.0  0.756521463394165  0.2073356807231903  0.8403909802436829  1.0000
