data_image0
_chemical_formula_structural       Cl6CoGe2Li2Nb2Pt2
_chemical_formula_sum              "Cl6 Co1 Ge2 Li2 Nb2 Pt2"
_cell_length_a       7.497817768526413
_cell_length_b       7.155173010052754
_cell_length_c       7.306793689727783
_cell_angle_alpha    112.66139756558665
_cell_angle_beta     112.19653660112645
_cell_angle_gamma    113.56386887282989

_space_group_name_H-M_alt    "P 1"
_space_group_IT_number       1

loop_
  _space_group_symop_operation_xyz
  'x, y, z'

loop_
  _atom_site_type_symbol
  _atom_site_label
  _atom_site_symmetry_multiplicity
  _atom_site_fract_x
  _atom_site_fract_y
  _atom_site_fract_z
  _atom_site_occupancy
  Cl  Cl1       1.0  0.2460283488035202  0.07935608178377151  0.845126211643219  1.0000
  Cl  Cl2       1.0  0.7297290563583374  0.06325002014636993  0.9853838086128234  1.0000
  Cl  Cl3       1.0  0.3517090082168579  0.1487143188714981  0.3601495921611786  1.0000
  Cl  Cl4       1.0  0.028891099616885185  0.13133123517036438  0.2890874743461609  1.0000
  Cl  Cl5       1.0  0.6834633946418762  0.8681455850601196  0.45083072781562816  1.0000
  Cl  Cl6       1.0  0.17861002683639526  0.9150357842445374  0.7877097129821777  1.0000
  Co  Co1       1.0  0.5738866329193115  0.14746002852916718  0.9325885772705078  1.0000
  Ge  Ge1       1.0  0.749769389629364  0.5547040104866028  0.6322349905967712  1.0000
  Ge  Ge2       1.0  0.046181224286556244  0.793997049331665  0.8318769931793214  1.0000
  Li  Li1       1.0  0.5551165342330933  0.6519092321395874  0.3345512449741364  1.0000
  Li  Li2       1.0  0.05894482508301735  0.8398193717002869  0.9016723036766053  1.0000
  Nb  Nb1       1.0  0.3657700717449188  0.14062920212745667  0.2712668776512146  1.0000
  Nb  Nb2       1.0  0.04873684048652649  0.6262433528900146  0.1466000527143479  1.0000
  Pt  Pt1       1.0  0.849218487739563  0.883770763874054  0.550537943840027  1.0000
  Pt  Pt2       1.0  0.19470259547233582  0.7608548402786255  0.986103057861328  1.0000
