data_image0
_chemical_formula_structural       Br4Cd3Cr2
_chemical_formula_sum              "Br4 Cd3 Cr2"
_cell_length_a       3.9950225794556204
_cell_length_b       7.10362371780573
_cell_length_c       9.031965255737305
_cell_angle_alpha    90.06855848520726
_cell_angle_beta     90.00851632982732
_cell_angle_gamma    106.04059045204367

_space_group_name_H-M_alt    "P 1"
_space_group_IT_number       1

loop_
  _space_group_symop_operation_xyz
  'x, y, z'

loop_
  _atom_site_type_symbol
  _atom_site_label
  _atom_site_symmetry_multiplicity
  _atom_site_fract_x
  _atom_site_fract_y
  _atom_site_fract_z
  _atom_site_occupancy
  Br  Br1       1.0  0.6269906163215637  0.9253016114234924  0.3220836818218231  1.0000
  Br  Br2       1.0  0.8794352412223816  0.4214532971382141  0.09951984882354735  1.0000
  Br  Br3       1.0  0.37923479080200195  0.42541608214378357  0.560467004776001  1.0000
  Br  Br4       1.0  0.6110256910324097  0.8684087991714478  0.8337504863739014  1.0000
  Cd  Cd1       1.0  0.7252448797225952  0.11756790429353714  0.5838455557823182  1.0000
  Cd  Cd2       1.0  0.9632056951522827  0.5856297016143799  0.7904164195060731  1.0000
  Cd  Cd3       1.0  0.9719330072402954  0.6188579201698303  0.37033444643020635  1.0000
  Cr  Cr1       1.0  0.2811262905597687  0.22285448014736176  0.2913056015968323  1.0000
  Cr  Cr2       1.0  0.6918928623199463  0.05818178132176399  0.07545848190784454  1.0000
