data_image0
_chemical_formula_structural       Br3Cd3Cr2Ge
_chemical_formula_sum              "Br3 Cd3 Cr2 Ge1"
_cell_length_a       6.310975410384503
_cell_length_b       6.294315743916814
_cell_length_c       6.283419609069824
_cell_angle_alpha    98.87339418759309
_cell_angle_beta     98.92856955717384
_cell_angle_gamma    98.84106442260055

_space_group_name_H-M_alt    "P 1"
_space_group_IT_number       1

loop_
  _space_group_symop_operation_xyz
  'x, y, z'

loop_
  _atom_site_type_symbol
  _atom_site_label
  _atom_site_symmetry_multiplicity
  _atom_site_fract_x
  _atom_site_fract_y
  _atom_site_fract_z
  _atom_site_occupancy
  Br  Br1       1.0  0.1461137980222702  0.09802398085594177  0.1914646327495575  1.0000
  Br  Br2       1.0  0.5638858675956726  0.9896996021270752  0.7513508796691895  1.0000
  Br  Br3       1.0  0.6508699059486389  0.601860523223877  0.19284319877624512  1.0000
  Cd  Cd1       1.0  0.7445636987686157  0.1903778463602066  0.38470631837844854  1.0000
  Cd  Cd2       1.0  0.0874209776520729  0.8276731967926025  0.5563338398933411  1.0000
  Cd  Cd3       1.0  0.47960400581359863  0.4879440665245056  0.6630405783653259  1.0000
  Cr  Cr1       1.0  0.857157289981842  0.3267940282821655  0.9469811916351318  1.0000
  Cr  Cr2       1.0  0.26127493381500244  0.704249382019043  0.04023265838623049  1.0000
  Ge  Ge1       1.0  0.06848762929439545  0.47032347321510315  0.7106936573982239  1.0000
