data_image0
_chemical_formula_structural       GaIn2LiSbTiZnZr
_chemical_formula_sum              "Ga1 In2 Li1 Sb1 Ti1 Zn1 Zr1"
_cell_length_a       5.394876475373983
_cell_length_b       5.133843081819746
_cell_length_c       6.999048233032227
_cell_angle_alpha    89.83002643634862
_cell_angle_beta     89.69150989295294
_cell_angle_gamma    112.26683224787817

_space_group_name_H-M_alt    "P 1"
_space_group_IT_number       1

loop_
  _space_group_symop_operation_xyz
  'x, y, z'

loop_
  _atom_site_type_symbol
  _atom_site_label
  _atom_site_symmetry_multiplicity
  _atom_site_fract_x
  _atom_site_fract_y
  _atom_site_fract_z
  _atom_site_occupancy
  Ga  Ga1       1.0  0.8099333047866821  0.3479747176170349  0.9310128092765808  1.0000
  In  In1       1.0  0.8148665428161621  0.3455367386341095  0.112100750207901  1.0000
  In  In2       1.0  0.31949201226234436  0.9228453636169434  0.5984154343605042  1.0000
  Li  Li1       1.0  0.8091806769371033  0.08484281599521637  0.3788601756095886  1.0000
  Sb  Sb1       1.0  0.8100590705871582  0.8875674605369568  0.3690343201160431  1.0000
  Ti  Ti1       1.0  0.30609190464019775  0.6686497330665588  0.5055727958679199  1.0000
  Zn  Zn1       1.0  0.30835872888565063  0.3199455440044403  0.20159295201301575  1.0000
  Zr  Zr1       1.0  0.8098633885383606  0.8127393126487732  0.47987741231918335  1.0000
