data_image0
_chemical_formula_structural       AsFGaITi3Zn
_chemical_formula_sum              "As1 F1 Ga1 I1 Ti3 Zn1"
_cell_length_a       4.889463948590928
_cell_length_b       4.763061212146927
_cell_length_c       4.922354698181152
_cell_angle_alpha    91.09566601921918
_cell_angle_beta     87.37336091627677
_cell_angle_gamma    97.33405578358902

_space_group_name_H-M_alt    "P 1"
_space_group_IT_number       1

loop_
  _space_group_symop_operation_xyz
  'x, y, z'

loop_
  _atom_site_type_symbol
  _atom_site_label
  _atom_site_symmetry_multiplicity
  _atom_site_fract_x
  _atom_site_fract_y
  _atom_site_fract_z
  _atom_site_occupancy
  As  As1       1.0  0.16194935142993927  0.6086394190788269  0.5259207487106323  1.0000
  F   F1        1.0  0.6408663988113403  0.5260147452354431  0.409988671541214  1.0000
  Ga  Ga1       1.0  0.14824779331684113  0.6466214656829834  0.20170791447162628  1.0000
  I   I1        1.0  0.5856891870498657  0.840512752532959  0.756199061870575  1.0000
  Ti  Ti1       1.0  0.07976679503917694  0.671150267124176  0.3426784574985504  1.0000
  Ti  Ti2       1.0  0.6199252605438232  0.15382927656173706  0.7174654603004456  1.0000
  Ti  Ti3       1.0  0.5658418536186218  0.7167006134986877  0.0659361407160759  1.0000
  Zn  Zn1       1.0  0.6073484420776367  0.3390667736530304  0.3006969690322876  1.0000
