data_image0
_chemical_formula_structural       GeHIn3LiTiV
_chemical_formula_sum              "Ge1 H1 In3 Li1 Ti1 V1"
_cell_length_a       4.961552442127749
_cell_length_b       5.078428951907888
_cell_length_c       5.948585510253906
_cell_angle_alpha    93.48003226319804
_cell_angle_beta     98.41784303127862
_cell_angle_gamma    126.012463827131

_space_group_name_H-M_alt    "P 1"
_space_group_IT_number       1

loop_
  _space_group_symop_operation_xyz
  'x, y, z'

loop_
  _atom_site_type_symbol
  _atom_site_label
  _atom_site_symmetry_multiplicity
  _atom_site_fract_x
  _atom_site_fract_y
  _atom_site_fract_z
  _atom_site_occupancy
  Ge  Ge1       1.0  0.9609877467155457  0.19623595476150513  0.9190040826797485  1.0000
  H   H1        1.0  0.9774866700172424  0.018677998334169388  0.5554785132408142  1.0000
  In  In1       1.0  0.4522303640842438  0.9507731199264526  0.9997630715370178  1.0000
  In  In2       1.0  0.9716566205024719  0.6622318029403687  0.7892435193061829  1.0000
  In  In3       1.0  0.6027815937995911  0.2104378342628479  0.662819504737854  1.0000
  Li  Li1       1.0  0.2323814481496811  0.6029359102249146  0.5810711979866028  1.0000
  Ti  Ti1       1.0  0.25255149602890015  0.9795323610305786  0.23810914158821106  1.0000
  V   V1        1.0  0.4847961664199829  0.440675288438797  0.2697487771511078  1.0000
