data_image0
_chemical_formula_structural       GeIn3KTi3
_chemical_formula_sum              "Ge1 In3 K1 Ti3"
_cell_length_a       5.794441331045332
_cell_length_b       5.384773097728301
_cell_length_c       6.913167953491211
_cell_angle_alpha    94.77423526845261
_cell_angle_beta     92.59987228963448
_cell_angle_gamma    115.59366598084591

_space_group_name_H-M_alt    "P 1"
_space_group_IT_number       1

loop_
  _space_group_symop_operation_xyz
  'x, y, z'

loop_
  _atom_site_type_symbol
  _atom_site_label
  _atom_site_symmetry_multiplicity
  _atom_site_fract_x
  _atom_site_fract_y
  _atom_site_fract_z
  _atom_site_occupancy
  Ge  Ge1       1.0  0.4351174533367156  0.9080155491828917  0.6357566118240356  1.0000
  In  In1       1.0  0.02692965418100357  0.15063872933387756  0.5907776355743408  1.0000
  In  In2       1.0  0.9814051389694214  0.4897072315216064  0.5621891021728516  1.0000
  In  In3       1.0  0.8551551699638367  0.8400416374206542  0.3017571270465851  1.0000
  K   K1        1.0  0.5482109785079956  0.5906180739402771  0.3669204115867615  1.0000
  Ti  Ti1       1.0  0.5331446528434753  0.4380770325660705  0.1480489820241928  1.0000
  Ti  Ti2       1.0  0.04244052618741989  0.5889145731925964  0.6226269602775574  1.0000
  Ti  Ti3       1.0  0.9486533999443054  0.37510475516319275  0.8113872408866882  1.0000
