data_image0
_chemical_formula_structural       Al2HHo5Ni3
_chemical_formula_sum              "Al2 H1 Ho5 Ni3"
_cell_length_a       5.619064565144051
_cell_length_b       5.984521130110799
_cell_length_c       6.651672840118408
_cell_angle_alpha    64.64647117084822
_cell_angle_beta     63.81517092682161
_cell_angle_gamma    63.80417513082962

_space_group_name_H-M_alt    "P 1"
_space_group_IT_number       1

loop_
  _space_group_symop_operation_xyz
  'x, y, z'

loop_
  _atom_site_type_symbol
  _atom_site_label
  _atom_site_symmetry_multiplicity
  _atom_site_fract_x
  _atom_site_fract_y
  _atom_site_fract_z
  _atom_site_occupancy
  Al  Al1       1.0  0.6634602546691895  0.818951964378357  0.04660119488835342  1.0000
  Al  Al2       1.0  0.9832454323768616  0.4609093368053437  0.0459497906267643  1.0000
  H   H1        1.0  0.46631157398223877  0.3716176748275757  0.2266441285610199  1.0000
  Ho  Ho1       1.0  0.6879867911338806  0.06037693470716477  0.23510399460792547  1.0000
  Ho  Ho2       1.0  0.3093298673629761  0.025799171999096874  0.724128782749176  1.0000
  Ho  Ho3       1.0  0.6381259560585022  0.5246574282646179  0.7459544539451599  1.0000
  Ho  Ho4       1.0  0.05529975891113281  0.5469385385513306  0.5536142587661743  1.0000
  Ho  Ho5       1.0  0.29772698879241943  0.5318512916564941  0.0023889541625976562  1.0000
  Ni  Ni1       1.0  0.6813663244247437  0.07080532610416412  0.5068265795707703  1.0000
  Ni  Ni2       1.0  0.8681691884994507  0.5331350564956665  0.70644611120224  1.0000
  Ni  Ni3       1.0  0.354902058839798  0.6314936876296997  0.20896010100841522  1.0000
