data_image0
_chemical_formula_structural       Al4HHo3Ni3
_chemical_formula_sum              "Al4 H1 Ho3 Ni3"
_cell_length_a       5.746683025589565
_cell_length_b       6.361929672550182
_cell_length_c       6.5278639793396
_cell_angle_alpha    109.16024072348551
_cell_angle_beta     106.77772346805102
_cell_angle_gamma    108.68398594909027

_space_group_name_H-M_alt    "P 1"
_space_group_IT_number       1

loop_
  _space_group_symop_operation_xyz
  'x, y, z'

loop_
  _atom_site_type_symbol
  _atom_site_label
  _atom_site_symmetry_multiplicity
  _atom_site_fract_x
  _atom_site_fract_y
  _atom_site_fract_z
  _atom_site_occupancy
  Al  Al1       1.0  0.5249320268630981  0.5754062533378601  0.8038100004196168  1.0000
  Al  Al2       1.0  0.2256999462842941  0.5686058402061462  0.2897950410842896  1.0000
  Al  Al3       1.0  0.2719211280345917  0.731784462928772  0.7988958954811097  1.0000
  Al  Al4       1.0  0.8255390524864196  0.5518451929092407  0.8191285133361818  1.0000
  H   H1        1.0  0.7210281491279602  0.0002867795992642641  0.2601877748966217  1.0000
  Ho  Ho1       1.0  0.016880668699741364  0.024686850607395172  0.06632184237241745  1.0000
  Ho  Ho2       1.0  0.5243057608604431  0.24767634272575378  0.6033046245574951  1.0000
  Ho  Ho3       1.0  0.02634131535887718  0.24572201073169708  0.32046005129814154  1.0000
  Ni  Ni1       1.0  0.025038337334990498  0.7423797249794006  0.8075558543205262  1.0000
  Ni  Ni2       1.0  0.5268173813819885  0.21678578853607178  0.0742853507399559  1.0000
  Ni  Ni3       1.0  0.034864701330661774  0.22052225470542908  0.5657783150672913  1.0000
