data_image0
_chemical_formula_structural       Al5Ho3Ni2S
_chemical_formula_sum              "Al5 Ho3 Ni2 S1"
_cell_length_a       5.384931019309264
_cell_length_b       6.231418153500246
_cell_length_c       6.945589542388916
_cell_angle_alpha    109.84247358910513
_cell_angle_beta     105.85134638205994
_cell_angle_gamma    101.64468149654991

_space_group_name_H-M_alt    "P 1"
_space_group_IT_number       1

loop_
  _space_group_symop_operation_xyz
  'x, y, z'

loop_
  _atom_site_type_symbol
  _atom_site_label
  _atom_site_symmetry_multiplicity
  _atom_site_fract_x
  _atom_site_fract_y
  _atom_site_fract_z
  _atom_site_occupancy
  Al  Al1       1.0  0.9222946166992188  0.4600849747657776  0.9976401925086976  1.0000
  Al  Al2       1.0  0.24335013329982758  0.48604461550712585  0.3926998376846314  1.0000
  Al  Al3       1.0  0.2399625927209854  0.5955880284309387  0.4076614975929261  1.0000
  Al  Al4       1.0  0.9431357383728027  0.7471904754638672  0.00418905680999163  1.0000
  Al  Al5       1.0  0.2535596787929535  0.07401028275489807  0.9354001283645631  1.0000
  Ho  Ho1       1.0  0.4491812586784363  0.7217636108398438  0.8914648890495301  1.0000
  Ho  Ho2       1.0  0.2320694625377655  0.14502674341201782  0.39355149865150457  1.0000
  Ho  Ho3       1.0  0.5870330333709717  0.6398189663887024  0.683452606201172  1.0000
  Ni  Ni1       1.0  0.5579180121421814  0.9051975011825562  0.3656443059444427  1.0000
  Ni  Ni2       1.0  0.9810571670532227  0.21422043442726135  0.5090312957763672  1.0000
  S   S1        1.0  0.6833622455596924  0.22237904369831085  0.3133392333984375  1.0000
