data_image0
_chemical_formula_structural       Al5HHo3Ni2
_chemical_formula_sum              "Al5 H1 Ho3 Ni2"
_cell_length_a       5.673863739074451
_cell_length_b       6.063809734396776
_cell_length_c       6.084616184234619
_cell_angle_alpha    109.37505451187629
_cell_angle_beta     102.07915727311786
_cell_angle_gamma    111.94499158900015

_space_group_name_H-M_alt    "P 1"
_space_group_IT_number       1

loop_
  _space_group_symop_operation_xyz
  'x, y, z'

loop_
  _atom_site_type_symbol
  _atom_site_label
  _atom_site_symmetry_multiplicity
  _atom_site_fract_x
  _atom_site_fract_y
  _atom_site_fract_z
  _atom_site_occupancy
  Al  Al1       1.0  0.912956953048706  0.14180400967597961  0.9685586094856262  1.0000
  Al  Al2       1.0  0.26784661412239075  0.4750160276889801  0.004507404286414385  1.0000
  Al  Al3       1.0  0.9419774413108826  0.4866715669631958  0.18726985156536102  1.0000
  Al  Al4       1.0  0.5458504557609558  0.12305812537670135  0.011992509476840496  1.0000
  Al  Al5       1.0  0.5907581448554993  0.8740070462226868  0.5240906476974487  1.0000
  H   H1        1.0  0.869141161441803  0.6007856130599976  0.6422393918037415  1.0000
  Ho  Ho1       1.0  0.27476629614830017  0.39102667570114136  0.9371733069419861  1.0000
  Ho  Ho2       1.0  0.6079272627830505  0.39759716391563416  0.4663170278072357  1.0000
  Ho  Ho3       1.0  0.9247616529464722  0.15800631046295166  0.20852299034595495  1.0000
  Ni  Ni1       1.0  0.35604164004325867  0.9537724852561951  0.3427301347255707  1.0000
  Ni  Ni2       1.0  0.6248533725738525  0.5837064981460571  0.47630783915519714  1.0000
