data_image0
_chemical_formula_structural       Al4H2Ho4La
_chemical_formula_sum              "Al4 H2 Ho4 La1"
_cell_length_a       5.267042460048752
_cell_length_b       7.039011758176922
_cell_length_c       7.771454334259033
_cell_angle_alpha    120.5985454683905
_cell_angle_beta     92.68248150313242
_cell_angle_gamma    89.86321199075131

_space_group_name_H-M_alt    "P 1"
_space_group_IT_number       1

loop_
  _space_group_symop_operation_xyz
  'x, y, z'

loop_
  _atom_site_type_symbol
  _atom_site_label
  _atom_site_symmetry_multiplicity
  _atom_site_fract_x
  _atom_site_fract_y
  _atom_site_fract_z
  _atom_site_occupancy
  Al  Al1       1.0  0.02328248880803585  0.25751543045043945  0.26152104139328003  1.0000
  Al  Al2       1.0  0.04618000239133835  0.5943647623062134  0.05866590514779091  1.0000
  Al  Al3       1.0  0.5250774621963501  0.9244002103805542  0.44430306553840637  1.0000
  Al  Al4       1.0  0.5138638019561768  0.9430161118507385  0.7999905347824097  1.0000
  H   H1        1.0  0.018877089023590088  0.3024989366531372  0.5614871978759766  1.0000
  H   H2        1.0  0.02181568369269371  0.5000744462013245  0.36110663414001465  1.0000
  Ho  Ho1       1.0  0.5227494239807129  0.44107088446617126  0.4116671681404114  1.0000
  Ho  Ho2       1.0  0.5236088633537292  0.6000770926475525  0.4208095669746399  1.0000
  Ho  Ho3       1.0  0.023176372051239014  0.09966734796762466  0.0354888029396534  1.0000
  Ho  Ho4       1.0  0.5112211108207703  0.1014479547739029  0.08698713034391403  1.0000
  La  La1       1.0  0.5240036845207214  0.10066969692707062  0.17314903438091278  1.0000
