data_image0
_chemical_formula_structural       Al4HHo6
_chemical_formula_sum              "Al4 H1 Ho6"
_cell_length_a       4.9778398651526015
_cell_length_b       6.19162602176136
_cell_length_c       8.067437171936035
_cell_angle_alpha    84.12767268714619
_cell_angle_beta     70.95957153387529
_cell_angle_gamma    63.309538586837974

_space_group_name_H-M_alt    "P 1"
_space_group_IT_number       1

loop_
  _space_group_symop_operation_xyz
  'x, y, z'

loop_
  _atom_site_type_symbol
  _atom_site_label
  _atom_site_symmetry_multiplicity
  _atom_site_fract_x
  _atom_site_fract_y
  _atom_site_fract_z
  _atom_site_occupancy
  Al  Al1       1.0  0.33875954151153564  0.2970139980316162  0.2854628562927246  1.0000
  Al  Al2       1.0  0.6557651162147522  0.28832316398620605  0.2795134484767914  1.0000
  Al  Al3       1.0  0.44646021723747253  0.630983293056488  0.7519912719726562  1.0000
  Al  Al4       1.0  0.2453901171684265  0.18002107739448547  0.9326233267784119  1.0000
  H   H1        1.0  0.34112557768821716  0.8013430833816528  0.3537466526031494  1.0000
  Ho  Ho1       1.0  0.8391634821891785  0.055906686931848526  0.5054439306259155  1.0000
  Ho  Ho2       1.0  0.8901073336601257  0.9725828170776367  0.2860288918018341  1.0000
  Ho  Ho3       1.0  0.23449601233005524  0.19232729077339172  0.15680737793445587  1.0000
  Ho  Ho4       1.0  0.3196784555912018  0.9828495979309082  0.40032562613487244  1.0000
  Ho  Ho5       1.0  0.747491180896759  0.2792832851409912  0.4149557650089264  1.0000
  Ho  Ho6       1.0  0.23944710195064545  0.6412287354469299  0.2751208543777466  1.0000
