data_image0
_chemical_formula_structural       I2P2ZnZr5
_chemical_formula_sum              "I2 P2 Zn1 Zr5"
_cell_length_a       5.228358212127856
_cell_length_b       7.255385359018133
_cell_length_c       7.45348596572876
_cell_angle_alpha    125.26259445625968
_cell_angle_beta     90.48131582791693
_cell_angle_gamma    88.74856252481254

_space_group_name_H-M_alt    "P 1"
_space_group_IT_number       1

loop_
  _space_group_symop_operation_xyz
  'x, y, z'

loop_
  _atom_site_type_symbol
  _atom_site_label
  _atom_site_symmetry_multiplicity
  _atom_site_fract_x
  _atom_site_fract_y
  _atom_site_fract_z
  _atom_site_occupancy
  I   I1        1.0  0.17192628979682922  0.9985662698745728  0.7393949627876282  1.0000
  I   I2        1.0  0.6718441247940063  0.8311142921447754  0.3649133741855621  1.0000
  P   P1        1.0  0.6712786555290222  0.010255836881697178  0.3409102261066437  1.0000
  P   P2        1.0  0.17654231190681458  0.02719777822494507  0.10038427263498306  1.0000
  Zn  Zn1       1.0  0.6725649237632751  0.9673122763633728  0.9327318668365479  1.0000
  Zr  Zr1       1.0  0.17579571902751923  0.4897739291191101  0.16392101347446442  1.0000
  Zr  Zr2       1.0  0.6746708154678345  0.5044438242912292  0.41974630951881403  1.0000
  Zr  Zr3       1.0  0.17523257434368134  0.9573885798454285  0.3264573514461516  1.0000
  Zr  Zr4       1.0  0.17498944699764252  0.8702806830406189  0.47223430871963495  1.0000
  Zr  Zr5       1.0  0.6746467351913452  0.20982959866523743  0.27966395020484924  1.0000
