data_image0
_chemical_formula_structural       AsGaP2Zr6
_chemical_formula_sum              "As1 Ga1 P2 Zr6"
_cell_length_a       5.920549634374166
_cell_length_b       5.757319107352782
_cell_length_c       5.946111679077148
_cell_angle_alpha    84.87837998599768
_cell_angle_beta     71.58408458360398
_cell_angle_gamma    69.20847404295804

_space_group_name_H-M_alt    "P 1"
_space_group_IT_number       1

loop_
  _space_group_symop_operation_xyz
  'x, y, z'

loop_
  _atom_site_type_symbol
  _atom_site_label
  _atom_site_symmetry_multiplicity
  _atom_site_fract_x
  _atom_site_fract_y
  _atom_site_fract_z
  _atom_site_occupancy
  As  As1       1.0  0.8738407492637635  0.43349760770797724  0.29179397225379944  1.0000
  Ga  Ga1       1.0  0.056786216795444495  0.7033290266990662  0.010254829190671444  1.0000
  P   P1        1.0  0.3064091205596924  0.18864412605762482  0.4506072103977203  1.0000
  P   P2        1.0  0.04278511554002762  0.822939932346344  0.04865935444831848  1.0000
  Zr  Zr1       1.0  0.6380722522735596  0.7878150343894958  0.4559159874916076  1.0000
  Zr  Zr2       1.0  0.6232262849807739  0.44587826728820795  0.7995042204856873  1.0000
  Zr  Zr3       1.0  0.27477511763572693  0.37494271993637085  0.020959291607141495  1.0000
  Zr  Zr4       1.0  0.13016590476036072  0.631653368473053  0.4747899174690246  1.0000
  Zr  Zr5       1.0  0.3632567524909973  0.6270164251327515  0.5245199203491211  1.0000
  Zr  Zr6       1.0  0.32785964012145996  0.2365194261074066  0.5676758885383606  1.0000
