data_image0
_chemical_formula_structural       AsAuB3GaPPuRuSm
_chemical_formula_sum              "As1 Au1 B3 Ga1 P1 Pu1 Ru1 Sm1"
_cell_length_a       5.231124710625747
_cell_length_b       5.030016699421021
_cell_length_c       5.546300888061523
_cell_angle_alpha    103.68541138337237
_cell_angle_beta     98.75449715441766
_cell_angle_gamma    109.23565191974033

_space_group_name_H-M_alt    "P 1"
_space_group_IT_number       1

loop_
  _space_group_symop_operation_xyz
  'x, y, z'

loop_
  _atom_site_type_symbol
  _atom_site_label
  _atom_site_symmetry_multiplicity
  _atom_site_fract_x
  _atom_site_fract_y
  _atom_site_fract_z
  _atom_site_occupancy
  As  As1       1.0  0.06218279898166657  0.06575777381658554  0.15248288214206696  1.0000
  Au  Au1       1.0  0.06709949672222137  0.9019685387611389  0.9570016860961914  1.0000
  B   B1        1.0  0.5730385780334473  0.19723600149154663  0.14300629496574402  1.0000
  B   B2        1.0  0.08671039342880249  0.8181600570678711  0.10768970847129822  1.0000
  B   B3        1.0  0.08643598854541779  0.828987181186676  0.32218974828720087  1.0000
  Ga  Ga1       1.0  0.06329477578401566  0.5689619779586792  0.13592201471328733  1.0000
  P   P1        1.0  0.5548227429389954  0.09105131030082703  0.8216813206672668  1.0000
  Pu  Pu1       1.0  0.5610103011131287  0.32027894258499146  0.4902692139148712  1.0000
  Ru  Ru1       1.0  0.07734591513872147  0.527626633644104  0.2919664978981018  1.0000
  Sm  Sm1       1.0  0.049422670155763626  0.7751378417015076  0.525379478931427  1.0000
