data_image0
_chemical_formula_structural       As3PuVZn2Zr3
_chemical_formula_sum              "As3 Pu1 V1 Zn2 Zr3"
_cell_length_a       4.8970228716454525
_cell_length_b       3.37013334377731
_cell_length_c       7.388741970062256
_cell_angle_alpha    133.21256027859854
_cell_angle_beta     97.11347592279826
_cell_angle_gamma    120.70400569598598

_space_group_name_H-M_alt    "P 1"
_space_group_IT_number       1

loop_
  _space_group_symop_operation_xyz
  'x, y, z'

loop_
  _atom_site_type_symbol
  _atom_site_label
  _atom_site_symmetry_multiplicity
  _atom_site_fract_x
  _atom_site_fract_y
  _atom_site_fract_z
  _atom_site_occupancy
  As  As1       1.0  0.6882092356681824  0.11968358606100085  0.3243405222892761  1.0000
  As  As2       1.0  0.45447325706481934  0.5036762952804565  0.8007306456565857  1.0000
  As  As3       1.0  0.12457409501075756  0.3975427150726321  0.696837604045868  1.0000
  Pu  Pu1       1.0  0.05013420805335045  0.3801988959312439  0.046328555792570114  1.0000
  V   V1        1.0  0.7474603652954102  0.336269110441208  0.4956920146942139  1.0000
  Zn  Zn1       1.0  0.10977198183536543  0.008544885553419944  0.5818977355957032  1.0000
  Zn  Zn2       1.0  0.6097975373268127  0.11622767150402072  0.19824673235416412  1.0000
  Zr  Zr1       1.0  0.45462727546691906  0.6980710625648501  0.45326161384582525  1.0000
  Zr  Zr2       1.0  0.5461265444755554  0.3741663992404938  0.3309805989265442  1.0000
  Zr  Zr3       1.0  0.11048906296491627  0.9541161060333253  0.0844804421067238  1.0000
