data_image0
_chemical_formula_structural       AsB6Ga2Pu
_chemical_formula_sum              "As1 B6 Ga2 Pu1"
_cell_length_a       5.048766310234745
_cell_length_b       5.40278939878141
_cell_length_c       5.8179473876953125
_cell_angle_alpha    105.28604030090794
_cell_angle_beta     107.06408510008967
_cell_angle_gamma    114.80735067461859

_space_group_name_H-M_alt    "P 1"
_space_group_IT_number       1

loop_
  _space_group_symop_operation_xyz
  'x, y, z'

loop_
  _atom_site_type_symbol
  _atom_site_label
  _atom_site_symmetry_multiplicity
  _atom_site_fract_x
  _atom_site_fract_y
  _atom_site_fract_z
  _atom_site_occupancy
  As  As1       1.0  0.6967704892158508  0.36218374967575073  0.5361649990081787  1.0000
  B   B1        1.0  0.04957893118262291  0.5301238894462585  0.429124116897583  1.0000
  B   B2        1.0  0.7047542333602905  0.13240095973014832  0.3604336380958557  1.0000
  B   B3        1.0  0.5429476499557495  0.7168645262718201  0.9682354927062988  1.0000
  B   B4        1.0  0.19826827943325046  0.48571977019310003  0.6118099093437195  1.0000
  B   B5        1.0  0.7219741940498352  0.19916535913944244  0.0668022409081459  1.0000
  B   B6        1.0  0.7127639651298523  0.07514926046133041  0.9879167079925537  1.0000
  Ga  Ga1       1.0  0.049552418291568756  0.3523491322994232  0.9359865188598633  1.0000
  Ga  Ga2       1.0  0.1940474510192871  0.8184625506401062  0.7431358098983765  1.0000
  Pu  Pu1       1.0  0.2128114104270935  0.7714231610298157  0.7205328345298767  1.0000
