data_image0
_chemical_formula_structural       Li6O5STe
_chemical_formula_sum              "Li6 O5 S1 Te1"
_cell_length_a       4.292366879174063
_cell_length_b       6.469835783050445
_cell_length_c       7.6652655601501465
_cell_angle_alpha    88.7441828274438
_cell_angle_beta     95.94760453831714
_cell_angle_gamma    89.70814330582819

_space_group_name_H-M_alt    "P 1"
_space_group_IT_number       1

loop_
  _space_group_symop_operation_xyz
  'x, y, z'

loop_
  _atom_site_type_symbol
  _atom_site_label
  _atom_site_symmetry_multiplicity
  _atom_site_fract_x
  _atom_site_fract_y
  _atom_site_fract_z
  _atom_site_occupancy
  Li  Li1       1.0  0.15361589193344116  0.6559497117996216  0.772432804107666  1.0000
  Li  Li2       1.0  0.6341351866722107  0.5893822908401489  0.5040376782417297  1.0000
  Li  Li3       1.0  0.8558332324028015  0.1609336882829666  0.8600846529006958  1.0000
  Li  Li4       1.0  0.12841510772705078  0.6408932209014893  0.29389944672584534  1.0000
  Li  Li5       1.0  0.13414612412452698  0.9310507774353027  0.7251898050308228  1.0000
  Li  Li6       1.0  0.13676899671554565  0.33630645275115967  0.5176214575767517  1.0000
  O   O1        1.0  0.6214441061019897  0.8487119078636169  0.01776293851435184  1.0000
  O   O2        1.0  0.2055526077747345  0.11579011380672455  0.09116432815790176  1.0000
  O   O3        1.0  0.1870516836643219  0.3825540244579315  0.8264257907867432  1.0000
  O   O4        1.0  0.9681452512741089  0.1268559843301773  0.7368564009666443  1.0000
  O   O5        1.0  0.3080112338066101  0.38690271973609924  0.5243393182754517  1.0000
  S   S1        1.0  0.6392822265625  0.581404983997345  0.013528881594538694  1.0000
  Te  Te1       1.0  0.6201939582824707  0.9198762774467468  0.24946899712085727  1.0000
