data_image0
_chemical_formula_structural       Li5O7Pr
_chemical_formula_sum              "Li5 O7 Pr1"
_cell_length_a       5.1751162066989504
_cell_length_b       6.084115861263243
_cell_length_c       6.810998916625977
_cell_angle_alpha    91.3963854681136
_cell_angle_beta     90.3883535711231
_cell_angle_gamma    100.51296871066178

_space_group_name_H-M_alt    "P 1"
_space_group_IT_number       1

loop_
  _space_group_symop_operation_xyz
  'x, y, z'

loop_
  _atom_site_type_symbol
  _atom_site_label
  _atom_site_symmetry_multiplicity
  _atom_site_fract_x
  _atom_site_fract_y
  _atom_site_fract_z
  _atom_site_occupancy
  Li  Li1       1.0  0.3899896442890167  0.4271458685398102  0.7281352877616882  1.0000
  Li  Li2       1.0  0.36558306217193604  0.09431605041027069  0.20689533650875092  1.0000
  Li  Li3       1.0  0.9762301445007324  0.2064051479101181  0.9136476516723633  1.0000
  Li  Li4       1.0  0.8599597215652466  0.5253835320472717  0.46467047929763794  1.0000
  Li  Li5       1.0  0.8793046474456787  0.3989056348800659  0.23856711387634277  1.0000
  O   O1        1.0  0.9281836748123169  0.7502663731575012  0.7478139996528625  1.0000
  O   O2        1.0  0.927094042301178  0.47744712233543396  0.83249831199646  1.0000
  O   O3        1.0  0.6025725603103638  0.6996694803237915  0.5686687231063843  1.0000
  O   O4        1.0  0.5348159670829773  0.29738301038742065  0.3701539635658264  1.0000
  O   O5        1.0  0.9354637861251831  0.45514988899230957  0.09617195278406143  1.0000
  O   O6        1.0  0.04157339408993721  0.18323764204978943  0.5955356955528259  1.0000
  O   O7        1.0  0.12359482795000076  0.9491706490516663  0.09772531688213348  1.0000
  Pr  Pr1       1.0  0.8694942593574524  0.8843289017677307  0.957039475440979  1.0000
