data_image0
_chemical_formula_structural       Li3O7Te2Y
_chemical_formula_sum              "Li3 O7 Te2 Y1"
_cell_length_a       5.323074261078576
_cell_length_b       6.110283710187855
_cell_length_c       7.82220983505249
_cell_angle_alpha    88.55935567374343
_cell_angle_beta     90.20979134388159
_cell_angle_gamma    116.45900421870375

_space_group_name_H-M_alt    "P 1"
_space_group_IT_number       1

loop_
  _space_group_symop_operation_xyz
  'x, y, z'

loop_
  _atom_site_type_symbol
  _atom_site_label
  _atom_site_symmetry_multiplicity
  _atom_site_fract_x
  _atom_site_fract_y
  _atom_site_fract_z
  _atom_site_occupancy
  Li  Li1       1.0  0.17379701137542725  0.03436342626810074  0.009220395237207413  1.0000
  Li  Li2       1.0  0.32651445269584656  0.2205415964126587  0.23556089401245114  1.0000
  Li  Li3       1.0  0.6699728965759277  0.9877198934555054  0.07226593792438507  1.0000
  O   O1        1.0  0.5506482124328613  0.9363144636154175  0.22741368412971494  1.0000
  O   O2        1.0  0.20761381089687347  0.0841563418507576  0.06417198479175568  1.0000
  O   O3        1.0  0.2608315944671631  0.4765613079071045  0.7873998284339904  1.0000
  O   O4        1.0  0.440510630607605  0.32120001316070557  0.5352975130081177  1.0000
  O   O5        1.0  0.6042004823684692  0.3228013515472412  0.7382747530937194  1.0000
  O   O6        1.0  0.7357456684112549  0.5290368795394897  0.5261374711990356  1.0000
  O   O7        1.0  0.13316570222377777  0.5768109560012817  0.10374625772237776  1.0000
  Te  Te1       1.0  0.8325188755989075  0.7198293805122375  0.5786929130554199  1.0000
  Te  Te2       1.0  0.4990881085395813  0.541630744934082  0.24052727222442624  1.0000
  Y   Y1        1.0  0.30432724952697754  0.20232725143432617  0.5430670380592345  1.0000
