data_image0
_chemical_formula_structural       Li2O7Te3V
_chemical_formula_sum              "Li2 O7 Te3 V1"
_cell_length_a       4.807981259524372
_cell_length_b       6.942608131093467
_cell_length_c       7.375038146972656
_cell_angle_alpha    90.58726421957509
_cell_angle_beta     90.42124715238218
_cell_angle_gamma    120.49919617460216

_space_group_name_H-M_alt    "P 1"
_space_group_IT_number       1

loop_
  _space_group_symop_operation_xyz
  'x, y, z'

loop_
  _atom_site_type_symbol
  _atom_site_label
  _atom_site_symmetry_multiplicity
  _atom_site_fract_x
  _atom_site_fract_y
  _atom_site_fract_z
  _atom_site_occupancy
  Li  Li1       1.0  0.18345168232917786  0.7548722624778748  0.7922040820121765  1.0000
  Li  Li2       1.0  0.3072459101676941  0.2183665931224823  0.596645176410675  1.0000
  O   O1        1.0  0.05137613043189049  0.8506837487220764  0.4607988893985749  1.0000
  O   O2        1.0  0.5441134572029114  0.7071772813796997  0.7693795561790466  1.0000
  O   O3        1.0  0.14385730028152466  0.4546205699443817  0.2885425090789795  1.0000
  O   O4        1.0  0.5136457681655884  0.2993876039981842  0.08205834776163101  1.0000
  O   O5        1.0  0.9355254769325256  0.2672518789768219  0.35070279240608215  1.0000
  O   O6        1.0  0.6412330865859985  0.45163536071777344  0.9634988307952882  1.0000
  O   O7        1.0  0.7638976573944092  0.4589300751686096  0.09825161099433899  1.0000
  Te  Te1       1.0  0.6346719861030579  0.8703356981277466  0.3437933325767517  1.0000
  Te  Te2       1.0  0.6316533088684082  0.8304693698883057  0.047888804227113724  1.0000
  Te  Te3       1.0  0.815484344959259  0.24097949266433716  0.4589799046516419  1.0000
  V   V1        1.0  0.1837340146303177  0.8099856376647949  0.17542973160743713  1.0000
