data_image0
_chemical_formula_structural       Li3O4PtRhTe4
_chemical_formula_sum              "Li3 O4 Pt1 Rh1 Te4"
_cell_length_a       4.627606444427925
_cell_length_b       6.83354907948935
_cell_length_c       7.67177677154541
_cell_angle_alpha    88.198512234349
_cell_angle_beta     90.68477544646393
_cell_angle_gamma    96.42566844210637

_space_group_name_H-M_alt    "P 1"
_space_group_IT_number       1

loop_
  _space_group_symop_operation_xyz
  'x, y, z'

loop_
  _atom_site_type_symbol
  _atom_site_label
  _atom_site_symmetry_multiplicity
  _atom_site_fract_x
  _atom_site_fract_y
  _atom_site_fract_z
  _atom_site_occupancy
  Li  Li1       1.0  0.4513033926486969  0.21030621230602264  0.31222036480903625  1.0000
  Li  Li2       1.0  0.9452455639839172  0.19878241419792175  0.5383135676383971  1.0000
  Li  Li3       1.0  0.19050104916095734  0.5091498494148254  0.5537062883377075  1.0000
  O   O1        1.0  0.6917808055877686  0.17846786975860596  0.6132086515426636  1.0000
  O   O2        1.0  0.5775678753852844  0.9096229076385499  0.030703209340572354  1.0000
  O   O3        1.0  0.8585424423217773  0.5405663251876831  0.05716054514050484  1.0000
  O   O4        1.0  0.08149707317352295  0.8666329979896545  0.5786970257759094  1.0000
  Pt  Pt1       1.0  0.6886911988258362  0.4524693489074707  0.2285153567790985  1.0000
  Rh  Rh1       1.0  0.190537691116333  0.20127452909946442  0.7896193265914917  1.0000
  Te  Te1       1.0  0.689703643321991  0.130268394947052  0.1870185285806656  1.0000
  Te  Te2       1.0  0.6740668416023254  0.7269891500473022  0.6467561721801758  1.0000
  Te  Te3       1.0  0.1958204060792923  0.7358000874519348  0.9990265369415283  1.0000
  Te  Te4       1.0  0.19657917320728302  0.4689896106719971  0.1693028062582016  1.0000
