data_image0
_chemical_formula_structural       Li3O8SV
_chemical_formula_sum              "Li3 O8 S1 V1"
_cell_length_a       3.702457389262722
_cell_length_b       6.258075245703488
_cell_length_c       7.512267112731934
_cell_angle_alpha    90.56349458634159
_cell_angle_beta     95.31123939782528
_cell_angle_gamma    92.92625164385079

_space_group_name_H-M_alt    "P 1"
_space_group_IT_number       1

loop_
  _space_group_symop_operation_xyz
  'x, y, z'

loop_
  _atom_site_type_symbol
  _atom_site_label
  _atom_site_symmetry_multiplicity
  _atom_site_fract_x
  _atom_site_fract_y
  _atom_site_fract_z
  _atom_site_occupancy
  Li  Li1       1.0  0.25681304931640625  0.5460953116416931  0.2215186208486557  1.0000
  Li  Li2       1.0  0.2799857258796692  0.6564401984214783  0.8480504751205444  1.0000
  Li  Li3       1.0  0.7870972156524659  0.6351159811019897  0.3487560749053955  1.0000
  O   O1        1.0  0.5464118123054504  0.550353467464447  0.04390977695584297  1.0000
  O   O2        1.0  0.5837510824203491  0.04534727334976196  0.6019037961959839  1.0000
  O   O3        1.0  0.8113092184066774  0.19514696300029755  0.9158363342285156  1.0000
  O   O4        1.0  0.8052664995193483  0.11761514842510223  0.8084160089492798  1.0000
  O   O5        1.0  0.3662312328815461  0.5585688352584839  0.4152691662311554  1.0000
  O   O6        1.0  0.27216365933418274  0.19748227298259735  0.5008808970451355  1.0000
  O   O7        1.0  0.5771751403808594  0.05213835835456848  0.2259866148233414  1.0000
  O   O8        1.0  0.8511869311332704  0.7494601011276245  0.048640497028827674  1.0000
  S   S1        1.0  0.7240992784500123  0.021941976621747017  0.7291812300682068  1.0000
  V   V1        1.0  0.785593092441559  0.9959913492202759  0.8169901371002198  1.0000
