data_image0
_chemical_formula_structural       B3Ni5U
_chemical_formula_sum              "B3 Ni5 U1"
_cell_length_a       4.453662900121235
_cell_length_b       4.997398984666407
_cell_length_c       5.251657962799072
_cell_angle_alpha    123.07715680927285
_cell_angle_beta     88.89942239954313
_cell_angle_gamma    90.03811243577891

_space_group_name_H-M_alt    "P 1"
_space_group_IT_number       1

loop_
  _space_group_symop_operation_xyz
  'x, y, z'

loop_
  _atom_site_type_symbol
  _atom_site_label
  _atom_site_symmetry_multiplicity
  _atom_site_fract_x
  _atom_site_fract_y
  _atom_site_fract_z
  _atom_site_occupancy
  B   B1        1.0  0.04107463359832764  0.4840622544288635  0.5740956664085388  1.0000
  B   B2        1.0  0.05081946402788162  0.7707473039627075  0.39258593320846547  1.0000
  B   B3        1.0  0.542413055896759  0.917411744594574  0.8367102146148682  1.0000
  Ni  Ni1       1.0  0.5376501083374023  0.4929242432117462  0.6143711805343628  1.0000
  Ni  Ni2       1.0  0.539151132106781  0.6036637425422668  0.6217831373214722  1.0000
  Ni  Ni3       1.0  0.5416544079780579  0.7267462611198425  0.15999379754066462  1.0000
  Ni  Ni4       1.0  0.5419964790344238  0.8792295455932617  0.04208478331565848  1.0000
  Ni  Ni5       1.0  0.04076534882187843  0.37153446674346924  0.923082709312439  1.0000
  U   U1        1.0  0.043085478246212006  0.22182652354240417  0.9194711446762085  1.0000
