data_image0
_chemical_formula_structural       As3I2LiP2U
_chemical_formula_sum              "As3 I2 Li1 P2 U1"
_cell_length_a       5.711301776579072
_cell_length_b       6.284283341934531
_cell_length_c       6.684027194976807
_cell_angle_alpha    109.15043856330976
_cell_angle_beta     108.76972742410324
_cell_angle_gamma    100.67119630186083

_space_group_name_H-M_alt    "P 1"
_space_group_IT_number       1

loop_
  _space_group_symop_operation_xyz
  'x, y, z'

loop_
  _atom_site_type_symbol
  _atom_site_label
  _atom_site_symmetry_multiplicity
  _atom_site_fract_x
  _atom_site_fract_y
  _atom_site_fract_z
  _atom_site_occupancy
  As  As1       1.0  0.6590406894683838  0.6806260943412781  0.1884930431842804  1.0000
  As  As2       1.0  0.09255348145961761  0.1184908077120781  0.5768311619758606  1.0000
  As  As3       1.0  0.11227849125862122  0.7481135725975037  0.557224690914154  1.0000
  I   I1        1.0  0.6518320441246033  0.752717137336731  0.7988377213478088  1.0000
  I   I2        1.0  0.6701110005378723  0.31040480732917786  0.36306679248809814  1.0000
  Li  Li1       1.0  0.6656076908111572  0.06266815215349197  0.8494154214859009  1.0000
  P   P1        1.0  0.418162077665329  0.011408071033656597  0.8743242025375366  1.0000
  P   P2        1.0  0.20132970809936523  0.9068672060966492  0.930351734161377  1.0000
  U   U1        1.0  0.6515403389930725  0.1665830761194229  0.8346862196922302  1.0000
