data_image0
_chemical_formula_structural       Ca6CoI2O3PbTa
_chemical_formula_sum              "Ca6 Co1 I2 O3 Pb1 Ta1"
_cell_length_a       7.261423787207067
_cell_length_b       6.921888453371537
_cell_length_c       7.433427333831787
_cell_angle_alpha    66.81028057419543
_cell_angle_beta     63.60446962746821
_cell_angle_gamma    60.33035836552425

_space_group_name_H-M_alt    "P 1"
_space_group_IT_number       1

loop_
  _space_group_symop_operation_xyz
  'x, y, z'

loop_
  _atom_site_type_symbol
  _atom_site_label
  _atom_site_symmetry_multiplicity
  _atom_site_fract_x
  _atom_site_fract_y
  _atom_site_fract_z
  _atom_site_occupancy
  Ca  Ca1       1.0  0.5253376364707947  0.5082003474235535  0.8496902585029602  1.0000
  Ca  Ca2       1.0  0.040355838835239424  0.3998310267925262  0.49372395873069763  1.0000
  Ca  Ca3       1.0  0.5352168679237366  0.32566332817077637  0.9314592480659485  1.0000
  Ca  Ca4       1.0  0.04657414183020591  0.10017452389001845  0.9935601949691772  1.0000
  Ca  Ca5       1.0  0.04167318344116211  0.06071201711893081  0.06929156184196472  1.0000
  Ca  Ca6       1.0  0.5358023047447205  0.4673342108726501  0.404233455657959  1.0000
  Co  Co1       1.0  0.011161974631249938  0.47179839015007013  0.028614681214094162  1.0000
  I   I1        1.0  0.5635780096054077  0.7452885508537291  0.8886479735374451  1.0000
  I   I2        1.0  0.5721357464790344  0.6228305697441101  0.1797038614749909  1.0000
  O   O1        1.0  0.23103401064872747  0.8840120434761046  0.474232017993927  1.0000
  O   O2        1.0  0.5143683552742004  0.4965945184230804  0.4557965397834778  1.0000
  O   O3        1.0  0.5070111751556396  0.4764352142810821  0.8264251947402954  1.0000
  Pb  Pb1       1.0  0.7736209034919738  0.5898845195770264  0.5176278948783875  1.0000
  Ta  Ta1       1.0  0.4130719900131225  0.19797867536544797  0.16852450370788577  1.0000
