data_image0
_chemical_formula_structural       AsCa7I2O3Zr
_chemical_formula_sum              "As1 Ca7 I2 O3 Zr1"
_cell_length_a       6.189931497507986
_cell_length_b       6.129639943108536
_cell_length_c       11.51510238647461
_cell_angle_alpha    90.29327039414316
_cell_angle_beta     86.63147553682863
_cell_angle_gamma    81.69453056168962

_space_group_name_H-M_alt    "P 1"
_space_group_IT_number       1

loop_
  _space_group_symop_operation_xyz
  'x, y, z'

loop_
  _atom_site_type_symbol
  _atom_site_label
  _atom_site_symmetry_multiplicity
  _atom_site_fract_x
  _atom_site_fract_y
  _atom_site_fract_z
  _atom_site_occupancy
  As  As1       1.0  0.8958797454833984  0.6895058155059814  0.5066595673561096  1.0000
  Ca  Ca1       1.0  0.4123396873474121  0.36453449726104736  0.6877192258834839  1.0000
  Ca  Ca2       1.0  0.41789019107818604  0.8183567523956299  0.35687121748924255  1.0000
  Ca  Ca3       1.0  0.9070743322372437  0.5081942081451416  0.9512783288955687  1.0000
  Ca  Ca4       1.0  0.40151849389076233  0.28096893429756165  0.4349763095378875  1.0000
  Ca  Ca5       1.0  0.416251540184021  0.8423283100128174  0.989712357521057  1.0000
  Ca  Ca6       1.0  0.4058869481086731  0.9574021100997925  0.8291381001472472  1.0000
  Ca  Ca7       1.0  0.9070450067520142  0.8226272463798523  0.4434866905212402  1.0000
  I   I1        1.0  0.9094858765602112  0.9887427687644958  0.0641103982925415  1.0000
  I   I2        1.0  0.9149465560913086  0.5507768988609314  0.3558467626571655  1.0000
  O   O1        1.0  0.7829581499099731  0.5812242031097412  0.7600666880607604  1.0000
  O   O2        1.0  0.40880313515663147  0.5537592768669128  0.42287451028823847  1.0000
  O   O3        1.0  0.23550722002983093  0.18309274315834045  0.17022565007209778  1.0000
  Zr  Zr1       1.0  0.6260367035865784  0.11630774289369583  0.8640695214271544  1.0000
