data_image0
_chemical_formula_structural       Ca7FO3PPbV
_chemical_formula_sum              "Ca7 F1 O3 P1 Pb1 V1"
_cell_length_a       6.720168771363723
_cell_length_b       6.140983172545818
_cell_length_c       6.851583480834961
_cell_angle_alpha    62.1359486122045
_cell_angle_beta     61.85641736915625
_cell_angle_gamma    61.15350811315448

_space_group_name_H-M_alt    "P 1"
_space_group_IT_number       1

loop_
  _space_group_symop_operation_xyz
  'x, y, z'

loop_
  _atom_site_type_symbol
  _atom_site_label
  _atom_site_symmetry_multiplicity
  _atom_site_fract_x
  _atom_site_fract_y
  _atom_site_fract_z
  _atom_site_occupancy
  Ca  Ca1       1.0  0.3800818920135498  0.07310909777879715  0.3148682415485382  1.0000
  Ca  Ca2       1.0  0.8872835040092468  0.015742594376206398  0.3070744574069977  1.0000
  Ca  Ca3       1.0  0.3821815848350525  0.48165997862815857  0.5446174740791321  1.0000
  Ca  Ca4       1.0  0.8821678161621094  0.8531522750854492  0.9770739078521729  1.0000
  Ca  Ca5       1.0  0.37664908170700073  0.06772609055042267  0.36763477325439453  1.0000
  Ca  Ca6       1.0  0.8822409510612488  0.030220722779631615  0.26660564541816706  1.0000
  Ca  Ca7       1.0  0.3844567537307739  0.3169456720352173  0.5472257733345032  1.0000
  F   F1        1.0  0.3589645028114319  0.4526608884334564  0.40653663873672485  1.0000
  O   O1        1.0  0.8714603185653687  0.07264971733093262  0.9262107014656067  1.0000
  O   O2        1.0  0.38516098260879517  0.9852652549743652  0.8300491571426392  1.0000
  O   O3        1.0  0.8639692664146423  0.30979663133621216  0.7190579175949097  1.0000
  P   P1        1.0  0.3529127240180969  0.5153360366821289  0.8571205139160156  1.0000
  Pb  Pb1       1.0  0.8543568849563599  0.9198064208030701  0.05409519746899605  1.0000
  V   V1        1.0  0.40810567140579224  0.9934011101722717  0.17036502063274384  1.0000
