data_image0
_chemical_formula_structural       Ca7MnO4Ta2
_chemical_formula_sum              "Ca7 Mn1 O4 Ta2"
_cell_length_a       4.310954381668503
_cell_length_b       4.2320219370789545
_cell_length_c       7.757897853851318
_cell_angle_alpha    108.94563956173081
_cell_angle_beta     106.17307519161979
_cell_angle_gamma    90.13522597861149

_space_group_name_H-M_alt    "P 1"
_space_group_IT_number       1

loop_
  _space_group_symop_operation_xyz
  'x, y, z'

loop_
  _atom_site_type_symbol
  _atom_site_label
  _atom_site_symmetry_multiplicity
  _atom_site_fract_x
  _atom_site_fract_y
  _atom_site_fract_z
  _atom_site_occupancy
  Ca  Ca1       1.0  0.25354886054992676  0.5102038383483887  0.33886879682540894  1.0000
  Ca  Ca2       1.0  0.25660768151283264  0.3937488794326783  0.6744317412376404  1.0000
  Ca  Ca3       1.0  0.7544822692871094  0.2037075459957123  0.8041189908981324  1.0000
  Ca  Ca4       1.0  0.7567008137702942  0.9301072955131532  0.6663017868995667  1.0000
  Ca  Ca5       1.0  0.2490999549627304  0.17410735785961154  0.4883114397525788  1.0000
  Ca  Ca6       1.0  0.7568351626396179  0.9922339916229249  0.7113524079322815  1.0000
  Ca  Ca7       1.0  0.7566487193107605  0.908432424068451  0.13271741569042206  1.0000
  Mn  Mn1       1.0  0.250415563583374  0.5836995244026184  0.8415317535400392  1.0000
  O   O1        1.0  0.7636669278144836  0.25291043519973755  0.6515559554100037  1.0000
  O   O2        1.0  0.7811489701271057  0.24529060721397403  0.9247523546218873  1.0000
  O   O3        1.0  0.25768861174583435  0.23053789138793948  0.5924335718154907  1.0000
  O   O4        1.0  0.25836697220802307  0.4524035453796387  0.7843045592308046  1.0000
  Ta  Ta1       1.0  0.25412875413894653  0.3433322012424469  0.7704103589057923  1.0000
  Ta  Ta2       1.0  0.7537751793861389  0.4455448687076569  0.5750455856323242  1.0000
