data_image0
_chemical_formula_structural       Ca7O7
_chemical_formula_sum              "Ca7 O7"
_cell_length_a       6.1588226308460525
_cell_length_b       5.749459726884406
_cell_length_c       8.515316009521484
_cell_angle_alpha    116.25618650838422
_cell_angle_beta     90.83488708526613
_cell_angle_gamma    61.00496445529435

_space_group_name_H-M_alt    "P 1"
_space_group_IT_number       1

loop_
  _space_group_symop_operation_xyz
  'x, y, z'

loop_
  _atom_site_type_symbol
  _atom_site_label
  _atom_site_symmetry_multiplicity
  _atom_site_fract_x
  _atom_site_fract_y
  _atom_site_fract_z
  _atom_site_occupancy
  Ca  Ca1       1.0  0.05212363228201866  0.26419249176979065  0.13119637966156006  1.0000
  Ca  Ca2       1.0  0.15505874156951904  0.1410125494003296  0.393379807472229  1.0000
  Ca  Ca3       1.0  0.045935146510601044  0.4260241389274597  0.7237414717674255  1.0000
  Ca  Ca4       1.0  0.6213679313659668  0.3943102955818176  0.36285272240638733  1.0000
  Ca  Ca5       1.0  0.14530916512012482  0.5477249622344971  0.015937754884362193  1.0000
  Ca  Ca6       1.0  0.046389468014240265  0.19219017028808594  0.7298685908317566  1.0000
  Ca  Ca7       1.0  0.5545196533203125  0.759441614151001  0.7184627056121826  1.0000
  O   O1        1.0  0.1291622519493103  0.5277177095413208  0.8546354174613952  1.0000
  O   O2        1.0  0.06658267974853516  0.6488326191902161  0.2713173031806946  1.0000
  O   O3        1.0  0.5524945855140686  0.02115684002637863  0.9961167573928833  1.0000
  O   O4        1.0  0.6141180396080017  0.9022186398506165  0.13450361788272852  1.0000
  O   O5        1.0  0.5760576725006104  0.6713939905166626  0.8172549605369568  1.0000
  O   O6        1.0  0.5120783448219299  0.8849586248397827  0.42995879054069513  1.0000
  O   O7        1.0  0.24464252591133118  0.8045708537101746  0.4562086760997772  1.0000
