data_image0
_chemical_formula_structural       Ca6O6Ta2
_chemical_formula_sum              "Ca6 O6 Ta2"
_cell_length_a       4.106486192154891
_cell_length_b       2.845278225084147
_cell_length_c       8.643540382385254
_cell_angle_alpha    114.5431326898632
_cell_angle_beta     106.13771220762376
_cell_angle_gamma    94.60460886094553

_space_group_name_H-M_alt    "P 1"
_space_group_IT_number       1

loop_
  _space_group_symop_operation_xyz
  'x, y, z'

loop_
  _atom_site_type_symbol
  _atom_site_label
  _atom_site_symmetry_multiplicity
  _atom_site_fract_x
  _atom_site_fract_y
  _atom_site_fract_z
  _atom_site_occupancy
  Ca  Ca1       1.0  0.7086890339851379  0.7525168657302856  0.4486296474933624  1.0000
  Ca  Ca2       1.0  0.6792076230049133  0.6759687066078186  0.4003273844718933  1.0000
  Ca  Ca3       1.0  0.19535279273986816  0.9910916686058044  0.9395732879638672  1.0000
  Ca  Ca4       1.0  0.9742950797080994  0.5941556692123413  0.19128912687301636  1.0000
  Ca  Ca5       1.0  0.19662339985370636  0.47690442204475403  0.9603149890899658  1.0000
  Ca  Ca6       1.0  0.19832192361354828  0.543498158454895  0.7520597577095032  1.0000
  O   O1        1.0  0.1818883717060089  0.2614603340625763  0.34656620025634766  1.0000
  O   O2        1.0  0.29091617465019226  0.03484521061182022  0.8105286359786987  1.0000
  O   O3        1.0  0.18856748938560486  0.996198832988739  0.15887382626533508  1.0000
  O   O4        1.0  0.2051503211259842  0.3168164789676666  0.4633362591266632  1.0000
  O   O5        1.0  0.15929408371448517  0.7722265124320984  0.2178523689508438  1.0000
  O   O6        1.0  0.707088828086853  0.2454126626253128  0.3206619322299957  1.0000
  Ta  Ta1       1.0  0.18905112147331238  0.5053589940071106  0.5425320267677307  1.0000
  Ta  Ta2       1.0  0.6834733486175537  0.11438540369272232  0.3705044388771057  1.0000
