data_image0
_chemical_formula_structural       CoCsHHf2Si6
_chemical_formula_sum              "Co1 Cs1 H1 Hf2 Si6"
_cell_length_a       4.197358887944178
_cell_length_b       3.3433556058618983
_cell_length_c       7.953746795654297
_cell_angle_alpha    85.95397747826966
_cell_angle_beta     91.65401670233416
_cell_angle_gamma    171.7456353695382

_space_group_name_H-M_alt    "P 1"
_space_group_IT_number       1

loop_
  _space_group_symop_operation_xyz
  'x, y, z'

loop_
  _atom_site_type_symbol
  _atom_site_label
  _atom_site_symmetry_multiplicity
  _atom_site_fract_x
  _atom_site_fract_y
  _atom_site_fract_z
  _atom_site_occupancy
  Co  Co1       1.0  0.9301716685295105  0.08014480024576187  0.8983759284019471  1.0000
  Cs  Cs1       1.0  0.2578624188899994  0.9875056147575378  0.8236436843872071  1.0000
  H   H1        1.0  0.6375464797019958  0.21603353321552277  0.7781137824058534  1.0000
  Hf  Hf1       1.0  0.8400493264198303  0.28155073523521423  0.3888762295246125  1.0000
  Hf  Hf2       1.0  0.8595999479293823  0.0890749841928482  0.5529066324234009  1.0000
  Si  Si1       1.0  0.8590214252471924  0.16995391249656677  0.1585654765367508  1.0000
  Si  Si2       1.0  0.8398314714431763  0.015731144696474075  0.14102156460285187  1.0000
  Si  Si3       1.0  0.40708857774734497  0.7932820916175842  0.27247923612594604  1.0000
  Si  Si4       1.0  0.8804142475128174  0.5087485313415527  0.623335599899292  1.0000
  Si  Si5       1.0  0.26003381609916687  0.3162848949432373  0.029306152835488323  1.0000
  Si  Si6       1.0  0.3879103362560272  0.5921904444694519  0.4849540293216706  1.0000
