data_image0
_chemical_formula_structural       CoHfSi9
_chemical_formula_sum              "Co1 Hf1 Si9"
_cell_length_a       4.173325319673059
_cell_length_b       4.792334563060877
_cell_length_c       6.81357479095459
_cell_angle_alpha    100.26185229162132
_cell_angle_beta     88.45869994138287
_cell_angle_gamma    97.05710343997015

_space_group_name_H-M_alt    "P 1"
_space_group_IT_number       1

loop_
  _space_group_symop_operation_xyz
  'x, y, z'

loop_
  _atom_site_type_symbol
  _atom_site_label
  _atom_site_symmetry_multiplicity
  _atom_site_fract_x
  _atom_site_fract_y
  _atom_site_fract_z
  _atom_site_occupancy
  Co  Co1       1.0  0.07437719404697418  0.5804724097251892  0.1377606987953186  1.0000
  Hf  Hf1       1.0  0.25504523515701294  0.879488468170166  0.8938134312629699  1.0000
  Si  Si1       1.0  0.538221001625061  0.2908395528793335  0.39602065086364746  1.0000
  Si  Si2       1.0  0.043658800423145294  0.17898300290107727  0.5172206163406372  1.0000
  Si  Si3       1.0  0.02872934378683567  0.5525119304656982  0.9779648184776305  1.0000
  Si  Si4       1.0  0.042644795030355453  0.3833748996257782  0.4088178277015686  1.0000
  Si  Si5       1.0  0.7391493916511536  0.035244300961494446  0.5021125674247742  1.0000
  Si  Si6       1.0  0.5709511041641235  0.5364023447036743  0.20757704973220825  1.0000
  Si  Si7       1.0  0.23883935809135437  0.9918709993362427  0.7246553897857666  1.0000
  Si  Si8       1.0  0.7622647881507874  0.8726651668548584  0.14006869494915009  1.0000
  Si  Si9       1.0  0.5687470436096191  0.30938419699668884  0.19774070382118225  1.0000
