data_image0
_chemical_formula_structural       BCoHf3Si6
_chemical_formula_sum              "B1 Co1 Hf3 Si6"
_cell_length_a       4.777843600930986
_cell_length_b       5.3061139821659395
_cell_length_c       5.501176357269287
_cell_angle_alpha    66.55174517405204
_cell_angle_beta     62.28256225318253
_cell_angle_gamma    60.31919346087857

_space_group_name_H-M_alt    "P 1"
_space_group_IT_number       1

loop_
  _space_group_symop_operation_xyz
  'x, y, z'

loop_
  _atom_site_type_symbol
  _atom_site_label
  _atom_site_symmetry_multiplicity
  _atom_site_fract_x
  _atom_site_fract_y
  _atom_site_fract_z
  _atom_site_occupancy
  B   B1        1.0  0.05927523598074913  0.3057086765766144  0.7056924104690552  1.0000
  Co  Co1       1.0  0.07558315247297287  0.05673852562904358  0.37555786967277527  1.0000
  Hf  Hf1       1.0  0.8098286986351013  0.5418384671211243  0.5953981876373291  1.0000
  Hf  Hf2       1.0  0.35299211740493774  0.16208280622959137  0.4760901927947998  1.0000
  Hf  Hf3       1.0  0.7199520468711853  0.8499562740325928  0.16908150911331177  1.0000
  Si  Si1       1.0  0.9137073159217834  0.19171179831027985  0.22673910856246948  1.0000
  Si  Si2       1.0  0.41521158814430237  0.28372547030448914  0.22663749754428864  1.0000
  Si  Si3       1.0  0.023740651085972786  0.7254993915557861  0.4453016519546509  1.0000
  Si  Si4       1.0  0.6508718132972717  0.5693128705024719  0.9185817241668701  1.0000
  Si  Si5       1.0  0.5682268738746643  0.3052193224430084  0.5896700024604797  1.0000
  Si  Si6       1.0  0.4234806299209595  0.18635450303554535  0.20003411173820496  1.0000
