data_image0
_chemical_formula_structural       Co2FeHf2Si6
_chemical_formula_sum              "Co2 Fe1 Hf2 Si6"
_cell_length_a       4.257987820418401
_cell_length_b       4.666298754068671
_cell_length_c       6.7719292640686035
_cell_angle_alpha    105.37519868074064
_cell_angle_beta     92.3855312021361
_cell_angle_gamma    91.83115986670953

_space_group_name_H-M_alt    "P 1"
_space_group_IT_number       1

loop_
  _space_group_symop_operation_xyz
  'x, y, z'

loop_
  _atom_site_type_symbol
  _atom_site_label
  _atom_site_symmetry_multiplicity
  _atom_site_fract_x
  _atom_site_fract_y
  _atom_site_fract_z
  _atom_site_occupancy
  Co  Co1       1.0  0.8552444577217102  0.10306750982999802  0.42402154207229614  1.0000
  Co  Co2       1.0  0.8915941715240479  0.8783471584320068  0.9476221799850464  1.0000
  Fe  Fe1       1.0  0.3726824223995209  0.9802752137184143  0.7502250075340271  1.0000
  Hf  Hf1       1.0  0.3685891926288605  0.4177965521812439  0.8949423432350159  1.0000
  Hf  Hf2       1.0  0.8627332448959351  0.42398908734321594  0.4971611499786377  1.0000
  Si  Si1       1.0  0.9020964503288269  0.5234243273735046  0.912324070930481  1.0000
  Si  Si2       1.0  0.4072675108909607  0.955900251865387  0.5700673460960388  1.0000
  Si  Si3       1.0  0.9111819863319397  0.573562502861023  0.056861221790313735  1.0000
  Si  Si4       1.0  0.9027353525161743  0.9648185968399048  0.936543881893158  1.0000
  Si  Si5       1.0  0.4007090926170349  0.48152416944503784  0.49322494864463806  1.0000
  Si  Si6       1.0  0.16474168002605438  0.9001857042312622  0.5888054966926575  1.0000
