data_image0
_chemical_formula_structural       Co2Hf4Si5
_chemical_formula_sum              "Co2 Hf4 Si5"
_cell_length_a       5.272230391270823
_cell_length_b       5.845894209151045
_cell_length_c       6.446598529815674
_cell_angle_alpha    120.04413491667576
_cell_angle_beta     94.97714902859076
_cell_angle_gamma    90.7795467839488

_space_group_name_H-M_alt    "P 1"
_space_group_IT_number       1

loop_
  _space_group_symop_operation_xyz
  'x, y, z'

loop_
  _atom_site_type_symbol
  _atom_site_label
  _atom_site_symmetry_multiplicity
  _atom_site_fract_x
  _atom_site_fract_y
  _atom_site_fract_z
  _atom_site_occupancy
  Co  Co1       1.0  0.09298518300056458  0.49958333373069763  0.40546441078186035  1.0000
  Co  Co2       1.0  0.6551720499992371  0.8997898101806641  0.9760960936546326  1.0000
  Hf  Hf1       1.0  0.09357328712940216  0.1938076615333557  0.436841756105423  1.0000
  Hf  Hf2       1.0  0.5939754843711853  0.6719133853912354  0.20604164898395538  1.0000
  Hf  Hf3       1.0  0.11291688680648804  0.9362784624099731  0.4658116400241852  1.0000
  Hf  Hf4       1.0  0.5854603052139282  0.4008858799934387  0.4421221613883972  1.0000
  Si  Si1       1.0  0.81879061460495  0.9655719995498657  0.9499079585075378  1.0000
  Si  Si2       1.0  0.36940205097198486  0.17059670388698578  0.07480492442846298  1.0000
  Si  Si3       1.0  0.32081326842308044  0.7039584517478943  0.7483885288238525  1.0000
  Si  Si4       1.0  0.5976538062095642  0.6661702394485474  0.5369758009910583  1.0000
  Si  Si5       1.0  0.08100945502519608  0.0964236930012703  0.9176549315452576  1.0000
