data_image0
_chemical_formula_structural       CoFHHf2Si6
_chemical_formula_sum              "Co1 F1 H1 Hf2 Si6"
_cell_length_a       4.160702116268917
_cell_length_b       4.851014292149034
_cell_length_c       6.990322589874268
_cell_angle_alpha    90.18838022704635
_cell_angle_beta     86.87204108061239
_cell_angle_gamma    106.3756768769176

_space_group_name_H-M_alt    "P 1"
_space_group_IT_number       1

loop_
  _space_group_symop_operation_xyz
  'x, y, z'

loop_
  _atom_site_type_symbol
  _atom_site_label
  _atom_site_symmetry_multiplicity
  _atom_site_fract_x
  _atom_site_fract_y
  _atom_site_fract_z
  _atom_site_occupancy
  Co  Co1       1.0  0.9376706480979919  0.2153613269329071  0.0005853176116943319  1.0000
  F   F1        1.0  0.6705925464630127  0.8839020729064941  0.33163994550704956  1.0000
  H   H1        1.0  0.31869977712631226  0.6541878581047058  0.0011807680130004883  1.0000
  Hf  Hf1       1.0  0.11427979916334152  0.5752125978469849  0.27743157744407654  1.0000
  Hf  Hf2       1.0  0.33824440836906433  0.11418827623128891  0.6435595750808716  1.0000
  Si  Si1       1.0  0.9308556914329529  0.0020340681076049805  0.8152940273284912  1.0000
  Si  Si2       1.0  0.4621697962284088  0.020693926140666008  0.285196989774704  1.0000
  Si  Si3       1.0  0.9293926954269409  0.14342635869979858  0.8198884725570679  1.0000
  Si  Si4       1.0  0.393260657787323  0.33326321840286255  0.7422439455986023  1.0000
  Si  Si5       1.0  0.7293527722358704  0.8075882792472839  0.3606928288936615  1.0000
  Si  Si6       1.0  0.2855794429779053  0.6589171886444092  0.06474762409925461  1.0000
