data_image0
_chemical_formula_structural       Ba4PPt2
_chemical_formula_sum              "Ba4 P1 Pt2"
_cell_length_a       5.040173858971596
_cell_length_b       5.253181425816501
_cell_length_c       6.129281520843506
_cell_angle_alpha    91.88166270288954
_cell_angle_beta     97.15535849241316
_cell_angle_gamma    91.61484508650834

_space_group_name_H-M_alt    "P 1"
_space_group_IT_number       1

loop_
  _space_group_symop_operation_xyz
  'x, y, z'

loop_
  _atom_site_type_symbol
  _atom_site_label
  _atom_site_symmetry_multiplicity
  _atom_site_fract_x
  _atom_site_fract_y
  _atom_site_fract_z
  _atom_site_occupancy
  Ba  Ba1       1.0  0.6366848945617676  0.28130042552948  0.2788833975791931  1.0000
  Ba  Ba2       1.0  0.6400942802429199  0.07873736321926117  0.6768527626991272  1.0000
  Ba  Ba3       1.0  0.6453969478607178  0.2974759638309479  0.9491403698921204  1.0000
  Ba  Ba4       1.0  0.22232045233249664  0.9097331166267395  0.9046078324317932  1.0000
  P   P1        1.0  0.6762507557868958  0.6036571860313416  0.9079379439353943  1.0000
  Pt  Pt1       1.0  0.012099956162273884  0.07517509907484055  0.4253295361995697  1.0000
  Pt  Pt2       1.0  0.9985491633415221  0.5253356099128723  0.19066669046878815  1.0000
