data_image0
_chemical_formula_structural       Ba4OP
_chemical_formula_sum              "Ba4 O1 P1"
_cell_length_a       4.054269371252641
_cell_length_b       5.405115386760339
_cell_length_c       6.48673677444458
_cell_angle_alpha    93.64065456326216
_cell_angle_beta     110.3149181563883
_cell_angle_gamma    92.45225779450124

_space_group_name_H-M_alt    "P 1"
_space_group_IT_number       1

loop_
  _space_group_symop_operation_xyz
  'x, y, z'

loop_
  _atom_site_type_symbol
  _atom_site_label
  _atom_site_symmetry_multiplicity
  _atom_site_fract_x
  _atom_site_fract_y
  _atom_site_fract_z
  _atom_site_occupancy
  Ba  Ba1       1.0  0.6933515667915344  0.06850667297840118  0.8170805573463439  1.0000
  Ba  Ba2       1.0  0.724838376045227  0.5534709692001343  0.8446463346481323  1.0000
  Ba  Ba3       1.0  0.7368252873420715  0.9632796645164489  0.00901817623525858  1.0000
  Ba  Ba4       1.0  0.223272442817688  0.8347341418266296  0.6341835260391235  1.0000
  O   O1        1.0  0.22511450946331024  0.23497627675533295  0.32230231165885925  1.0000
  P   P1        1.0  0.6726224422454834  0.5712888240814209  0.36511749029159546  1.0000
