data_image0
_chemical_formula_structural       Ba4FO6YbZn2
_chemical_formula_sum              "Ba4 F1 O6 Yb1 Zn2"
_cell_length_a       6.207975756401697
_cell_length_b       6.566062605785115
_cell_length_c       7.183268070220947
_cell_angle_alpha    66.59319186773467
_cell_angle_beta     64.9234000813243
_cell_angle_gamma    62.92761508493919

_space_group_name_H-M_alt    "P 1"
_space_group_IT_number       1

loop_
  _space_group_symop_operation_xyz
  'x, y, z'

loop_
  _atom_site_type_symbol
  _atom_site_label
  _atom_site_symmetry_multiplicity
  _atom_site_fract_x
  _atom_site_fract_y
  _atom_site_fract_z
  _atom_site_occupancy
  Ba  Ba1       1.0  0.5521053075790405  0.9120840430259705  0.47097593545913696  1.0000
  Ba  Ba2       1.0  0.6802646517753601  0.5883470773696899  0.7984008193016052  1.0000
  Ba  Ba3       1.0  0.07272713631391525  0.34668850898742676  0.9149303436279297  1.0000
  Ba  Ba4       1.0  0.5512186884880066  0.858129620552063  0.9657915234565735  1.0000
  F   F1        1.0  0.1742505580186844  0.09558836370706558  0.432208776473999  1.0000
  O   O1        1.0  0.31264394521713257  0.6333671808242798  0.17336532473564148  1.0000
  O   O2        1.0  0.9038476943969727  0.6389714479446411  0.4334465265274048  1.0000
  O   O3        1.0  0.9543123245239258  0.94771409034729  0.4633680582046509  1.0000
  O   O4        1.0  0.3153686225414276  0.1221567690372467  0.6505149006843567  1.0000
  O   O5        1.0  0.4171549379825592  0.37382933497428894  0.5242570638656616  1.0000
  O   O6        1.0  0.3033749759197235  0.6247820258140564  0.9689677357673645  1.0000
  Yb  Yb1       1.0  0.9103530645370483  0.3087218105792999  0.7450903058052063  1.0000
  Zn  Zn1       1.0  0.18303464353084564  0.5994505882263184  0.46346306800842285  1.0000
  Zn  Zn2       1.0  0.6780775189399719  0.08358188718557358  0.7352816462516785  1.0000
