data_image0
_chemical_formula_structural       Ba3NbO7RuYbZn
_chemical_formula_sum              "Ba3 Nb1 O7 Ru1 Yb1 Zn1"
_cell_length_a       5.910911176625477
_cell_length_b       6.257724520937199
_cell_length_c       6.155992031097412
_cell_angle_alpha    64.50225461611652
_cell_angle_beta     61.976279234176054
_cell_angle_gamma    62.439465761765966

_space_group_name_H-M_alt    "P 1"
_space_group_IT_number       1

loop_
  _space_group_symop_operation_xyz
  'x, y, z'

loop_
  _atom_site_type_symbol
  _atom_site_label
  _atom_site_symmetry_multiplicity
  _atom_site_fract_x
  _atom_site_fract_y
  _atom_site_fract_z
  _atom_site_occupancy
  Ba  Ba1       1.0  0.7121263146400452  0.20797224342823029  0.9815661311149597  1.0000
  Ba  Ba2       1.0  0.28655439615249634  0.21289967000484467  0.6959480047225952  1.0000
  Ba  Ba3       1.0  0.7002618312835693  0.9779024720191956  0.48278117179870605  1.0000
  Nb  Nb1       1.0  0.08891724050045013  0.8688550591468811  0.6927324533462524  1.0000
  O   O1        1.0  0.08729567378759384  0.9409287571907043  0.20820988714694977  1.0000
  O   O2        1.0  0.3965069353580475  0.6106922030448914  0.5053452849388123  1.0000
  O   O3        1.0  0.936351180076599  0.7284085154533386  0.4044441878795624  1.0000
  O   O4        1.0  0.95080429315567  0.23219835758209229  0.8600425720214844  1.0000
  O   O5        1.0  0.45537745952606196  0.21906492114067078  0.8338993787765503  1.0000
  O   O6        1.0  0.6990548968315125  0.4989290237426758  0.13709937036037445  1.0000
  O   O7        1.0  0.5942686796188354  0.015434128232300282  0.17895640432834625  1.0000
  Ru  Ru1       1.0  0.5955892205238342  0.8683105111122131  0.20032919943332672  1.0000
  Yb  Yb1       1.0  0.0736067146062851  0.4989115297794342  0.6975769996643066  1.0000
  Zn  Zn1       1.0  0.35152193903923035  0.6657235026359558  0.0981515422463417  1.0000
