data_image0
_chemical_formula_structural       Ba3FO4Ru3TlZn2
_chemical_formula_sum              "Ba3 F1 O4 Ru3 Tl1 Zn2"
_cell_length_a       6.366966936266076
_cell_length_b       6.716953042287204
_cell_length_c       6.688724994659424
_cell_angle_alpha    63.94467787468147
_cell_angle_beta     61.9572408453671
_cell_angle_gamma    61.941548043745655

_space_group_name_H-M_alt    "P 1"
_space_group_IT_number       1

loop_
  _space_group_symop_operation_xyz
  'x, y, z'

loop_
  _atom_site_type_symbol
  _atom_site_label
  _atom_site_symmetry_multiplicity
  _atom_site_fract_x
  _atom_site_fract_y
  _atom_site_fract_z
  _atom_site_occupancy
  Ba  Ba1       1.0  0.8804702758789062  0.14110365509986877  0.07930772006511688  1.0000
  Ba  Ba2       1.0  0.40839827060699463  0.16057446599006653  0.9169043898582458  1.0000
  Ba  Ba3       1.0  0.882275402545929  0.28000736236572266  0.6298189759254456  1.0000
  F   F1        1.0  0.5235381126403809  0.8456902503967285  0.42008450627326965  1.0000
  O   O1        1.0  0.920030951499939  0.4224146604537964  0.8975660800933838  1.0000
  O   O2        1.0  0.73154217004776  0.9687180519104004  0.5804250240325928  1.0000
  O   O3        1.0  0.37216222286224365  0.5287541151046753  0.6041624546051025  1.0000
  O   O4        1.0  0.08064065873622894  0.9539254307746887  0.2820546329021454  1.0000
  Ru  Ru1       1.0  0.2344401329755783  0.8857559561729431  0.5534539222717285  1.0000
  Ru  Ru2       1.0  0.5103122591972351  0.32581445574760437  0.8386900424957275  1.0000
  Ru  Ru3       1.0  0.8870140910148621  0.6790896654129028  0.6584258079528809  1.0000
  Tl  Tl1       1.0  0.6667095422744751  0.5827170610427856  0.3052107095718384  1.0000
  Zn  Zn1       1.0  0.9042805433273315  0.9046429395675659  0.6421797275543213  1.0000
  Zn  Zn2       1.0  0.2465655356645584  0.5977833867073059  0.14905379712581635  1.0000
