data_image0
_chemical_formula_structural       CsO6Ru7
_chemical_formula_sum              "Cs1 O6 Ru7"
_cell_length_a       6.05477499174572
_cell_length_b       6.229254338205522
_cell_length_c       6.26847505569458
_cell_angle_alpha    60.29456710751736
_cell_angle_beta     60.29291626235441
_cell_angle_gamma    60.76802312536353

_space_group_name_H-M_alt    "P 1"
_space_group_IT_number       1

loop_
  _space_group_symop_operation_xyz
  'x, y, z'

loop_
  _atom_site_type_symbol
  _atom_site_label
  _atom_site_symmetry_multiplicity
  _atom_site_fract_x
  _atom_site_fract_y
  _atom_site_fract_z
  _atom_site_occupancy
  Cs  Cs1       1.0  0.896008312702179  0.8617628216743469  0.8121618032455444  1.0000
  O   O1        1.0  0.8706737756729126  0.5353972911834717  0.8715636134147644  1.0000
  O   O2        1.0  0.3348453938961029  0.03980013728141785  0.4443512558937073  1.0000
  O   O3        1.0  0.3510185182094574  0.4874385595321655  0.3475421965122223  1.0000
  O   O4        1.0  0.8596011400222778  0.16718895733356476  0.8656885623931885  1.0000
  O   O5        1.0  0.5394365787506104  0.32259881496429443  0.7270345091819763  1.0000
  O   O6        1.0  0.5535834431648254  0.8562809228897095  0.05573209375143051  1.0000
  Ru  Ru1       1.0  0.316170871257782  0.3657684624195099  0.23691777884960175  1.0000
  Ru  Ru2       1.0  0.8514276742935181  0.9419039487838745  0.386989563703537  1.0000
  Ru  Ru3       1.0  0.3706790804862976  0.481289803981781  0.02893506921827793  1.0000
  Ru  Ru4       1.0  0.3195878267288208  0.8622259497642517  0.8657671809196472  1.0000
  Ru  Ru5       1.0  0.5710492134094238  0.3644060492515564  0.5533030033111572  1.0000
  Ru  Ru6       1.0  0.8317521214485168  0.5612265467643738  0.8868158459663391  1.0000
  Ru  Ru7       1.0  0.09839052706956863  0.7687215805053711  0.20908373594284058  1.0000
