data_image0
_chemical_formula_structural       Ba3O6Ru3Zn2
_chemical_formula_sum              "Ba3 O6 Ru3 Zn2"
_cell_length_a       6.013965099203344
_cell_length_b       6.335033944467397
_cell_length_c       6.286125183105469
_cell_angle_alpha    62.33047054406069
_cell_angle_beta     60.46366994824582
_cell_angle_gamma    61.54722270971925

_space_group_name_H-M_alt    "P 1"
_space_group_IT_number       1

loop_
  _space_group_symop_operation_xyz
  'x, y, z'

loop_
  _atom_site_type_symbol
  _atom_site_label
  _atom_site_symmetry_multiplicity
  _atom_site_fract_x
  _atom_site_fract_y
  _atom_site_fract_z
  _atom_site_occupancy
  Ba  Ba1       1.0  0.6644400954246521  0.5680974721908569  0.20414711534976968  1.0000
  Ba  Ba2       1.0  0.1956021934747696  0.08189284056425095  0.6507922410964966  1.0000
  Ba  Ba3       1.0  0.5990703701972961  0.3000473082065582  0.26084372401237493  1.0000
  O   O1        1.0  0.8316442370414733  0.27024519443511963  0.5044775605201722  1.0000
  O   O2        1.0  0.19462132453918457  0.6446524262428284  0.1996261477470398  1.0000
  O   O3        1.0  0.6237114071846008  0.08535907417535782  0.7140184044837952  1.0000
  O   O4        1.0  0.2025899142026901  0.8007726669311523  0.92911297082901  1.0000
  O   O5        1.0  0.7235743999481201  0.6474282741546631  0.16315540671348572  1.0000
  O   O6        1.0  0.15892952680587769  0.6285402774810791  0.9289519190788269  1.0000
  Ru  Ru1       1.0  0.7464455962181091  0.0694667175412178  0.9368508458137512  1.0000
  Ru  Ru2       1.0  0.18419542908668518  0.3188402056694031  0.18849775195121768  1.0000
  Ru  Ru3       1.0  0.1931682527065277  0.04807793349027634  0.9323897361755371  1.0000
  Zn  Zn1       1.0  0.35260990262031555  0.8139917254447937  0.6234069466590882  1.0000
  Zn  Zn2       1.0  0.17341163754463196  0.1278270184993744  0.8465391993522644  1.0000
