data_image0
_chemical_formula_structural       O6Ru6Zn2
_chemical_formula_sum              "O6 Ru6 Zn2"
_cell_length_a       6.173671107097528
_cell_length_b       6.50174344164616
_cell_length_c       6.398988246917725
_cell_angle_alpha    61.432420649320754
_cell_angle_beta     63.51595671697695
_cell_angle_gamma    60.19623476240274

_space_group_name_H-M_alt    "P 1"
_space_group_IT_number       1

loop_
  _space_group_symop_operation_xyz
  'x, y, z'

loop_
  _atom_site_type_symbol
  _atom_site_label
  _atom_site_symmetry_multiplicity
  _atom_site_fract_x
  _atom_site_fract_y
  _atom_site_fract_z
  _atom_site_occupancy
  O   O1        1.0  0.6874099373817444  0.38628444075584417  0.9948181509971619  1.0000
  O   O2        1.0  0.6903221607208252  0.613835871219635  0.4533035159111023  1.0000
  O   O3        1.0  0.22571757435798648  0.23794823884963992  0.525603711605072  1.0000
  O   O4        1.0  0.04830143600702282  0.8283819556236268  0.4323989450931549  1.0000
  O   O5        1.0  0.8050137162208558  0.053939726203680045  0.3574940860271454  1.0000
  O   O6        1.0  0.6634963750839233  0.23197621107101443  0.7178319692611694  1.0000
  Ru  Ru1       1.0  0.05602456629276274  0.40750879049301153  0.02029544860124588  1.0000
  Ru  Ru2       1.0  0.3015911877155304  0.030006110668182377  0.005389539990574104  1.0000
  Ru  Ru3       1.0  0.5514217615127563  0.4427942335605622  0.9901522994041443  1.0000
  Ru  Ru4       1.0  0.7128061652183533  0.7285709381103516  0.7732326984405518  1.0000
  Ru  Ru5       1.0  0.3022780120372772  0.4998065531253815  0.6253089308738708  1.0000
  Ru  Ru6       1.0  0.10116114467382428  0.7808987498283387  0.8713938593864441  1.0000
  Zn  Zn1       1.0  0.19832997024059296  0.35752302408218384  0.3837908208370209  1.0000
  Zn  Zn2       1.0  0.6885201930999756  0.845455825328827  0.5015060305595398  1.0000
