data_image0
_chemical_formula_structural       Cl3CoGeIIrPbTe
_chemical_formula_sum              "Cl3 Co1 Ge1 I1 Ir1 Pb1 Te1"
_cell_length_a       6.319664909438737
_cell_length_b       6.414467896100322
_cell_length_c       9.183235168457031
_cell_angle_alpha    91.6399763914379
_cell_angle_beta     91.0578661519012
_cell_angle_gamma    86.91276495837415

_space_group_name_H-M_alt    "P 1"
_space_group_IT_number       1

loop_
  _space_group_symop_operation_xyz
  'x, y, z'

loop_
  _atom_site_type_symbol
  _atom_site_label
  _atom_site_symmetry_multiplicity
  _atom_site_fract_x
  _atom_site_fract_y
  _atom_site_fract_z
  _atom_site_occupancy
  Cl  Cl1       1.0  0.7137643098831178  0.5033413767814636  0.3974333107471466  1.0000
  Cl  Cl2       1.0  0.24124932289123538  0.8244380950927733  0.5611142516136169  1.0000
  Cl  Cl3       1.0  0.7887712121009828  0.5624424815177917  0.275613397359848  1.0000
  Co  Co1       1.0  0.8384277820587159  0.7291587591171264  0.42821353673934937  1.0000
  Ge  Ge1       1.0  0.2388935834169388  0.5774372220039368  0.01286276150494814  1.0000
  I   I1        1.0  0.7234013676643373  0.9944998621940612  0.8911054730415344  1.0000
  Ir  Ir1       1.0  0.21848236024379733  0.9840043783187865  0.9540066123008728  1.0000
  Pb  Pb1       1.0  0.5157619714736938  0.24275594949722287  0.8342714905738831  1.0000
  Te  Te1       1.0  0.25326666235923767  0.6328681111335754  0.5889672636985779  1.0000
