data_image0
_chemical_formula_structural       Cl4Ge3IZn
_chemical_formula_sum              "Cl4 Ge3 I1 Zn1"
_cell_length_a       4.423956487575271
_cell_length_b       4.506240989440304
_cell_length_c       11.105032920837402
_cell_angle_alpha    91.55246438516579
_cell_angle_beta     95.2787765219553
_cell_angle_gamma    88.71526672051259

_space_group_name_H-M_alt    "P 1"
_space_group_IT_number       1

loop_
  _space_group_symop_operation_xyz
  'x, y, z'

loop_
  _atom_site_type_symbol
  _atom_site_label
  _atom_site_symmetry_multiplicity
  _atom_site_fract_x
  _atom_site_fract_y
  _atom_site_fract_z
  _atom_site_occupancy
  Cl  Cl1       1.0  0.9368929266929626  0.7451089024543762  0.1436881124973297  1.0000
  Cl  Cl2       1.0  0.37646323442459106  0.6857773065567017  0.41095542907714844  1.0000
  Cl  Cl3       1.0  0.415822297334671  0.3621388077735901  0.3241407573223114  1.0000
  Cl  Cl4       1.0  0.7219904065132141  0.0173044353723526  0.48665013909339905  1.0000
  Ge  Ge1       1.0  0.20756575465202332  0.7879472374916077  0.05316539481282234  1.0000
  Ge  Ge2       1.0  0.1494162231683731  0.3933736979961395  0.6569162011146545  1.0000
  Ge  Ge3       1.0  0.2871226370334625  0.41659897565841675  0.9374187588691711  1.0000
  I   I1        1.0  0.6964495778083801  0.2755976915359497  0.37687450647354126  1.0000
  Zn  Zn1       1.0  0.6791605949401855  0.6719568967819214  0.07792428135871887  1.0000
