data_image0
_chemical_formula_structural       Cl2SSe2Te3Tl
_chemical_formula_sum              "Cl2 S1 Se2 Te3 Tl1"
_cell_length_a       4.575009082889367
_cell_length_b       5.305814043352581
_cell_length_c       10.6914644241333
_cell_angle_alpha    97.73373620093483
_cell_angle_beta     99.17480906426867
_cell_angle_gamma    89.58324438957357

_space_group_name_H-M_alt    "P 1"
_space_group_IT_number       1

loop_
  _space_group_symop_operation_xyz
  'x, y, z'

loop_
  _atom_site_type_symbol
  _atom_site_label
  _atom_site_symmetry_multiplicity
  _atom_site_fract_x
  _atom_site_fract_y
  _atom_site_fract_z
  _atom_site_occupancy
  Cl  Cl1       1.0  0.6436717510223389  0.6576641201972961  0.6877382397651672  1.0000
  Cl  Cl2       1.0  0.4355383515357971  0.015126083977520468  0.6451065540313721  1.0000
  S   S1        1.0  0.9505606889724731  0.6359105706214905  0.6690925359725952  1.0000
  Se  Se1       1.0  0.4442557692527771  0.5795098543167114  0.17421388626098633  1.0000
  Se  Se2       1.0  0.1680707484483719  0.5160907506942749  0.027365796267986298  1.0000
  Te  Te1       1.0  0.9392896890640261  0.4910320937633515  0.6030843257904053  1.0000
  Te  Te2       1.0  0.6267145872116089  0.14579592645168304  0.9709454774856567  1.0000
  Te  Te3       1.0  0.929767370223999  0.42374473810195923  0.9610224962234497  1.0000
  Tl  Tl1       1.0  0.4441370368003845  0.5026821494102478  0.9148303270339966  1.0000
