data_image0
_chemical_formula_structural       AsCl3FeSeTe3
_chemical_formula_sum              "As1 Cl3 Fe1 Se1 Te3"
_cell_length_a       5.944773809759526
_cell_length_b       6.240910872332977
_cell_length_c       9.06803035736084
_cell_angle_alpha    90.52511772275116
_cell_angle_beta     90.27277399350399
_cell_angle_gamma    88.19382211176769

_space_group_name_H-M_alt    "P 1"
_space_group_IT_number       1

loop_
  _space_group_symop_operation_xyz
  'x, y, z'

loop_
  _atom_site_type_symbol
  _atom_site_label
  _atom_site_symmetry_multiplicity
  _atom_site_fract_x
  _atom_site_fract_y
  _atom_site_fract_z
  _atom_site_occupancy
  As  As1       1.0  0.41057226061820984  0.0014277183217927814  0.46179378032684326  1.0000
  Cl  Cl1       1.0  0.3714549243450165  0.6813052296638489  0.16336983442306519  1.0000
  Cl  Cl2       1.0  0.3998725414276123  0.19684231281280518  0.2994522750377655  1.0000
  Cl  Cl3       1.0  0.9199024438858032  0.36018070578575134  0.5003895163536072  1.0000
  Fe  Fe1       1.0  0.9039360284805298  0.21482262015342712  0.7599929571151733  1.0000
  Se  Se1       1.0  0.979841947555542  0.05502420291304588  0.1363055258989334  1.0000
  Te  Te1       1.0  0.6612996459007263  0.6857919096946716  0.1465606540441513  1.0000
  Te  Te2       1.0  0.4221178889274597  0.3741310238838196  0.4976975917816162  1.0000
  Te  Te3       1.0  0.9060760140419006  0.5431069731712341  0.8737828731536865  1.0000
