data_image0
_chemical_formula_structural       Cl2Ge2ILiPPbSb
_chemical_formula_sum              "Cl2 Ge2 I1 Li1 P1 Pb1 Sb1"
_cell_length_a       4.358280036885142
_cell_length_b       5.583700045973147
_cell_length_c       8.431774139404297
_cell_angle_alpha    100.15516061477213
_cell_angle_beta     99.49636934867254
_cell_angle_gamma    111.11367427013235

_space_group_name_H-M_alt    "P 1"
_space_group_IT_number       1

loop_
  _space_group_symop_operation_xyz
  'x, y, z'

loop_
  _atom_site_type_symbol
  _atom_site_label
  _atom_site_symmetry_multiplicity
  _atom_site_fract_x
  _atom_site_fract_y
  _atom_site_fract_z
  _atom_site_occupancy
  Cl  Cl1       1.0  0.12616436183452606  0.3924550414085388  0.563342809677124  1.0000
  Cl  Cl2       1.0  0.9491453170776368  0.3652417063713074  0.5805749893188477  1.0000
  Ge  Ge1       1.0  0.13072605431079865  0.3236360549926758  0.6209935545921326  1.0000
  Ge  Ge2       1.0  0.35794755816459656  0.011644852347671986  0.3450191617012024  1.0000
  I   I1        1.0  0.14059939980506897  0.07515227794647217  0.7423501014709473  1.0000
  Li  Li1       1.0  0.77852863073349  0.2465129941701889  0.4420558512210846  1.0000
  P   P1        1.0  0.43580490350723267  0.26955801248550415  0.7407873868942261  1.0000
  Pb  Pb1       1.0  0.8858004212379456  0.08668234944343567  0.009992621839046478  1.0000
  Sb  Sb1       1.0  0.6292445063591003  0.07594460248947144  0.17487531900405884  1.0000
