data_image0
_chemical_formula_structural       Cl2CoGe3PPbTe
_chemical_formula_sum              "Cl2 Co1 Ge3 P1 Pb1 Te1"
_cell_length_a       5.816745763206144
_cell_length_b       5.733574923834094
_cell_length_c       9.114274978637695
_cell_angle_alpha    91.55691309467035
_cell_angle_beta     89.93035910890698
_cell_angle_gamma    122.2909694784895

_space_group_name_H-M_alt    "P 1"
_space_group_IT_number       1

loop_
  _space_group_symop_operation_xyz
  'x, y, z'

loop_
  _atom_site_type_symbol
  _atom_site_label
  _atom_site_symmetry_multiplicity
  _atom_site_fract_x
  _atom_site_fract_y
  _atom_site_fract_z
  _atom_site_occupancy
  Cl  Cl1       1.0  0.041342344135046005  0.7399036288261414  0.8638079166412354  1.0000
  Cl  Cl2       1.0  0.040698740631341934  0.11148273199796677  0.803638756275177  1.0000
  Co  Co1       1.0  0.4059777557849884  0.5882962942123413  0.471208781003952  1.0000
  Ge  Ge1       1.0  0.5449830293655396  0.18708831071853638  0.7153635621070862  1.0000
  Ge  Ge2       1.0  0.9528644680976868  0.6402050852775574  0.42803144454956055  1.0000
  Ge  Ge3       1.0  0.4382418394088745  0.940568745136261  0.9232849478721621  1.0000
  P   P1        1.0  0.9390929937362671  0.5871145129203796  0.35783523321151733  1.0000
  Pb  Pb1       1.0  0.44397518038749695  0.31477171182632446  0.1366194188594818  1.0000
  Te  Te1       1.0  0.9672907590866089  0.27820834517478943  0.21758317947387695  1.0000
