data_image0
_chemical_formula_structural       HNSSbWY
_chemical_formula_sum              "H1 N1 S1 Sb1 W1 Y1"
_cell_length_a       4.90874920686249
_cell_length_b       4.874345460780074
_cell_length_c       4.837324619293213
_cell_angle_alpha    89.85015681848442
_cell_angle_beta     90.01175538156785
_cell_angle_gamma    89.62810084787581

_space_group_name_H-M_alt    "P 1"
_space_group_IT_number       1

loop_
  _space_group_symop_operation_xyz
  'x, y, z'

loop_
  _atom_site_type_symbol
  _atom_site_label
  _atom_site_symmetry_multiplicity
  _atom_site_fract_x
  _atom_site_fract_y
  _atom_site_fract_z
  _atom_site_occupancy
  H   H1        1.0  0.9271060824394226  0.12997563183307648  0.41411447525024403  1.0000
  N   N1        1.0  0.42486247420310974  0.6368379592895508  0.41269302368164057  1.0000
  S   S1        1.0  0.17726851999759674  0.884097695350647  0.910384476184845  1.0000
  Sb  Sb1       1.0  0.6644396185874939  0.3813583552837372  0.9115116000175476  1.0000
  W   W1        1.0  0.41580432653427124  0.12753549218177795  0.4077466428279877  1.0000
  Y   Y1        1.0  0.9221005439758301  0.6301756501197815  0.41062918305397034  1.0000
