data_image0
_chemical_formula_structural       BBrFGeLaW
_chemical_formula_sum              "B1 Br1 F1 Ge1 La1 W1"
_cell_length_a       4.881108416515062
_cell_length_b       4.8620978622910815
_cell_length_c       4.806399822235107
_cell_angle_alpha    90.80791472108166
_cell_angle_beta     90.40225731837783
_cell_angle_gamma    90.5406379815537

_space_group_name_H-M_alt    "P 1"
_space_group_IT_number       1

loop_
  _space_group_symop_operation_xyz
  'x, y, z'

loop_
  _atom_site_type_symbol
  _atom_site_label
  _atom_site_symmetry_multiplicity
  _atom_site_fract_x
  _atom_site_fract_y
  _atom_site_fract_z
  _atom_site_occupancy
  B   B1        1.0  0.7197513580322266  0.46723535656929016  0.35253220796585083  1.0000
  Br  Br1       1.0  0.371914803981781  0.2621195614337921  0.12777985632419586  1.0000
  F   F1        1.0  0.8567298650741577  0.2771170139312744  0.5697722434997559  1.0000
  Ge  Ge1       1.0  0.8708047270774841  0.7598890662193298  0.1316806823015213  1.0000
  La  La1       1.0  0.359943687915802  0.7616623640060425  0.6300218105316162  1.0000
  W   W1        1.0  0.8738011121749878  0.25335630774497986  0.9978832602500916  1.0000
