data_image0
_chemical_formula_structural       As5V2Zn3
_chemical_formula_sum              "As5 V2 Zn3"
_cell_length_a       5.294498694446969
_cell_length_b       5.413800050836991
_cell_length_c       8.524267196655273
_cell_angle_alpha    113.03631189481678
_cell_angle_beta     89.78178794857719
_cell_angle_gamma    90.16521134011442

_space_group_name_H-M_alt    "P 1"
_space_group_IT_number       1

loop_
  _space_group_symop_operation_xyz
  'x, y, z'

loop_
  _atom_site_type_symbol
  _atom_site_label
  _atom_site_symmetry_multiplicity
  _atom_site_fract_x
  _atom_site_fract_y
  _atom_site_fract_z
  _atom_site_occupancy
  As  As1       1.0  0.013987768441438675  0.4173693060874939  0.15655776858329773  1.0000
  As  As2       1.0  0.6704699993133545  0.7485793828964233  0.34768566489219666  1.0000
  As  As3       1.0  0.014140114188194275  0.29411324858665466  0.5582897663116455  1.0000
  As  As4       1.0  0.5168407559394836  0.2595066428184509  0.281238317489624  1.0000
  As  As5       1.0  0.5171355605125427  0.3721640408039093  0.5239521265029907  1.0000
  V   V1        1.0  0.01665436290204525  0.7767956852912903  0.38579806685447693  1.0000
  V   V2        1.0  0.014062482863664627  0.9430758953094482  0.07487487047910688  1.0000
  Zn  Zn1       1.0  0.5154021382331848  0.7220041751861572  0.8096591830253601  1.0000
  Zn  Zn2       1.0  0.5137361288070679  0.7183520197868347  0.9856709241867065  1.0000
  Zn  Zn3       1.0  0.015809452161192894  0.5827145576477051  0.6700460314750671  1.0000
