data_image0
_chemical_formula_structural       As2PbV3Zn4
_chemical_formula_sum              "As2 Pb1 V3 Zn4"
_cell_length_a       5.580213361294512
_cell_length_b       5.4846394759959
_cell_length_c       9.125628471374512
_cell_angle_alpha    93.96917102537051
_cell_angle_beta     90.15279242384773
_cell_angle_gamma    117.1634937028923

_space_group_name_H-M_alt    "P 1"
_space_group_IT_number       1

loop_
  _space_group_symop_operation_xyz
  'x, y, z'

loop_
  _atom_site_type_symbol
  _atom_site_label
  _atom_site_symmetry_multiplicity
  _atom_site_fract_x
  _atom_site_fract_y
  _atom_site_fract_z
  _atom_site_occupancy
  As  As1       1.0  0.48441946506500244  0.40944933891296387  0.7663812041282654  1.0000
  As  As2       1.0  0.501869797706604  0.057490598410367966  0.7015308737754822  1.0000
  Pb  Pb1       1.0  0.9436482191085815  0.9379156231880189  0.15608692169189453  1.0000
  V   V1        1.0  0.45701152086257935  0.17691023647785187  0.8973263502120972  1.0000
  V   V2        1.0  0.9854949116706848  0.8446937799453735  0.11041916906833649  1.0000
  V   V3        1.0  0.9617364406585693  0.1360509842634201  0.292194128036499  1.0000
  Zn  Zn1       1.0  0.48975837230682373  0.5081684589385986  0.8094840049743652  1.0000
  Zn  Zn2       1.0  0.965472936630249  0.23990765213966372  0.9102205634117126  1.0000
  Zn  Zn3       1.0  0.14552034437656403  0.8791434168815613  0.011690792627632611  1.0000
  Zn  Zn4       1.0  0.4701903462409973  0.16870233416557312  0.17331066727638245  1.0000
