data_image0
_chemical_formula_structural       As6VZn3
_chemical_formula_sum              "As6 V1 Zn3"
_cell_length_a       5.691967486521309
_cell_length_b       5.3890942044811085
_cell_length_c       8.009934425354004
_cell_angle_alpha    90.51092631326459
_cell_angle_beta     90.50464104292296
_cell_angle_gamma    121.74912729302625

_space_group_name_H-M_alt    "P 1"
_space_group_IT_number       1

loop_
  _space_group_symop_operation_xyz
  'x, y, z'

loop_
  _atom_site_type_symbol
  _atom_site_label
  _atom_site_symmetry_multiplicity
  _atom_site_fract_x
  _atom_site_fract_y
  _atom_site_fract_z
  _atom_site_occupancy
  As  As1       1.0  0.6367959380149841  0.04818983003497124  0.344450980424881  1.0000
  As  As2       1.0  0.42541247606277466  0.8305643200874329  0.5255104303359985  1.0000
  As  As3       1.0  0.9404188394546509  0.4018447697162628  0.28655850887298584  1.0000
  As  As4       1.0  0.9079943895339966  0.33228662610054016  0.25681158900260925  1.0000
  As  As5       1.0  0.39536795020103455  0.09164384752511978  0.4307057857513428  1.0000
  As  As6       1.0  0.8708649277687073  0.7753062844276428  0.4318435788154602  1.0000
  V   V1        1.0  0.4296160340309143  0.5151172280311584  0.08698099106550217  1.0000
  Zn  Zn1       1.0  0.8255206346511841  0.6079596877098083  0.8140684962272644  1.0000
  Zn  Zn2       1.0  0.8534647822380066  0.5205051898956299  0.8067800402641296  1.0000
  Zn  Zn3       1.0  0.9004237651824951  0.5617355108261108  0.18438905477523804  1.0000
