data_image0
_chemical_formula_structural       As4KV2Zn3
_chemical_formula_sum              "As4 K1 V2 Zn3"
_cell_length_a       5.5513385461160745
_cell_length_b       5.550629636613863
_cell_length_c       7.296247959136963
_cell_angle_alpha    106.2510199131925
_cell_angle_beta     89.78794542223658
_cell_angle_gamma    91.86533219344167

_space_group_name_H-M_alt    "P 1"
_space_group_IT_number       1

loop_
  _space_group_symop_operation_xyz
  'x, y, z'

loop_
  _atom_site_type_symbol
  _atom_site_label
  _atom_site_symmetry_multiplicity
  _atom_site_fract_x
  _atom_site_fract_y
  _atom_site_fract_z
  _atom_site_occupancy
  As  As1       1.0  0.4171418249607086  0.5317486524581909  0.6606420278549194  1.0000
  As  As2       1.0  0.42048534750938416  0.6846808791160583  0.768917977809906  1.0000
  As  As3       1.0  0.4264041483402252  0.6257637739181519  0.5341308116912842  1.0000
  As  As4       1.0  0.9061532020568848  0.5658605098724365  0.8977960348129271  1.0000
  K   K1        1.0  0.9263505935668945  0.7445467114448547  0.16884864866733548  1.0000
  V   V1        1.0  0.9250569343566895  0.7647995352745056  0.37407732009887695  1.0000
  V   V2        1.0  0.42594975233078003  0.32143351435661316  0.27060776948928833  1.0000
  Zn  Zn1       1.0  0.4233618676662445  0.30717357993125916  0.9538607597351073  1.0000
  Zn  Zn2       1.0  0.9225314259529114  0.404408723115921  0.265467882156372  1.0000
  Zn  Zn3       1.0  0.9216670393943787  0.5076259970664978  0.5146598219871521  1.0000
