data_image0
_chemical_formula_structural       As7KZn2
_chemical_formula_sum              "As7 K1 Zn2"
_cell_length_a       5.351266333927291
_cell_length_b       4.589641664304942
_cell_length_c       5.342687129974365
_cell_angle_alpha    130.14216929739993
_cell_angle_beta     88.91641455992952
_cell_angle_gamma    95.55231364564311

_space_group_name_H-M_alt    "P 1"
_space_group_IT_number       1

loop_
  _space_group_symop_operation_xyz
  'x, y, z'

loop_
  _atom_site_type_symbol
  _atom_site_label
  _atom_site_symmetry_multiplicity
  _atom_site_fract_x
  _atom_site_fract_y
  _atom_site_fract_z
  _atom_site_occupancy
  As  As1       1.0  0.5436930656433105  0.7556425929069519  0.5967239737510682  1.0000
  As  As2       1.0  0.023341944441199303  0.724094569683075  0.09841652959585198  1.0000
  As  As3       1.0  0.6057534217834473  0.539038360118866  0.8569681644439697  1.0000
  As  As4       1.0  0.6015185713768005  0.28807374835014343  0.706521213054657  1.0000
  As  As5       1.0  0.11522672325372696  0.2142370492219925  0.9117308855056763  1.0000
  As  As6       1.0  0.34915271401405334  0.8487489223480225  0.7317616939544679  1.0000
  As  As7       1.0  0.8700422048568726  0.1785575896501541  0.8111889362335205  1.0000
  K   K1        1.0  0.6051029562950134  0.17473983764648438  0.41816627979278564  1.0000
  Zn  Zn1       1.0  0.08521409332752228  0.9202021360397339  0.8885276317596436  1.0000
  Zn  Zn2       1.0  0.6019487977027893  0.17385177314281464  0.5657594799995422  1.0000
