data_image0
_chemical_formula_structural       As5K3Zn2
_chemical_formula_sum              "As5 K3 Zn2"
_cell_length_a       6.186227959312258
_cell_length_b       6.246522095209798
_cell_length_c       7.5604963302612305
_cell_angle_alpha    116.38335660132775
_cell_angle_beta     92.06196607532819
_cell_angle_gamma    105.25906117241504

_space_group_name_H-M_alt    "P 1"
_space_group_IT_number       1

loop_
  _space_group_symop_operation_xyz
  'x, y, z'

loop_
  _atom_site_type_symbol
  _atom_site_label
  _atom_site_symmetry_multiplicity
  _atom_site_fract_x
  _atom_site_fract_y
  _atom_site_fract_z
  _atom_site_occupancy
  As  As1       1.0  0.9406113028526305  0.5063384175300598  0.5853524804115295  1.0000
  As  As2       1.0  0.1951827108860016  0.017537152394652367  0.7433438897132874  1.0000
  As  As3       1.0  0.7069695591926575  0.7293439507484436  0.5669772624969482  1.0000
  As  As4       1.0  0.2293605953454971  0.2866530120372772  0.3043300211429596  1.0000
  As  As5       1.0  0.7140486240386963  0.3949733078479767  0.4837421476840973  1.0000
  K   K1        1.0  0.21565493941307065  0.06469455361366272  0.7746326923370361  1.0000
  K   K2        1.0  0.7116634845733643  0.06295965611934662  0.01055255439132452  1.0000
  K   K3        1.0  0.4408626556396484  0.10373279452323914  0.7267690300941467  1.0000
  Zn  Zn1       1.0  0.9472323060035704  0.761618435382843  0.7021277546882629  1.0000
  Zn  Zn2       1.0  0.9481387138366698  0.650791347026825  0.8061562776565552  1.0000
