data_image0
_chemical_formula_structural       BrOs2Sb2V4
_chemical_formula_sum              "Br1 Os2 Sb2 V4"
_cell_length_a       4.798143775890759
_cell_length_b       6.381876044575748
_cell_length_c       5.725651264190674
_cell_angle_alpha    119.89021613418535
_cell_angle_beta     86.92737502500484
_cell_angle_gamma    90.74319607051406

_space_group_name_H-M_alt    "P 1"
_space_group_IT_number       1

loop_
  _space_group_symop_operation_xyz
  'x, y, z'

loop_
  _atom_site_type_symbol
  _atom_site_label
  _atom_site_symmetry_multiplicity
  _atom_site_fract_x
  _atom_site_fract_y
  _atom_site_fract_z
  _atom_site_occupancy
  Br  Br1       1.0  0.6496040225028992  0.44141918420791626  0.987453818321228  1.0000
  Os  Os1       1.0  0.1240217462182045  0.9695703983306885  0.9982132911682129  1.0000
  Os  Os2       1.0  0.37972089648246765  0.5235878229141235  0.6593539714813232  1.0000
  Sb  Sb1       1.0  0.40242746472358704  0.9924244284629822  0.7732735872268677  1.0000
  Sb  Sb2       1.0  0.13713590800762177  0.4103911221027374  0.1144950911402702  1.0000
  V   V1        1.0  0.8659676909446716  0.9498962759971619  0.7756840586662292  1.0000
  V   V2        1.0  0.14707568287849426  0.43805184960365295  0.49571120738983154  1.0000
  V   V3        1.0  0.12909170985221863  0.9319801926612854  0.47312340140342707  1.0000
  V   V4        1.0  0.6527830362319946  0.5361854434013367  0.1674990355968475  1.0000
