data_image0
_chemical_formula_structural       OSb5V2Yb
_chemical_formula_sum              "O1 Sb5 V2 Yb1"
_cell_length_a       4.551095023419769
_cell_length_b       6.638295582895824
_cell_length_c       5.964696407318115
_cell_angle_alpha    123.26717786078423
_cell_angle_beta     87.09500385704656
_cell_angle_gamma    89.55480399093976

_space_group_name_H-M_alt    "P 1"
_space_group_IT_number       1

loop_
  _space_group_symop_operation_xyz
  'x, y, z'

loop_
  _atom_site_type_symbol
  _atom_site_label
  _atom_site_symmetry_multiplicity
  _atom_site_fract_x
  _atom_site_fract_y
  _atom_site_fract_z
  _atom_site_occupancy
  O   O1        1.0  0.7279953360557556  0.3616786003112793  0.6181573271751404  1.0000
  Sb  Sb1       1.0  0.716637909412384  0.6700395941734314  0.9480672478675842  1.0000
  Sb  Sb2       1.0  0.22585178911685944  0.5386943221092224  0.6595426201820374  1.0000
  Sb  Sb3       1.0  0.7112486958503723  0.025178875774145126  0.321033239364624  1.0000
  Sb  Sb4       1.0  0.9768108129501343  0.8732028007507323  0.15055842697620384  1.0000
  Sb  Sb5       1.0  0.2243712693452835  0.02719885483384132  0.6789829730987549  1.0000
  V   V1        1.0  0.7185565233230591  0.6865248680114746  0.8080152869224548  1.0000
  V   V2        1.0  0.23140211403369904  0.3348582684993744  0.3373526334762573  1.0000
  Yb  Yb1       1.0  0.2303517758846283  0.1483542025089264  0.5351701378822327  1.0000
