data_image0
_chemical_formula_structural       CrFGa3Pb3Tc
_chemical_formula_sum              "Cr1 F1 Ga3 Pb3 Tc1"
_cell_length_a       4.959200855702439
_cell_length_b       3.3269992218305107
_cell_length_c       6.5250444412231445
_cell_angle_alpha    111.24828370850423
_cell_angle_beta     95.92813678124165
_cell_angle_gamma    127.32525829223951

_space_group_name_H-M_alt    "P 1"
_space_group_IT_number       1

loop_
  _space_group_symop_operation_xyz
  'x, y, z'

loop_
  _atom_site_type_symbol
  _atom_site_label
  _atom_site_symmetry_multiplicity
  _atom_site_fract_x
  _atom_site_fract_y
  _atom_site_fract_z
  _atom_site_occupancy
  Cr  Cr1       1.0  0.49036130309104914  0.8449643850326538  0.5192151069641113  1.0000
  F   F1        1.0  0.02572784759104252  0.32083436846733093  0.6948484778404236  1.0000
  Ga  Ga1       1.0  0.7684622406959534  0.6861011385917664  0.9365522265434265  1.0000
  Ga  Ga2       1.0  0.822627604007721  0.3579162061214447  0.8170660138130188  1.0000
  Ga  Ga3       1.0  0.5422528982162476  0.9467968344688416  0.9424080848693848  1.0000
  Pb  Pb1       1.0  0.07029743492603302  0.2562306821346283  0.43889930844306946  1.0000
  Pb  Pb2       1.0  0.30069130659103394  0.56032794713974  0.5917362570762634  1.0000
  Pb  Pb3       1.0  0.6028302907943726  0.8737942576408386  0.6629424691200256  1.0000
  Tc  Tc1       1.0  0.7939400672912598  0.47640180587768555  0.981297492980957  1.0000
