data_image0
_chemical_formula_structural       AsGaPPb5Tc
_chemical_formula_sum              "As1 Ga1 P1 Pb5 Tc1"
_cell_length_a       5.352765749514512
_cell_length_b       4.712528379354654
_cell_length_c       6.472984313964844
_cell_angle_alpha    91.53784409121388
_cell_angle_beta     91.01211886495324
_cell_angle_gamma    128.3785219252317

_space_group_name_H-M_alt    "P 1"
_space_group_IT_number       1

loop_
  _space_group_symop_operation_xyz
  'x, y, z'

loop_
  _atom_site_type_symbol
  _atom_site_label
  _atom_site_symmetry_multiplicity
  _atom_site_fract_x
  _atom_site_fract_y
  _atom_site_fract_z
  _atom_site_occupancy
  As  As1       1.0  0.5045375823974609  0.11602941900491713  0.03547234088182449  1.0000
  Ga  Ga1       1.0  0.10371434688568115  0.06149283796548843  0.4465229511260986  1.0000
  P   P1        1.0  0.18123760819435117  0.45216882228851313  0.9159924387931822  1.0000
  Pb  Pb1       1.0  0.3690859973430633  0.804141879081726  0.6913985013961791  1.0000
  Pb  Pb2       1.0  0.401175707578659  0.7778494358062743  0.975556969642639  1.0000
  Pb  Pb3       1.0  0.09646027535200119  0.2612794041633606  0.48411220312118525  1.0000
  Pb  Pb4       1.0  0.05892359092831612  0.5036598443984985  0.9048410058021544  1.0000
  Pb  Pb5       1.0  0.6844435334205627  0.8226241469383239  0.8504713177680968  1.0000
  Tc  Tc1       1.0  0.5528550148010254  0.6061366796493529  0.9035414457321166  1.0000
