data_image0
_chemical_formula_structural       ClGa3NPb2Tc2
_chemical_formula_sum              "Cl1 Ga3 N1 Pb2 Tc2"
_cell_length_a       4.055151176543189
_cell_length_b       4.614710379615283
_cell_length_c       8.367452621459961
_cell_angle_alpha    90.04375920768054
_cell_angle_beta     85.82509713591223
_cell_angle_gamma    91.12574214466967

_space_group_name_H-M_alt    "P 1"
_space_group_IT_number       1

loop_
  _space_group_symop_operation_xyz
  'x, y, z'

loop_
  _atom_site_type_symbol
  _atom_site_label
  _atom_site_symmetry_multiplicity
  _atom_site_fract_x
  _atom_site_fract_y
  _atom_site_fract_z
  _atom_site_occupancy
  Cl  Cl1       1.0  0.7556453347206116  0.31173768639564514  0.7614473104476929  1.0000
  Ga  Ga1       1.0  0.2690797448158264  0.8821386098861694  0.22451446950435638  1.0000
  Ga  Ga2       1.0  0.22499023377895355  0.5650766491889954  0.7992965579032898  1.0000
  Ga  Ga3       1.0  0.23827128112316132  0.0471862256526947  0.9856417775154114  1.0000
  N   N1        1.0  0.7340624928474426  0.10198090225458145  0.6061413884162903  1.0000
  Pb  Pb1       1.0  0.25020140409469604  0.7593412399291992  0.6011329293251038  1.0000
  Pb  Pb2       1.0  0.7537981271743774  0.9531345367431641  0.5862282514572144  1.0000
  Tc  Tc1       1.0  0.7547760009765625  0.691037118434906  0.584918439388275  1.0000
  Tc  Tc2       1.0  0.757453441619873  0.7068783640861511  0.7644222378730774  1.0000
