data_image0
_chemical_formula_structural       ClCoGa3Pb3Tc
_chemical_formula_sum              "Cl1 Co1 Ga3 Pb3 Tc1"
_cell_length_a       5.393777928632734
_cell_length_b       5.262314337581826
_cell_length_c       6.007089138031006
_cell_angle_alpha    90.3597085521917
_cell_angle_beta     87.66126089696556
_cell_angle_gamma    104.24328184938217

_space_group_name_H-M_alt    "P 1"
_space_group_IT_number       1

loop_
  _space_group_symop_operation_xyz
  'x, y, z'

loop_
  _atom_site_type_symbol
  _atom_site_label
  _atom_site_symmetry_multiplicity
  _atom_site_fract_x
  _atom_site_fract_y
  _atom_site_fract_z
  _atom_site_occupancy
  Cl  Cl1       1.0  0.7143740057945251  0.6913686990737915  0.35239875316619873  1.0000
  Co  Co1       1.0  0.4828582108020782  0.43436163663864136  0.7280704975128174  1.0000
  Ga  Ga1       1.0  0.6606884002685547  0.8564662933349609  0.8128426671028137  1.0000
  Ga  Ga2       1.0  0.1617402732372284  0.8515477776527405  0.815195620059967  1.0000
  Ga  Ga3       1.0  0.9892586469650267  0.40576523542404175  0.5682070255279541  1.0000
  Pb  Pb1       1.0  0.9930010437965392  0.53758305311203  0.6214274764060974  1.0000
  Pb  Pb2       1.0  0.6926847100257874  0.09872067719697952  0.7640430331230164  1.0000
  Pb  Pb3       1.0  0.9345790147781371  0.737468421459198  0.3648361563682556  1.0000
  Tc  Tc1       1.0  0.687829852104187  0.11731104552745819  0.056406211107969284  1.0000
