data_image0
_chemical_formula_structural       CoGa4Pb3Tc
_chemical_formula_sum              "Co1 Ga4 Pb3 Tc1"
_cell_length_a       5.331403423580189
_cell_length_b       5.80153470560493
_cell_length_c       6.625833988189697
_cell_angle_alpha    90.01312127049734
_cell_angle_beta     90.97817083867288
_cell_angle_gamma    110.48686643658124

_space_group_name_H-M_alt    "P 1"
_space_group_IT_number       1

loop_
  _space_group_symop_operation_xyz
  'x, y, z'

loop_
  _atom_site_type_symbol
  _atom_site_label
  _atom_site_symmetry_multiplicity
  _atom_site_fract_x
  _atom_site_fract_y
  _atom_site_fract_z
  _atom_site_occupancy
  Co  Co1       1.0  0.1344529688358307  0.5587150454521179  0.5025608539581299  1.0000
  Ga  Ga1       1.0  0.1510208547115326  0.7627376914024353  0.734157681465149  1.0000
  Ga  Ga2       1.0  0.6450443863868713  0.7902258038520813  0.46833029389381414  1.0000
  Ga  Ga3       1.0  0.13537314534187317  0.6291284561157227  0.18716476857662204  1.0000
  Ga  Ga4       1.0  0.13155756890773773  0.9817051291465759  0.05510244145989419  1.0000
  Pb  Pb1       1.0  0.926780343055725  0.9515146613121033  0.6650274991989136  1.0000
  Pb  Pb2       1.0  0.42688709497451777  0.36391711235046387  0.6105263233184814  1.0000
  Pb  Pb3       1.0  0.6360052824020386  0.8133376240730286  0.48903545737266546  1.0000
  Tc  Tc1       1.0  0.6234707236289978  0.6936978101730347  0.3591837286949158  1.0000
