data_image0
_chemical_formula_structural       Ga3NPb4Tc
_chemical_formula_sum              "Ga3 N1 Pb4 Tc1"
_cell_length_a       4.413363336258165
_cell_length_b       5.751538987626692
_cell_length_c       8.279061317443848
_cell_angle_alpha    69.10163355268578
_cell_angle_beta     76.48121915610984
_cell_angle_gamma    77.77211031408747

_space_group_name_H-M_alt    "P 1"
_space_group_IT_number       1

loop_
  _space_group_symop_operation_xyz
  'x, y, z'

loop_
  _atom_site_type_symbol
  _atom_site_label
  _atom_site_symmetry_multiplicity
  _atom_site_fract_x
  _atom_site_fract_y
  _atom_site_fract_z
  _atom_site_occupancy
  Ga  Ga1       1.0  0.4938650131225586  0.7069758176803589  0.667950451374054  1.0000
  Ga  Ga2       1.0  0.486598402261734  0.5512686967849731  0.4905012845993042  1.0000
  Ga  Ga3       1.0  0.9793487191200256  0.15966546535491943  0.3954288959503174  1.0000
  N   N1        1.0  0.4935644865036011  0.32776427268981934  0.03400179371237755  1.0000
  Pb  Pb1       1.0  0.9828019142150879  0.13897226750850677  0.13636252284049988  1.0000
  Pb  Pb2       1.0  0.995063841342926  0.6496946811676025  0.25355133414268494  1.0000
  Pb  Pb3       1.0  0.9749314188957214  0.26323267817497253  0.2986038029193878  1.0000
  Pb  Pb4       1.0  0.4828202426433563  0.06594045460224152  0.3299400508403778  1.0000
  Tc  Tc1       1.0  0.9654886722564697  0.3575304448604584  0.9605841040611267  1.0000
