data_image0
_chemical_formula_structural       AsCoDy6Ga2MgPt
_chemical_formula_sum              "As1 Co1 Dy6 Ga2 Mg1 Pt1"
_cell_length_a       6.231655759669829
_cell_length_b       7.373965419513642
_cell_length_c       7.800516605377197
_cell_angle_alpha    122.97285376492924
_cell_angle_beta     93.70055155087945
_cell_angle_gamma    91.4431408175639

_space_group_name_H-M_alt    "P 1"
_space_group_IT_number       1

loop_
  _space_group_symop_operation_xyz
  'x, y, z'

loop_
  _atom_site_type_symbol
  _atom_site_label
  _atom_site_symmetry_multiplicity
  _atom_site_fract_x
  _atom_site_fract_y
  _atom_site_fract_z
  _atom_site_occupancy
  As  As1       1.0  0.5915335416793823  0.5419111251831055  0.9604742527008057  1.0000
  Co  Co1       1.0  0.09819915145635606  0.7108566761016846  0.9085390567779541  1.0000
  Dy  Dy1       1.0  0.09876910597085954  0.522953450679779  0.9268264770507812  1.0000
  Dy  Dy2       1.0  0.5987130403518677  0.7108582854270935  0.512755274772644  1.0000
  Dy  Dy3       1.0  0.6008458137512207  0.10534559190273285  0.2596178650856018  1.0000
  Dy  Dy4       1.0  0.09975913912057878  0.441760390996933  0.8972188830375671  1.0000
  Dy  Dy5       1.0  0.1003529652953148  0.23243439197540283  0.2776257395744324  1.0000
  Dy  Dy6       1.0  0.5980063080787659  0.6794368028640747  0.6280839443206787  1.0000
  Ga  Ga1       1.0  0.10278801620006563  0.3905426561832428  0.7602242231369019  1.0000
  Ga  Ga2       1.0  0.5971677899360657  0.7576195001602173  0.5089635848999023  1.0000
  Mg  Mg1       1.0  0.6028734445571899  0.5754052996635437  0.7280335426330566  1.0000
  Pt  Pt1       1.0  0.0969056934118271  0.5093913674354553  0.6427586674690247  1.0000
