data_image0
_chemical_formula_structural       AlAsDy4Ga2GePVZn
_chemical_formula_sum              "Al1 As1 Dy4 Ga2 Ge1 P1 V1 Zn1"
_cell_length_a       5.54381727412263
_cell_length_b       5.899351785982919
_cell_length_c       6.809252738952637
_cell_angle_alpha    121.22698068322437
_cell_angle_beta     100.32054840503007
_cell_angle_gamma    88.34146293721076

_space_group_name_H-M_alt    "P 1"
_space_group_IT_number       1

loop_
  _space_group_symop_operation_xyz
  'x, y, z'

loop_
  _atom_site_type_symbol
  _atom_site_label
  _atom_site_symmetry_multiplicity
  _atom_site_fract_x
  _atom_site_fract_y
  _atom_site_fract_z
  _atom_site_occupancy
  Al  Al1       1.0  0.7510552406311035  0.2779756486415863  0.7301942706108093  1.0000
  As  As1       1.0  0.24770548939704898  0.9705246686935425  0.5480740070343018  1.0000
  Dy  Dy1       1.0  0.2490237653255463  0.6518605351448059  0.17410610616207123  1.0000
  Dy  Dy2       1.0  0.4586105048656464  0.9782058596611023  0.6773815751075745  1.0000
  Dy  Dy3       1.0  0.7370463609695435  0.5585522651672363  0.5330844521522522  1.0000
  Dy  Dy4       1.0  0.22765870392322543  0.5816361308097839  0.5304794311523438  1.0000
  Ga  Ga1       1.0  0.23905825614929202  0.9186915159225464  0.27227434515953064  1.0000
  Ga  Ga2       1.0  0.7310390472412109  0.055409740656614304  0.6459468603134155  1.0000
  Ge  Ge1       1.0  0.7576651573181152  0.7277942895889282  0.0920734107494355  1.0000
  P   P1        1.0  0.2574014365673065  0.8889766931533813  0.9106691479682922  1.0000
  V   V1        1.0  0.9594159722328187  0.26390156149864197  0.7180711030960083  1.0000
  Zn  Zn1       1.0  0.304171621799469  0.2700389623641968  0.08595021069049835  1.0000
