data_image0
_chemical_formula_structural       CoDy8GaIV
_chemical_formula_sum              "Co1 Dy8 Ga1 I1 V1"
_cell_length_a       6.351509685953045
_cell_length_b       6.879765836255968
_cell_length_c       6.530104160308838
_cell_angle_alpha    112.05620061684466
_cell_angle_beta     113.256314588433
_cell_angle_gamma    111.66541195230415

_space_group_name_H-M_alt    "P 1"
_space_group_IT_number       1

loop_
  _space_group_symop_operation_xyz
  'x, y, z'

loop_
  _atom_site_type_symbol
  _atom_site_label
  _atom_site_symmetry_multiplicity
  _atom_site_fract_x
  _atom_site_fract_y
  _atom_site_fract_z
  _atom_site_occupancy
  Co  Co1       1.0  0.16652005910873413  0.6495789885520935  0.5385900139808654  1.0000
  Dy  Dy1       1.0  0.6617066264152527  0.9620662927627563  0.530236542224884  1.0000
  Dy  Dy2       1.0  0.23463258147239688  0.09679806232452393  0.028538350015878674  1.0000
  Dy  Dy3       1.0  0.48868280649185186  0.06228843331336975  0.29206582903862  1.0000
  Dy  Dy4       1.0  0.19708947837352753  0.6904128193855286  0.8699714541435241  1.0000
  Dy  Dy5       1.0  0.15911325812339783  0.51264888048172  0.17262916266918177  1.0000
  Dy  Dy6       1.0  0.25166913866996765  0.5578006505966187  0.5025435090065002  1.0000
  Dy  Dy7       1.0  0.0034443570766597986  0.22312137484550476  0.9288838505744933  1.0000
  Dy  Dy8       1.0  0.756144642829895  0.7208746075630188  0.5724712014198303  1.0000
  Ga  Ga1       1.0  0.15728889405727386  0.5649176239967346  0.17822393774986264  1.0000
  I   I1        1.0  0.509706437587738  0.4816131889820099  0.08917192369699477  1.0000
  V   V1        1.0  0.7488939762115479  0.7186272740364075  0.05619041994214057  1.0000
