data_image0
_chemical_formula_structural       As2CoDy5GeIMnZn
_chemical_formula_sum              "As2 Co1 Dy5 Ge1 I1 Mn1 Zn1"
_cell_length_a       6.234436580364104
_cell_length_b       7.888666488420544
_cell_length_c       7.797726154327393
_cell_angle_alpha    119.16903342379088
_cell_angle_beta     89.22594166498743
_cell_angle_gamma    89.76994810291238

_space_group_name_H-M_alt    "P 1"
_space_group_IT_number       1

loop_
  _space_group_symop_operation_xyz
  'x, y, z'

loop_
  _atom_site_type_symbol
  _atom_site_label
  _atom_site_symmetry_multiplicity
  _atom_site_fract_x
  _atom_site_fract_y
  _atom_site_fract_z
  _atom_site_occupancy
  As  As1       1.0  0.5072566866874695  0.178993821144104  0.7908375859260558  1.0000
  As  As2       1.0  0.007373334839940071  0.25246551632881165  0.08288472145795822  1.0000
  Co  Co1       1.0  0.01710464246571064  0.5944213271141052  0.7182982563972472  1.0000
  Dy  Dy1       1.0  0.010586060583591461  0.8996483683586121  0.058774307370185845  1.0000
  Dy  Dy2       1.0  0.011131721548736095  0.9426814913749695  0.10471797734498982  1.0000
  Dy  Dy3       1.0  0.01630834862589836  0.41016584634780884  0.8096086382865905  1.0000
  Dy  Dy4       1.0  0.5194063782691956  0.7935436964035034  0.5129990577697754  1.0000
  Dy  Dy5       1.0  0.0232571791857481  0.5792516469955444  0.47779190540313715  1.0000
  Ge  Ge1       1.0  0.5081374049186707  0.08963769674301147  0.1318395882844925  1.0000
  I   I1        1.0  0.5088323950767517  0.18549343943595886  0.43430730700492853  1.0000
  Mn  Mn1       1.0  0.5092459917068481  0.9545313119888306  0.1277036964893341  1.0000
  Zn  Zn1       1.0  0.5170908570289612  0.3147977292537689  0.825805366039276  1.0000
