data_image0
_chemical_formula_structural       As2Ga2Mn8
_chemical_formula_sum              "As2 Ga2 Mn8"
_cell_length_a       5.8878560994706675
_cell_length_b       6.661897168772484
_cell_length_c       6.173572063446045
_cell_angle_alpha    108.76345965044182
_cell_angle_beta     106.24334282326579
_cell_angle_gamma    103.68669221014326

_space_group_name_H-M_alt    "P 1"
_space_group_IT_number       1

loop_
  _space_group_symop_operation_xyz
  'x, y, z'

loop_
  _atom_site_type_symbol
  _atom_site_label
  _atom_site_symmetry_multiplicity
  _atom_site_fract_x
  _atom_site_fract_y
  _atom_site_fract_z
  _atom_site_occupancy
  As  As1       1.0  0.9745859503746033  0.6507465243339539  0.33025759458541865  1.0000
  As  As2       1.0  0.7144861221313477  0.5664843320846558  0.20405480265617368  1.0000
  Ga  Ga1       1.0  0.19805248081684113  0.9700469374656677  0.5387894511222839  1.0000
  Ga  Ga2       1.0  0.1868470311164856  0.348584920167923  0.7214400768280028  1.0000
  Mn  Mn1       1.0  0.1838098019361496  0.30755436420440674  0.32903781533241266  1.0000
  Mn  Mn2       1.0  0.21534183621406555  0.7279812693595886  0.7881443500518798  1.0000
  Mn  Mn3       1.0  0.7114838361740112  0.623759388923645  0.4900794625282287  1.0000
  Mn  Mn4       1.0  0.18951573967933655  0.1641281396150589  0.03192107751965523  1.0000
  Mn  Mn5       1.0  0.545337975025177  0.676310122013092  0.7419538497924804  1.0000
  Mn  Mn6       1.0  0.718885600566864  0.49725550413131714  0.7436689138412474  1.0000
  Mn  Mn7       1.0  0.6887214779853821  0.8452131152153015  0.3471987843513488  1.0000
  Mn  Mn8       1.0  0.18491147458553314  0.3286779820919037  0.059726480394601815  1.0000
