data_image0
_chemical_formula_structural       AsGa3Mn8
_chemical_formula_sum              "As1 Ga3 Mn8"
_cell_length_a       5.49054704140016
_cell_length_b       4.202981588143148
_cell_length_c       5.517802715301514
_cell_angle_alpha    53.44249856404127
_cell_angle_beta     65.16229767126156
_cell_angle_gamma    61.31646694489325

_space_group_name_H-M_alt    "P 1"
_space_group_IT_number       1

loop_
  _space_group_symop_operation_xyz
  'x, y, z'

loop_
  _atom_site_type_symbol
  _atom_site_label
  _atom_site_symmetry_multiplicity
  _atom_site_fract_x
  _atom_site_fract_y
  _atom_site_fract_z
  _atom_site_occupancy
  As  As1       1.0  0.8981250524520874  0.2828778028488159  0.07418055832386017  1.0000
  Ga  Ga1       1.0  0.5806068778038025  0.3626704812049865  0.7083608508110046  1.0000
  Ga  Ga2       1.0  0.539207398891449  0.05888973176479339  0.9958853721618652  1.0000
  Ga  Ga3       1.0  0.09381546080112457  0.5342825055122375  0.528540849685669  1.0000
  Mn  Mn1       1.0  0.9386555552482605  0.6503024697303772  0.026322025805711746  1.0000
  Mn  Mn2       1.0  0.9296992421150208  0.31832048296928406  0.3748062252998352  1.0000
  Mn  Mn3       1.0  0.94227135181427  0.15940771996974945  0.5973223447799683  1.0000
  Mn  Mn4       1.0  0.9721377491950989  0.7796292901039122  0.6954807043075562  1.0000
  Mn  Mn5       1.0  0.9419657588005066  0.7163330912590026  0.6818283796310425  1.0000
  Mn  Mn6       1.0  0.4159383475780487  0.1537226140499115  0.1464487463235855  1.0000
  Mn  Mn7       1.0  0.40676501393318176  0.06564249843358994  0.5207599401473999  1.0000
  Mn  Mn8       1.0  0.41850215196609497  0.6046509146690369  0.10972076654434204  1.0000
