data_image0
_chemical_formula_structural       Al4Ni4Zr3
_chemical_formula_sum              "Al4 Ni4 Zr3"
_cell_length_a       5.6422338051825465
_cell_length_b       6.097283270792899
_cell_length_c       6.4995646476745605
_cell_angle_alpha    65.748317469877
_cell_angle_beta     63.06436121174971
_cell_angle_gamma    57.37282679865374

_space_group_name_H-M_alt    "P 1"
_space_group_IT_number       1

loop_
  _space_group_symop_operation_xyz
  'x, y, z'

loop_
  _atom_site_type_symbol
  _atom_site_label
  _atom_site_symmetry_multiplicity
  _atom_site_fract_x
  _atom_site_fract_y
  _atom_site_fract_z
  _atom_site_occupancy
  Al  Al1       1.0  0.26823556423187256  0.23031696677207944  0.13419434428215027  1.0000
  Al  Al2       1.0  0.2673319876194  0.6040068864822388  0.14306065440177917  1.0000
  Al  Al3       1.0  0.5623365044593811  0.21858027577400205  0.5334885120391846  1.0000
  Al  Al4       1.0  0.6472649574279785  0.3552427589893341  0.3335307836532593  1.0000
  Ni  Ni1       1.0  0.4585494101047516  0.09533839672803879  0.874679923057556  1.0000
  Ni  Ni2       1.0  0.8969681262969971  0.3058359622955322  0.4361025691032409  1.0000
  Ni  Ni3       1.0  0.12999512255191803  0.8009070158004761  0.974293828010559  1.0000
  Ni  Ni4       1.0  0.4991925060749054  0.5440516471862793  0.7953097820281981  1.0000
  Zr  Zr1       1.0  0.9013575315475464  0.5910240411758423  0.6361661553382874  1.0000
  Zr  Zr2       1.0  0.5863555073738099  0.85243421792984  0.07669877260923386  1.0000
  Zr  Zr3       1.0  0.14439524710178384  0.8529483675956725  0.8614567518234252  1.0000
