data_image0
_chemical_formula_structural       Al2ClNi5Zr3
_chemical_formula_sum              "Al2 Cl1 Ni5 Zr3"
_cell_length_a       5.758181204248861
_cell_length_b       6.116042239371455
_cell_length_c       6.198994159698486
_cell_angle_alpha    61.50700010476173
_cell_angle_beta     60.06952278834345
_cell_angle_gamma    57.9841087626496

_space_group_name_H-M_alt    "P 1"
_space_group_IT_number       1

loop_
  _space_group_symop_operation_xyz
  'x, y, z'

loop_
  _atom_site_type_symbol
  _atom_site_label
  _atom_site_symmetry_multiplicity
  _atom_site_fract_x
  _atom_site_fract_y
  _atom_site_fract_z
  _atom_site_occupancy
  Al  Al1       1.0  0.9164970517158508  0.32186102867126465  0.4045948088169098  1.0000
  Al  Al2       1.0  0.8845969438552856  0.2937149405479431  0.635704517364502  1.0000
  Cl  Cl1       1.0  0.4732608497142792  0.9863250255584717  0.22449330985546112  1.0000
  Ni  Ni1       1.0  0.09456239640712738  0.49938803911209106  0.4990524649620056  1.0000
  Ni  Ni2       1.0  0.6238568425178528  0.024963505566120148  0.8583123087882996  1.0000
  Ni  Ni3       1.0  0.08539348840713501  0.49536359310150146  0.13602960109710693  1.0000
  Ni  Ni4       1.0  0.366484135389328  0.8084455132484436  0.010072009637951851  1.0000
  Ni  Ni5       1.0  0.7810819149017334  0.8167251944541931  0.13024146854877472  1.0000
  Zr  Zr1       1.0  0.520368218421936  0.29280850291252136  0.4736972153186798  1.0000
  Zr  Zr2       1.0  0.06495081633329391  0.053794439882040024  0.6354144215583801  1.0000
  Zr  Zr3       1.0  0.362975537776947  0.8001958727836609  0.1346300095319748  1.0000
