data_image0
_chemical_formula_structural       Al9NiZr
_chemical_formula_sum              "Al9 Ni1 Zr1"
_cell_length_a       5.244660324631718
_cell_length_b       5.610957832927532
_cell_length_c       5.043597221374512
_cell_angle_alpha    60.37104645615762
_cell_angle_beta     57.3357835456461
_cell_angle_gamma    56.71800907870653

_space_group_name_H-M_alt    "P 1"
_space_group_IT_number       1

loop_
  _space_group_symop_operation_xyz
  'x, y, z'

loop_
  _atom_site_type_symbol
  _atom_site_label
  _atom_site_symmetry_multiplicity
  _atom_site_fract_x
  _atom_site_fract_y
  _atom_site_fract_z
  _atom_site_occupancy
  Al  Al1       1.0  0.8430058360099792  0.4092838764190674  0.5618468523025513  1.0000
  Al  Al2       1.0  0.17353853583335876  0.38436925411224365  0.48593536019325256  1.0000
  Al  Al3       1.0  0.8465068340301514  0.7521725296974182  0.12899728119373322  1.0000
  Al  Al4       1.0  0.5009979605674744  0.3993193805217743  0.12699125707149506  1.0000
  Al  Al5       1.0  0.1597346067428589  0.46376028656959534  0.10232579708099365  1.0000
  Al  Al6       1.0  0.840704619884491  0.7368142604827881  0.07047227770090103  1.0000
  Al  Al7       1.0  0.5900176167488098  0.04507153481245041  0.15428677201271057  1.0000
  Al  Al8       1.0  0.5595240592956543  0.9952108860015869  0.6312903165817261  1.0000
  Al  Al9       1.0  0.20781125128269196  0.8773355484008789  0.694593071937561  1.0000
  Ni  Ni1       1.0  0.5727218389511108  0.5577442049980164  0.12994232773780823  1.0000
  Zr  Zr1       1.0  0.4720233380794525  0.8635926246643066  0.9751356840133667  1.0000
