data_image0
_chemical_formula_structural       Al8NiZr2
_chemical_formula_sum              "Al8 Ni1 Zr2"
_cell_length_a       5.140839209292257
_cell_length_b       5.7161230863028045
_cell_length_c       4.7453460693359375
_cell_angle_alpha    55.4059586717145
_cell_angle_beta     53.59776467290368
_cell_angle_gamma    58.08645479702583

_space_group_name_H-M_alt    "P 1"
_space_group_IT_number       1

loop_
  _space_group_symop_operation_xyz
  'x, y, z'

loop_
  _atom_site_type_symbol
  _atom_site_label
  _atom_site_symmetry_multiplicity
  _atom_site_fract_x
  _atom_site_fract_y
  _atom_site_fract_z
  _atom_site_occupancy
  Al  Al1       1.0  0.22789792716503143  0.7347549200057983  0.7223688960075378  1.0000
  Al  Al2       1.0  0.5284419655799866  0.8876246809959412  0.6557405591011047  1.0000
  Al  Al3       1.0  0.8985802531242371  0.681784451007843  0.942971408367157  1.0000
  Al  Al4       1.0  0.8723453283309937  0.7083322405815125  0.9528542757034302  1.0000
  Al  Al5       1.0  0.3844534456729889  0.9593615531921387  0.3932209312915802  1.0000
  Al  Al6       1.0  0.5660491585731506  0.09246338158845901  0.855363130569458  1.0000
  Al  Al7       1.0  0.9044508934020996  0.10110418498516083  0.09942757338285446  1.0000
  Al  Al8       1.0  0.8668714165687561  0.1712450087070465  0.3788813054561615  1.0000
  Ni  Ni1       1.0  0.9329259395599365  0.4690954387187958  0.30340075492858887  1.0000
  Zr  Zr1       1.0  0.171622633934021  0.13014285266399384  0.43447914719581604  1.0000
  Zr  Zr2       1.0  0.5508770942687988  0.5638580918312073  0.15632882714271545  1.0000
