data_image0
_chemical_formula_structural       Al4Ni5Zr2
_chemical_formula_sum              "Al4 Ni5 Zr2"
_cell_length_a       5.486459895201134
_cell_length_b       5.766332922642806
_cell_length_c       6.378860950469971
_cell_angle_alpha    64.90013750920248
_cell_angle_beta     63.32284055885579
_cell_angle_gamma    62.40615037128635

_space_group_name_H-M_alt    "P 1"
_space_group_IT_number       1

loop_
  _space_group_symop_operation_xyz
  'x, y, z'

loop_
  _atom_site_type_symbol
  _atom_site_label
  _atom_site_symmetry_multiplicity
  _atom_site_fract_x
  _atom_site_fract_y
  _atom_site_fract_z
  _atom_site_occupancy
  Al  Al1       1.0  0.40491461753845215  0.003215603530406952  0.7679579257965088  1.0000
  Al  Al2       1.0  0.9296604990959167  0.20494796335697174  0.6744693517684937  1.0000
  Al  Al3       1.0  0.0464642271399498  0.9886058568954468  0.710621178150177  1.0000
  Al  Al4       1.0  0.036849163472652435  0.4809597432613373  0.8975638151168824  1.0000
  Ni  Ni1       1.0  0.8313098549842834  0.48662471771240234  0.48418679833412176  1.0000
  Ni  Ni2       1.0  0.9004448652267456  0.7330403923988342  0.16947999596595764  1.0000
  Ni  Ni3       1.0  0.3817685842514038  0.9985320568084717  0.16039757430553436  1.0000
  Ni  Ni4       1.0  0.4108085632324219  0.7225868701934814  0.6952398419380188  1.0000
  Ni  Ni5       1.0  0.4136028289794922  0.4909663796424866  0.7017364501953125  1.0000
  Zr  Zr1       1.0  0.23464076220989227  0.48119106888771057  0.3866400718688965  1.0000
  Zr  Zr2       1.0  0.7286486029624939  0.09256014972925186  0.39206933975219727  1.0000
