data_image0
_chemical_formula_structural       Al3Ni4Zr4
_chemical_formula_sum              "Al3 Ni4 Zr4"
_cell_length_a       5.844638409328462
_cell_length_b       6.136905768862009
_cell_length_c       6.014850616455078
_cell_angle_alpha    61.21786298664562
_cell_angle_beta     60.67671121278565
_cell_angle_gamma    59.54922763989906

_space_group_name_H-M_alt    "P 1"
_space_group_IT_number       1

loop_
  _space_group_symop_operation_xyz
  'x, y, z'

loop_
  _atom_site_type_symbol
  _atom_site_label
  _atom_site_symmetry_multiplicity
  _atom_site_fract_x
  _atom_site_fract_y
  _atom_site_fract_z
  _atom_site_occupancy
  Al  Al1       1.0  0.4231109619140625  0.05764857307076454  0.22849543392658234  1.0000
  Al  Al2       1.0  0.9377320408821106  0.5543649196624756  0.5232307314872742  1.0000
  Al  Al3       1.0  0.7307417988777161  0.14782334864139557  0.9030258059501648  1.0000
  Ni  Ni1       1.0  0.9144240617752075  0.058430224657058716  0.4344824254512787  1.0000
  Ni  Ni2       1.0  0.1763591468334198  0.0380384661257267  0.4257936179637909  1.0000
  Ni  Ni3       1.0  0.15132491290569305  0.7545706033706665  0.4269520938396454  1.0000
  Ni  Ni4       1.0  0.15436647832393646  0.7849456071853638  0.2207527756690979  1.0000
  Zr  Zr1       1.0  0.42623865604400635  0.5447158217430115  0.7298825979232788  1.0000
  Zr  Zr2       1.0  0.7372174859046936  0.7928985357284546  0.221676766872406  1.0000
  Zr  Zr3       1.0  0.9250357151031494  0.5524810552597046  0.7361234426498413  1.0000
  Zr  Zr4       1.0  0.41792383790016174  0.5539610981941223  0.9552707672119142  1.0000
