data_image0
_chemical_formula_structural       CCo3GeHISm
_chemical_formula_sum              "C1 Co3 Ge1 H1 I1 Sm1"
_cell_length_a       5.546440575595484
_cell_length_b       5.699161562473494
_cell_length_c       7.207378387451172
_cell_angle_alpha    117.47922367143346
_cell_angle_beta     113.8508719281597
_cell_angle_gamma    89.85802503051862

_space_group_name_H-M_alt    "P 1"
_space_group_IT_number       1

loop_
  _space_group_symop_operation_xyz
  'x, y, z'

loop_
  _atom_site_type_symbol
  _atom_site_label
  _atom_site_symmetry_multiplicity
  _atom_site_fract_x
  _atom_site_fract_y
  _atom_site_fract_z
  _atom_site_occupancy
  C   C1        1.0  0.2598419189453125  0.6890610456466675  0.9362561106681824  1.0000
  Co  Co1       1.0  0.8518362641334534  0.7535405158996582  0.6807096600532532  1.0000
  Co  Co2       1.0  0.6027428507804871  0.6934794187545776  0.6392444968223572  1.0000
  Co  Co3       1.0  0.7499301433563232  0.18065869808197021  0.7287813425064087  1.0000
  Ge  Ge1       1.0  0.26579102873802185  0.8401110172271729  0.10335429757833481  1.0000
  H   H1        1.0  0.2736658751964569  0.8426799178123475  0.1033787801861763  1.0000
  I   I1        1.0  0.43429332971572876  0.8477264046669007  0.5967407822608948  1.0000
  Sm  Sm1       1.0  0.055689334869384766  0.2614838778972626  0.06665607541799545  1.0000
