data_image0
_chemical_formula_structural       BCuGe2Ho7Rh
_chemical_formula_sum              "B1 Cu1 Ge2 Ho7 Rh1"
_cell_length_a       4.296467848320523
_cell_length_b       6.451955538376829
_cell_length_c       10.711734771728516
_cell_angle_alpha    92.42126760822113
_cell_angle_beta     91.49062327272142
_cell_angle_gamma    88.69900378759374

_space_group_name_H-M_alt    "P 1"
_space_group_IT_number       1

loop_
  _space_group_symop_operation_xyz
  'x, y, z'

loop_
  _atom_site_type_symbol
  _atom_site_label
  _atom_site_symmetry_multiplicity
  _atom_site_fract_x
  _atom_site_fract_y
  _atom_site_fract_z
  _atom_site_occupancy
  B   B1        1.0  0.23608183860778809  0.7053630948066711  0.5853344202041626  1.0000
  Cu  Cu1       1.0  0.7380883693695068  0.9966760277748108  0.4311770498752594  1.0000
  Ge  Ge1       1.0  0.2407517284154892  0.5350926518440247  0.9772120118141174  1.0000
  Ge  Ge2       1.0  0.2349303513765335  0.02929624170064926  0.15323947370052338  1.0000
  Ho  Ho1       1.0  0.2392723709344864  0.04264895245432854  0.9613091945648193  1.0000
  Ho  Ho2       1.0  0.7363577485084534  0.5376143455505371  0.4135335385799408  1.0000
  Ho  Ho3       1.0  0.23667557537555695  0.5303864479064941  0.11858286708593369  1.0000
  Ho  Ho4       1.0  0.7444354891777039  0.2287718653678894  0.9800267219543457  1.0000
  Ho  Ho5       1.0  0.7321139574050903  0.2559240460395813  0.41898471117019653  1.0000
  Ho  Ho6       1.0  0.7357649803161621  0.07989495992660522  0.700225293636322  1.0000
  Ho  Ho7       1.0  0.7369600534439087  0.6836955547332764  0.22048437595367432  1.0000
  Rh  Rh1       1.0  0.24065376818180084  0.032322533428668976  0.9466347098350525  1.0000
