data_image0
_chemical_formula_structural       Ge2HHo8Tb
_chemical_formula_sum              "Ge2 H1 Ho8 Tb1"
_cell_length_a       4.503626946526954
_cell_length_b       5.599464918074914
_cell_length_c       9.906856536865234
_cell_angle_alpha    104.12316873863499
_cell_angle_beta     89.9524086657616
_cell_angle_gamma    89.637209906395

_space_group_name_H-M_alt    "P 1"
_space_group_IT_number       1

loop_
  _space_group_symop_operation_xyz
  'x, y, z'

loop_
  _atom_site_type_symbol
  _atom_site_label
  _atom_site_symmetry_multiplicity
  _atom_site_fract_x
  _atom_site_fract_y
  _atom_site_fract_z
  _atom_site_occupancy
  Ge  Ge1       1.0  0.14973485469818115  0.2518601417541504  0.06332635134458542  1.0000
  Ge  Ge2       1.0  0.15619222819805145  0.6346718072891235  0.3910847008228302  1.0000
  H   H1        1.0  0.6623857021331787  0.7365356087684631  0.21600116789340973  1.0000
  Ho  Ho1       1.0  0.6514171361923218  0.5120384693145752  0.5181209444999695  1.0000
  Ho  Ho2       1.0  0.15527082979679108  0.1535874903202057  0.37039580941200256  1.0000
  Ho  Ho3       1.0  0.6526440978050232  0.2772704064846039  0.7184607982635498  1.0000
  Ho  Ho4       1.0  0.15578939020633698  0.7635761499404907  0.7547188401222229  1.0000
  Ho  Ho5       1.0  0.6414072513580322  0.8318887948989868  0.6455835103988647  1.0000
  Ho  Ho6       1.0  0.1507876068353653  0.9982073903083801  0.05989275127649307  1.0000
  Ho  Ho7       1.0  0.6497272849082947  0.3229384124279022  0.69854336977005  1.0000
  Ho  Ho8       1.0  0.6657092571258545  0.8091665506362915  0.21159857511520386  1.0000
  Tb  Tb1       1.0  0.6545973420143127  0.7618217468261719  0.39050430059432983  1.0000
