data_image0
_chemical_formula_structural       Ge2HHo8Rh
_chemical_formula_sum              "Ge2 H1 Ho8 Rh1"
_cell_length_a       4.4176961311421135
_cell_length_b       7.714363307372415
_cell_length_c       8.585532188415527
_cell_angle_alpha    105.73439929455394
_cell_angle_beta     91.47150578589958
_cell_angle_gamma    90.20583927051266

_space_group_name_H-M_alt    "P 1"
_space_group_IT_number       1

loop_
  _space_group_symop_operation_xyz
  'x, y, z'

loop_
  _atom_site_type_symbol
  _atom_site_label
  _atom_site_symmetry_multiplicity
  _atom_site_fract_x
  _atom_site_fract_y
  _atom_site_fract_z
  _atom_site_occupancy
  Ge  Ge1       1.0  0.3480500280857086  0.016746243461966515  0.9190356135368347  1.0000
  Ge  Ge2       1.0  0.8530953526496887  0.7329840660095215  0.7480400800704956  1.0000
  H   H1        1.0  0.8412428498268127  0.02452269196510315  0.7907662987709045  1.0000
  Ho  Ho1       1.0  0.34384024143218994  0.3460541367530823  0.9093339443206787  1.0000
  Ho  Ho2       1.0  0.34996551275253296  0.7228075861930847  0.6873075962066652  1.0000
  Ho  Ho3       1.0  0.8415482640266418  0.5332640409469604  0.13759741187095645  1.0000
  Ho  Ho4       1.0  0.8516327738761902  0.4001305103302002  0.9007909893989564  1.0000
  Ho  Ho5       1.0  0.8467797636985779  0.345065176486969  0.9140651226043701  1.0000
  Ho  Ho6       1.0  0.843814492225647  0.7735171318054199  0.47350403666496277  1.0000
  Ho  Ho7       1.0  0.3446499705314636  0.3148024082183838  0.3387531042098999  1.0000
  Ho  Ho8       1.0  0.8532278537750244  0.22041574120521545  0.9869197607040405  1.0000
  Rh  Rh1       1.0  0.358821839094162  0.42184653878211975  0.1386759877204895  1.0000
