data_image0
_chemical_formula_structural       Ge2Ho4Rh6
_chemical_formula_sum              "Ge2 Ho4 Rh6"
_cell_length_a       5.185832318983751
_cell_length_b       6.290306331916424
_cell_length_c       7.126293659210205
_cell_angle_alpha    112.03266827879388
_cell_angle_beta     110.69042262604154
_cell_angle_gamma    92.35322335908113

_space_group_name_H-M_alt    "P 1"
_space_group_IT_number       1

loop_
  _space_group_symop_operation_xyz
  'x, y, z'

loop_
  _atom_site_type_symbol
  _atom_site_label
  _atom_site_symmetry_multiplicity
  _atom_site_fract_x
  _atom_site_fract_y
  _atom_site_fract_z
  _atom_site_occupancy
  Ge  Ge1       1.0  0.2950645089149475  0.9779855012893677  0.5196879506111145  1.0000
  Ge  Ge2       1.0  0.3916425108909607  0.13824453949928284  0.03704192861914635  1.0000
  Ho  Ho1       1.0  0.31948378682136536  0.5343746542930603  0.553318977355957  1.0000
  Ho  Ho2       1.0  0.8169071674346924  0.06159041449427605  0.5195962190628052  1.0000
  Ho  Ho3       1.0  0.6158528923988342  0.8051968216896057  0.14551253616809845  1.0000
  Ho  Ho4       1.0  0.07797302305698395  0.841221034526825  0.7575554251670837  1.0000
  Rh  Rh1       1.0  0.8331933617591858  0.0683816522359848  0.37539562582969666  1.0000
  Rh  Rh2       1.0  0.33208131790161133  0.045794159173965454  0.402743399143219  1.0000
  Rh  Rh3       1.0  0.8398940563201904  0.5498579740524292  0.6497747898101807  1.0000
  Rh  Rh4       1.0  0.3214672803878784  0.4781999886035919  0.6882570385932922  1.0000
  Rh  Rh5       1.0  0.8033305406570435  0.501122772693634  0.4967975616455078  1.0000
  Rh  Rh6       1.0  0.8407280445098877  0.5702170729637146  0.3385966718196869  1.0000
