data_image0
_chemical_formula_structural       GeHHo8PTb
_chemical_formula_sum              "Ge1 H1 Ho8 P1 Tb1"
_cell_length_a       4.805775389095868
_cell_length_b       7.0291266170012525
_cell_length_c       8.186017036437988
_cell_angle_alpha    111.86761691422271
_cell_angle_beta     97.95493131938167
_cell_angle_gamma    90.3851811738663

_space_group_name_H-M_alt    "P 1"
_space_group_IT_number       1

loop_
  _space_group_symop_operation_xyz
  'x, y, z'

loop_
  _atom_site_type_symbol
  _atom_site_label
  _atom_site_symmetry_multiplicity
  _atom_site_fract_x
  _atom_site_fract_y
  _atom_site_fract_z
  _atom_site_occupancy
  Ge  Ge1       1.0  0.5501776337623596  0.6228310465812683  0.6387649774551392  1.0000
  H   H1        1.0  0.04871485754847528  0.8022773265838624  0.5523462295532227  1.0000
  Ho  Ho1       1.0  0.5566089153289795  0.516204297542572  0.4078029692173004  1.0000
  Ho  Ho2       1.0  0.5254082083702087  0.16002511978149414  0.0807039737701416  1.0000
  Ho  Ho3       1.0  0.5515268445014954  0.5727306604385376  0.34030014276504517  1.0000
  Ho  Ho4       1.0  0.05855818837881089  0.3067953884601593  0.08754095435142518  1.0000
  Ho  Ho5       1.0  0.04649288207292557  0.69780033826828  0.43420135974884033  1.0000
  Ho  Ho6       1.0  0.528933584690094  0.7114014029502869  0.9255235195159912  1.0000
  Ho  Ho7       1.0  0.5570181608200073  0.06138923019170762  0.3469737470149994  1.0000
  Ho  Ho8       1.0  0.05481043830513954  0.12226626276969911  0.13459047675132751  1.0000
  P   P1        1.0  0.05221785232424736  0.06393484771251678  0.8569617867469788  1.0000
  Tb  Tb1       1.0  0.05099340155720711  0.6146743297576904  0.5448930263519287  1.0000
