data_image0
_chemical_formula_structural       Ge4HoRh7
_chemical_formula_sum              "Ge4 Ho1 Rh7"
_cell_length_a       4.377650483281468
_cell_length_b       7.6163900968366915
_cell_length_c       8.03861141204834
_cell_angle_alpha    119.95230830153646
_cell_angle_beta     94.54351902050693
_cell_angle_gamma    87.0905813869935

_space_group_name_H-M_alt    "P 1"
_space_group_IT_number       1

loop_
  _space_group_symop_operation_xyz
  'x, y, z'

loop_
  _atom_site_type_symbol
  _atom_site_label
  _atom_site_symmetry_multiplicity
  _atom_site_fract_x
  _atom_site_fract_y
  _atom_site_fract_z
  _atom_site_occupancy
  Ge  Ge1       1.0  0.8890552520751953  0.599674642086029  0.10109849274158472  1.0000
  Ge  Ge2       1.0  0.4335263967514038  0.7158195972442626  0.37605938315391535  1.0000
  Ge  Ge3       1.0  0.4022524356842041  0.6157065033912659  0.4019096493721008  1.0000
  Ge  Ge4       1.0  0.4280574917793274  0.6843174695968627  0.7255938053131104  1.0000
  Ho  Ho1       1.0  0.9277490377426147  0.293504923582077  0.46847477555274963  1.0000
  Rh  Rh1       1.0  0.8928296566009523  0.46566119790077204  0.46096426248550415  1.0000
  Rh  Rh2       1.0  0.431069940328598  0.9371792078018187  0.1514863073825835  1.0000
  Rh  Rh3       1.0  0.4255070984363556  0.856235384941101  0.619149088859558  1.0000
  Rh  Rh4       1.0  0.9155842065811156  0.5415355563163757  0.6556681990623474  1.0000
  Rh  Rh5       1.0  0.4195267856121063  0.7556562423706054  0.8822385668754578  1.0000
  Rh  Rh6       1.0  0.9024634957313538  0.0222009252756834  0.9326003789901733  1.0000
  Rh  Rh7       1.0  0.9217334389686587  0.7607279419898986  0.5103491544723511  1.0000
