data_image0
_chemical_formula_structural       MoRe6V
_chemical_formula_sum              "Mo1 Re6 V1"
_cell_length_a       6.007254439374421
_cell_length_b       5.691224741095732
_cell_length_c       6.04689884185791
_cell_angle_alpha    59.31257604317988
_cell_angle_beta     61.78141502115463
_cell_angle_gamma    58.11549923068096

_space_group_name_H-M_alt    "P 1"
_space_group_IT_number       1

loop_
  _space_group_symop_operation_xyz
  'x, y, z'

loop_
  _atom_site_type_symbol
  _atom_site_label
  _atom_site_symmetry_multiplicity
  _atom_site_fract_x
  _atom_site_fract_y
  _atom_site_fract_z
  _atom_site_occupancy
  Mo  Mo1       1.0  0.1446492224931717  0.359463632106781  0.7908138036727905  1.0000
  Re  Re1       1.0  0.3569178879261017  0.3780292570590973  0.6157666444778442  1.0000
  Re  Re2       1.0  0.3474859595298767  0.8676809668540955  0.12118558585643767  1.0000
  Re  Re3       1.0  0.8468835949897766  0.8765769004821777  0.09961047023534775  1.0000
  Re  Re4       1.0  0.3463360071182251  0.37776070833206177  0.12051609903573988  1.0000
  Re  Re5       1.0  0.7861002087593079  0.8662396669387817  0.950791835784912  1.0000
  Re  Re6       1.0  0.821720540523529  0.3814164400100708  0.6073995232582091  1.0000
  V   V1        1.0  0.13369858264923096  0.8678869009017944  0.9432338476181029  1.0000
