data_image0
_chemical_formula_structural       GeHgINiRe3U
_chemical_formula_sum              "Ge1 Hg1 I1 Ni1 Re3 U1"
_cell_length_a       4.4932937205551955
_cell_length_b       6.614200395470967
_cell_length_c       7.085103988647461
_cell_angle_alpha    120.92610548020977
_cell_angle_beta     92.20826612502442
_cell_angle_gamma    88.75242727867156

_space_group_name_H-M_alt    "P 1"
_space_group_IT_number       1

loop_
  _space_group_symop_operation_xyz
  'x, y, z'

loop_
  _atom_site_type_symbol
  _atom_site_label
  _atom_site_symmetry_multiplicity
  _atom_site_fract_x
  _atom_site_fract_y
  _atom_site_fract_z
  _atom_site_occupancy
  Ge  Ge1       1.0  0.2886638045310974  0.5252854228019714  0.28336939215660095  1.0000
  Hg  Hg1       1.0  0.787772536277771  0.968722403049469  0.26857721805572504  1.0000
  I   I1        1.0  0.2881947159767151  0.04676157608628273  0.7807378768920898  1.0000
  Ni  Ni1       1.0  0.7936848998069763  0.032507315278053284  0.3280525505542755  1.0000
  Re  Re1       1.0  0.7844749689102173  0.2677086293697357  0.2720222473144531  1.0000
  Re  Re2       1.0  0.28235307335853577  0.7569836378097534  0.9940723776817322  1.0000
  Re  Re3       1.0  0.7881438732147217  0.7508688569068909  0.39446771144866943  1.0000
  U   U1        1.0  0.2851332128047943  0.48936259746551514  0.2761188447475433  1.0000
