data_image0
_chemical_formula_structural       DyGe6I2NiTb
_chemical_formula_sum              "Dy1 Ge6 I2 Ni1 Tb1"
_cell_length_a       5.213352828411636
_cell_length_b       6.573412143774576
_cell_length_c       7.762862205505371
_cell_angle_alpha    89.09335919800151
_cell_angle_beta     89.53226340347545
_cell_angle_gamma    111.44470136152977

_space_group_name_H-M_alt    "P 1"
_space_group_IT_number       1

loop_
  _space_group_symop_operation_xyz
  'x, y, z'

loop_
  _atom_site_type_symbol
  _atom_site_label
  _atom_site_symmetry_multiplicity
  _atom_site_fract_x
  _atom_site_fract_y
  _atom_site_fract_z
  _atom_site_occupancy
  Dy  Dy1       1.0  0.6673542261123657  0.8447003364562988  0.3475746810436249  1.0000
  Ge  Ge1       1.0  0.8782415390014648  0.6178950667381287  0.6460903286933899  1.0000
  Ge  Ge2       1.0  0.16554170846939087  0.4812416434288025  0.7603694796562195  1.0000
  Ge  Ge3       1.0  0.9266873598098755  0.8662338256835938  0.784864068031311  1.0000
  Ge  Ge4       1.0  0.41706863045692444  0.9539617300033569  0.0593104287981987  1.0000
  Ge  Ge5       1.0  0.8324214816093445  0.20371228456497192  0.9176802635192871  1.0000
  Ge  Ge6       1.0  0.3444008529186249  0.8077089190483093  0.24212345480918884  1.0000
  I   I1        1.0  0.6230518817901611  0.9967138171195984  0.7416394948959351  1.0000
  I   I2        1.0  0.5012259483337402  0.36165374517440796  0.9254152178764343  1.0000
  Ni  Ni1       1.0  0.7016038298606873  0.12721900641918182  0.4181891679763794  1.0000
  Tb  Tb1       1.0  0.16902077198028564  0.37947171926498413  0.9763888120651245  1.0000
