data_image0
_chemical_formula_structural       BrEuGe4INi2Sc2
_chemical_formula_sum              "Br1 Eu1 Ge4 I1 Ni2 Sc2"
_cell_length_a       6.241750527086603
_cell_length_b       6.654942775608951
_cell_length_c       7.243314743041992
_cell_angle_alpha    66.97870598610535
_cell_angle_beta     67.992352946232
_cell_angle_gamma    64.41542629612817

_space_group_name_H-M_alt    "P 1"
_space_group_IT_number       1

loop_
  _space_group_symop_operation_xyz
  'x, y, z'

loop_
  _atom_site_type_symbol
  _atom_site_label
  _atom_site_symmetry_multiplicity
  _atom_site_fract_x
  _atom_site_fract_y
  _atom_site_fract_z
  _atom_site_occupancy
  Br  Br1       1.0  0.11074096709489822  0.07491529732942581  0.9702146649360657  1.0000
  Eu  Eu1       1.0  0.04627271741628647  0.7850711345672607  0.19016951322555542  1.0000
  Ge  Ge1       1.0  0.17100366950035095  0.07847421616315842  0.31705442070961  1.0000
  Ge  Ge2       1.0  0.44244781136512756  0.8932827115058899  0.12414541095495224  1.0000
  Ge  Ge3       1.0  0.2174825221300125  0.19959330558776855  0.17469020187854767  1.0000
  Ge  Ge4       1.0  0.1326848864555359  0.6716212034225464  0.3958314061164856  1.0000
  I   I1        1.0  0.14602848887443542  0.2875105142593384  0.5173043608665466  1.0000
  Ni  Ni1       1.0  0.6608959436416626  0.1675313413143158  0.3045438826084137  1.0000
  Ni  Ni2       1.0  0.6934934854507446  0.597825825214386  0.9134939312934875  1.0000
  Sc  Sc1       1.0  0.6109886169433594  0.14688028395175934  0.007676329929381609  1.0000
  Sc  Sc2       1.0  0.04933374375104904  0.011384310200810432  0.2099362015724182  1.0000
