data_image0
_chemical_formula_structural       Ce2Ge4Ni2PbTiZn
_chemical_formula_sum              "Ce2 Ge4 Ni2 Pb1 Ti1 Zn1"
_cell_length_a       5.576055961602064
_cell_length_b       5.298609661902939
_cell_length_c       8.410618782043457
_cell_angle_alpha    89.71187739292527
_cell_angle_beta     90.72953487003731
_cell_angle_gamma    121.60822953006185

_space_group_name_H-M_alt    "P 1"
_space_group_IT_number       1

loop_
  _space_group_symop_operation_xyz
  'x, y, z'

loop_
  _atom_site_type_symbol
  _atom_site_label
  _atom_site_symmetry_multiplicity
  _atom_site_fract_x
  _atom_site_fract_y
  _atom_site_fract_z
  _atom_site_occupancy
  Ce  Ce1       1.0  0.2143106162548065  0.4359860420227051  0.9741030335426331  1.0000
  Ce  Ce2       1.0  0.15447813272476196  0.49169111251831055  0.3273385167121887  1.0000
  Ge  Ge1       1.0  0.3608487844467163  0.7795920968055725  0.3449290990829468  1.0000
  Ge  Ge2       1.0  0.20436966419219968  0.8449802398681641  0.29883816838264465  1.0000
  Ge  Ge3       1.0  0.7095504403114319  0.7126325368881226  0.1619630753993988  1.0000
  Ge  Ge4       1.0  0.7129295468330383  0.559333860874176  0.10131233930587769  1.0000
  Ni  Ni1       1.0  0.19851218163967133  0.37641996145248413  0.812820553779602  1.0000
  Ni  Ni2       1.0  0.2014579027891159  0.96684330701828  0.05584896728396416  1.0000
  Pb  Pb1       1.0  0.1710578054189682  0.7326684594154358  0.5004677176475525  1.0000
  Ti  Ti1       1.0  0.7021836638450623  0.6643818020820618  0.34183812141418457  1.0000
  Zn  Zn1       1.0  0.6203316450119019  0.1287030428647995  0.5019584894180298  1.0000
