data_image0
_chemical_formula_structural       Ce6Ni5
_chemical_formula_sum              "Ce6 Ni5"
_cell_length_a       5.035556894324483
_cell_length_b       5.227103504722408
_cell_length_c       5.383875846862793
_cell_angle_alpha    143.56814156040113
_cell_angle_beta     86.28042377639584
_cell_angle_gamma    81.57678876055404

_space_group_name_H-M_alt    "P 1"
_space_group_IT_number       1

loop_
  _space_group_symop_operation_xyz
  'x, y, z'

loop_
  _atom_site_type_symbol
  _atom_site_label
  _atom_site_symmetry_multiplicity
  _atom_site_fract_x
  _atom_site_fract_y
  _atom_site_fract_z
  _atom_site_occupancy
  Ce  Ce1       1.0  0.2417740672826767  0.16124069690704343  0.6282289624214171  1.0000
  Ce  Ce2       1.0  0.8909820914268494  0.1108703166246414  0.1365660727024078  1.0000
  Ce  Ce3       1.0  0.2555481195449829  0.38375383615493763  0.7884675860404967  1.0000
  Ce  Ce4       1.0  0.7454481720924377  0.5660194158554076  0.013746157288551265  1.0000
  Ce  Ce5       1.0  0.24668265879154205  0.7219743132591248  0.6172741651535034  1.0000
  Ce  Ce6       1.0  0.4554222822189331  0.0967729017138481  0.24752077460289001  1.0000
  Ni  Ni1       1.0  0.2245117574930191  0.6346426606178285  0.7005705237388611  1.0000
  Ni  Ni2       1.0  0.7466716766357422  0.3398397266864775  0.8728288412094115  1.0000
  Ni  Ni3       1.0  0.9244319200515747  0.3221530318260191  0.9898860454559325  1.0000
  Ni  Ni4       1.0  0.9707301259040833  0.8880293965339662  0.2982377111911773  1.0000
  Ni  Ni5       1.0  0.42513319849967957  0.9550517201423645  0.4526931345462798  1.0000
