data_image0
_chemical_formula_structural       Ce3Ge2INi4Pb
_chemical_formula_sum              "Ce3 Ge2 I1 Ni4 Pb1"
_cell_length_a       4.998938020941746
_cell_length_b       6.1835798924264616
_cell_length_c       8.286283493041992
_cell_angle_alpha    98.34568716952602
_cell_angle_beta     91.90019602612378
_cell_angle_gamma    115.97450676238118

_space_group_name_H-M_alt    "P 1"
_space_group_IT_number       1

loop_
  _space_group_symop_operation_xyz
  'x, y, z'

loop_
  _atom_site_type_symbol
  _atom_site_label
  _atom_site_symmetry_multiplicity
  _atom_site_fract_x
  _atom_site_fract_y
  _atom_site_fract_z
  _atom_site_occupancy
  Ce  Ce1       1.0  0.03590007498860359  0.5213034749031067  0.5224581956863403  1.0000
  Ce  Ce2       1.0  0.7925082445144653  0.8241914510726929  0.8049015402793884  1.0000
  Ce  Ce3       1.0  0.7942711710929871  0.510648787021637  0.8538010716438293  1.0000
  Ge  Ge1       1.0  0.3416597843170166  0.962134599685669  0.20763272047042847  1.0000
  Ge  Ge2       1.0  0.033816199749708176  0.34967902302742004  0.2840293347835541  1.0000
  I   I1        1.0  0.33178335428237915  0.01610449142754078  0.38465040922164917  1.0000
  Ni  Ni1       1.0  0.793747067451477  0.15180395543575287  0.747520923614502  1.0000
  Ni  Ni2       1.0  0.3425920605659485  0.48759907484054565  0.3035803735256195  1.0000
  Ni  Ni3       1.0  0.31655046343803406  0.7048553824424744  0.4407857656478882  1.0000
  Ni  Ni4       1.0  0.31286200881004333  0.19047033786773682  0.5090844631195068  1.0000
  Pb  Pb1       1.0  0.7932105660438538  0.08425143361091614  0.5349079370498657  1.0000
