data_image0
_chemical_formula_structural       Ce5Ni6
_chemical_formula_sum              "Ce5 Ni6"
_cell_length_a       4.476073500799116
_cell_length_b       6.143168577465633
_cell_length_c       6.192843437194824
_cell_angle_alpha    115.60800357575131
_cell_angle_beta     84.69939155255342
_cell_angle_gamma    88.31727220497456

_space_group_name_H-M_alt    "P 1"
_space_group_IT_number       1

loop_
  _space_group_symop_operation_xyz
  'x, y, z'

loop_
  _atom_site_type_symbol
  _atom_site_label
  _atom_site_symmetry_multiplicity
  _atom_site_fract_x
  _atom_site_fract_y
  _atom_site_fract_z
  _atom_site_occupancy
  Ce  Ce1       1.0  0.809041440486908  0.13251236081123352  0.09887667745351791  1.0000
  Ce  Ce2       1.0  0.8116714954376221  0.4724564552307129  0.8886485695838928  1.0000
  Ce  Ce3       1.0  0.3085680902004242  0.7319602966308594  0.6564573645591736  1.0000
  Ce  Ce4       1.0  0.8014706969261169  0.9462922811508179  0.43499261140823364  1.0000
  Ce  Ce5       1.0  0.29014748334884644  0.9028645157814026  0.4548618197441101  1.0000
  Ni  Ni1       1.0  0.3073583245277405  0.6063516736030579  0.8346510529518127  1.0000
  Ni  Ni2       1.0  0.3107423186302185  0.48987847566604614  0.957084059715271  1.0000
  Ni  Ni3       1.0  0.7939848899841309  0.3762266933917999  0.30263325572013855  1.0000
  Ni  Ni4       1.0  0.8107630014419556  0.008006613701581955  0.0864420160651207  1.0000
  Ni  Ni5       1.0  0.30609413981437683  0.4289807975292206  0.38182175159454346  1.0000
  Ni  Ni6       1.0  0.802647054195404  0.6141862273216248  0.8671159744262695  1.0000
