data_image0
_chemical_formula_structural       GaILi5NiPPt2
_chemical_formula_sum              "Ga1 I1 Li5 Ni1 P1 Pt2"
_cell_length_a       5.588692191202457
_cell_length_b       5.594343235830841
_cell_length_c       5.868953704833984
_cell_angle_alpha    85.77132046650269
_cell_angle_beta     79.94721873020002
_cell_angle_gamma    81.68294841921643

_space_group_name_H-M_alt    "P 1"
_space_group_IT_number       1

loop_
  _space_group_symop_operation_xyz
  'x, y, z'

loop_
  _atom_site_type_symbol
  _atom_site_label
  _atom_site_symmetry_multiplicity
  _atom_site_fract_x
  _atom_site_fract_y
  _atom_site_fract_z
  _atom_site_occupancy
  Ga  Ga1       1.0  0.6793944239616394  0.1447761356830597  0.1917514055967331  1.0000
  I   I1        1.0  0.1793726235628128  0.6459874510765076  0.22674822807312012  1.0000
  Li  Li1       1.0  0.17339614033699036  0.8129722476005554  0.34927788376808167  1.0000
  Li  Li2       1.0  0.6874336004257202  0.6247655153274536  0.4268214702606201  1.0000
  Li  Li3       1.0  0.17585426568984985  0.7946198582649231  0.3570317327976227  1.0000
  Li  Li4       1.0  0.1819782853126526  0.6001696586608887  0.15779754519462585  1.0000
  Li  Li5       1.0  0.6766490340232849  0.30732324719429016  0.30501115322113037  1.0000
  Ni  Ni1       1.0  0.6764498353004456  0.33166077733039856  0.547602117061615  1.0000
  P   P1        1.0  0.18197178840637207  0.3034152686595917  0.9808539152145386  1.0000
  Pt  Pt1       1.0  0.6779868602752686  0.5509173274040222  0.5763846635818481  1.0000
  Pt  Pt2       1.0  0.18894660472869873  0.6731346249580383  0.8798710703849792  1.0000
