data_image0
_chemical_formula_structural       GaILi7NiP
_chemical_formula_sum              "Ga1 I1 Li7 Ni1 P1"
_cell_length_a       5.111260966074832
_cell_length_b       5.328115581646868
_cell_length_c       5.546041488647461
_cell_angle_alpha    96.0756158012267
_cell_angle_beta     100.06939257573823
_cell_angle_gamma    108.17944094909129

_space_group_name_H-M_alt    "P 1"
_space_group_IT_number       1

loop_
  _space_group_symop_operation_xyz
  'x, y, z'

loop_
  _atom_site_type_symbol
  _atom_site_label
  _atom_site_symmetry_multiplicity
  _atom_site_fract_x
  _atom_site_fract_y
  _atom_site_fract_z
  _atom_site_occupancy
  Ga  Ga1       1.0  0.07744812220335007  0.7281263470649719  0.00927128456532956  1.0000
  I   I1        1.0  0.5313698649406433  0.7745872735977173  0.9296863079071044  1.0000
  Li  Li1       1.0  0.638609766960144  0.08330583572387695  0.3242804706096649  1.0000
  Li  Li2       1.0  0.8986235857009888  0.2112696319818497  0.6280238032341003  1.0000
  Li  Li3       1.0  0.6564266085624695  0.2583974003791809  0.5980466604232788  1.0000
  Li  Li4       1.0  0.342008501291275  0.17281554639339447  0.8942718505859374  1.0000
  Li  Li5       1.0  0.6709356904029846  0.1194160357117653  0.22900848090648648  1.0000
  Li  Li6       1.0  0.24164433777332303  0.1518031805753708  0.3960086703300476  1.0000
  Li  Li7       1.0  0.5902307033538818  0.9632844328880311  0.5764994025230408  1.0000
  Ni  Ni1       1.0  0.14419837296009066  0.843127191066742  0.22404576838016507  1.0000
  P   P1        1.0  0.6170011758804321  0.9254354238510133  0.3236956298351288  1.0000
