data_image0
_chemical_formula_structural       Li9Pt2
_chemical_formula_sum              "Li9 Pt2"
_cell_length_a       5.336835874976964
_cell_length_b       5.257927741266063
_cell_length_c       5.1772260665893555
_cell_angle_alpha    62.95235981485676
_cell_angle_beta     67.71007289049615
_cell_angle_gamma    63.09900940016249

_space_group_name_H-M_alt    "P 1"
_space_group_IT_number       1

loop_
  _space_group_symop_operation_xyz
  'x, y, z'

loop_
  _atom_site_type_symbol
  _atom_site_label
  _atom_site_symmetry_multiplicity
  _atom_site_fract_x
  _atom_site_fract_y
  _atom_site_fract_z
  _atom_site_occupancy
  Li  Li1       1.0  0.1637185662984848  0.45620888471603394  0.9221509099006653  1.0000
  Li  Li2       1.0  0.6475412249565125  0.9783481955528259  0.4378983974456787  1.0000
  Li  Li3       1.0  0.6418173909187317  0.5019670128822327  0.8080190420150757  1.0000
  Li  Li4       1.0  0.6151630878448486  0.16038179397583008  0.4393632411956787  1.0000
  Li  Li5       1.0  0.6740730404853821  0.5317167043685913  0.37600696086883545  1.0000
  Li  Li6       1.0  0.15522348880767822  0.6417683362960815  0.05513037368655209  1.0000
  Li  Li7       1.0  0.1683862805366516  0.8973601460456848  0.2093667834997178  1.0000
  Li  Li8       1.0  0.11966913193464279  0.3612687587738037  0.2367946207523346  1.0000
  Li  Li9       1.0  0.6583265662193298  0.8811554908752441  0.5448213219642639  1.0000
  Pt  Pt1       1.0  0.1796056181192398  0.9752669930458069  0.06615526229143151  1.0000
  Pt  Pt2       1.0  0.6688492894172668  0.12103358656167984  0.037692539393901825  1.0000
