data_image0
_chemical_formula_structural       Al2FLi5Pt2Zr
_chemical_formula_sum              "Al2 F1 Li5 Pt2 Zr1"
_cell_length_a       5.838775676969109
_cell_length_b       4.572674201376273
_cell_length_c       6.032521724700928
_cell_angle_alpha    81.37490860560077
_cell_angle_beta     58.89391957748198
_cell_angle_gamma    44.84182633401196

_space_group_name_H-M_alt    "P 1"
_space_group_IT_number       1

loop_
  _space_group_symop_operation_xyz
  'x, y, z'

loop_
  _atom_site_type_symbol
  _atom_site_label
  _atom_site_symmetry_multiplicity
  _atom_site_fract_x
  _atom_site_fract_y
  _atom_site_fract_z
  _atom_site_occupancy
  Al  Al1       1.0  0.11416614055633545  0.5766130685806274  0.07483495026826859  1.0000
  Al  Al2       1.0  0.4364752471446991  0.5458127856254578  0.0017350722337141726  1.0000
  F   F1        1.0  0.7415947914123535  0.6602956652641296  0.5791206955909729  1.0000
  Li  Li1       1.0  0.9506257772445679  0.42846849560737615  0.11594993621110918  1.0000
  Li  Li2       1.0  0.4675118327140808  0.8362644910812378  0.7134442925453187  1.0000
  Li  Li3       1.0  0.968242347240448  0.23716610670089724  0.4014479815959931  1.0000
  Li  Li4       1.0  0.9791198968887329  0.520012378692627  0.8157370686531068  1.0000
  Li  Li5       1.0  0.49169859290122986  0.4709066450595856  0.23473344743251803  1.0000
  Pt  Pt1       1.0  0.9902535080909729  0.39274582266807556  0.13114774227142334  1.0000
  Pt  Pt2       1.0  0.47774645686149597  0.7928054332733154  0.3128557801246643  1.0000
  Zr  Zr1       1.0  0.992099940776825  0.1960030347108841  0.5684736371040344  1.0000
