data_image0
_chemical_formula_structural       AlLi8NiPt
_chemical_formula_sum              "Al1 Li8 Ni1 Pt1"
_cell_length_a       4.735292557882049
_cell_length_b       4.377082535621733
_cell_length_c       5.415491104125977
_cell_angle_alpha    57.971506673784624
_cell_angle_beta     66.21562700795694
_cell_angle_gamma    57.51955895806716

_space_group_name_H-M_alt    "P 1"
_space_group_IT_number       1

loop_
  _space_group_symop_operation_xyz
  'x, y, z'

loop_
  _atom_site_type_symbol
  _atom_site_label
  _atom_site_symmetry_multiplicity
  _atom_site_fract_x
  _atom_site_fract_y
  _atom_site_fract_z
  _atom_site_occupancy
  Al  Al1       1.0  0.9169849753379822  0.336139440536499  0.8812484145164491  1.0000
  Li  Li1       1.0  0.9028012156486511  0.965352475643158  0.031871356070041656  1.0000
  Li  Li2       1.0  0.9997972846031189  0.5115949511528015  0.1396709829568863  1.0000
  Li  Li3       1.0  0.5182433128356934  0.7130795121192932  0.0245103370398283  1.0000
  Li  Li4       1.0  0.6107372641563416  0.5453947186470032  0.24398693442344668  1.0000
  Li  Li5       1.0  0.8678053021430969  0.9705740213394165  0.513796329498291  1.0000
  Li  Li6       1.0  0.38804739713668823  0.5678316950798035  0.6889880299568176  1.0000
  Li  Li7       1.0  0.23176522552967072  0.39083120226860046  0.048667166382074356  1.0000
  Li  Li8       1.0  0.26695960760116577  0.5209824442863464  0.25514066219329834  1.0000
  Ni  Ni1       1.0  0.36297842860221863  0.07129114121198654  0.725430428981781  1.0000
  Pt  Pt1       1.0  0.43537160754203796  0.7742939591407776  0.5015895962715149  1.0000
