data_image0
_chemical_formula_structural       Al2ILi6PPt
_chemical_formula_sum              "Al2 I1 Li6 P1 Pt1"
_cell_length_a       5.0068939487535316
_cell_length_b       5.916485694251244
_cell_length_c       6.222884654998779
_cell_angle_alpha    110.64464089978868
_cell_angle_beta     88.54346729247655
_cell_angle_gamma    88.74216185359796

_space_group_name_H-M_alt    "P 1"
_space_group_IT_number       1

loop_
  _space_group_symop_operation_xyz
  'x, y, z'

loop_
  _atom_site_type_symbol
  _atom_site_label
  _atom_site_symmetry_multiplicity
  _atom_site_fract_x
  _atom_site_fract_y
  _atom_site_fract_z
  _atom_site_occupancy
  Al  Al1       1.0  0.2878783643245697  0.38948121666908264  0.5920583009719849  1.0000
  Al  Al2       1.0  0.7723885178565979  0.7690024375915527  0.36678305268287653  1.0000
  I   I1        1.0  0.2688334286212921  0.3946869969367981  0.7193541526794432  1.0000
  Li  Li1       1.0  0.27858176827430725  0.25140464305877686  0.01550694927573203  1.0000
  Li  Li2       1.0  0.5434845089912415  0.9511759877204895  0.38158720731735224  1.0000
  Li  Li3       1.0  0.26867544651031494  0.25657445192337036  0.5584195852279663  1.0000
  Li  Li4       1.0  0.7653639912605286  0.07575370371341705  0.3381747901439666  1.0000
  Li  Li5       1.0  0.7698276042938232  0.6745951175689697  0.29715025424957275  1.0000
  Li  Li6       1.0  0.7670564651489258  0.7679789662361145  0.2165972143411636  1.0000
  P   P1        1.0  0.7788411974906921  0.03477005660533905  0.4237037003040313  1.0000
  Pt  Pt1       1.0  0.2744939923286438  0.17470544576644897  0.3422545194625854  1.0000
