data_image0
_chemical_formula_structural       O2P2Pb2S2
_chemical_formula_sum              "O2 P2 Pb2 S2"
_cell_length_a       6.171173051852795
_cell_length_b       8.21840819883161
_cell_length_c       7.955432415008545
_cell_angle_alpha    121.6551207780281
_cell_angle_beta     88.19410865082818
_cell_angle_gamma    90.13675112129043

_space_group_name_H-M_alt    "P 1"
_space_group_IT_number       1

loop_
  _space_group_symop_operation_xyz
  'x, y, z'

loop_
  _atom_site_type_symbol
  _atom_site_label
  _atom_site_symmetry_multiplicity
  _atom_site_fract_x
  _atom_site_fract_y
  _atom_site_fract_z
  _atom_site_occupancy
  O   O1        1.0  0.3051551580429077  0.6439757943153382  0.7735742330551147  1.0000
  O   O2        1.0  0.29641497135162354  0.3728311657905579  0.7979968786239624  1.0000
  P   P1        1.0  0.702541172504425  0.5859895944595337  0.11552509665489198  1.0000
  P   P2        1.0  0.21809422969818115  0.01597888022661209  0.20153088867664337  1.0000
  Pb  Pb1       1.0  0.5252817869186401  0.07387235015630722  0.43531733751297  1.0000
  Pb  Pb2       1.0  0.025423992425203323  0.4957109093666077  0.08144447207450867  1.0000
  S   S1        1.0  0.22173625230789185  0.4518562257289887  0.7541282773017883  1.0000
  S   S2        1.0  0.721156895160675  0.9647843837738038  0.8496997356414797  1.0000
