data_image0
_chemical_formula_structural       P2Pb6
_chemical_formula_sum              "P2 Pb6"
_cell_length_a       5.263677035519681
_cell_length_b       6.75715332463389
_cell_length_c       7.175876140594482
_cell_angle_alpha    121.3240705983376
_cell_angle_beta     90.87927419521873
_cell_angle_gamma    89.07040050939756

_space_group_name_H-M_alt    "P 1"
_space_group_IT_number       1

loop_
  _space_group_symop_operation_xyz
  'x, y, z'

loop_
  _atom_site_type_symbol
  _atom_site_label
  _atom_site_symmetry_multiplicity
  _atom_site_fract_x
  _atom_site_fract_y
  _atom_site_fract_z
  _atom_site_occupancy
  P   P1        1.0  0.328362375497818  0.8039520978927612  0.8326677083969115  1.0000
  P   P2        1.0  0.037267811596393585  0.245534285902977  0.09278419613838194  1.0000
  Pb  Pb1       1.0  0.5401431322097778  0.3011324107646942  0.3714314401149749  1.0000
  Pb  Pb2       1.0  0.04861950874328613  0.7606163024902344  0.8749815821647643  1.0000
  Pb  Pb3       1.0  0.037343814969062805  0.4359757900238037  0.5413389801979065  1.0000
  Pb  Pb4       1.0  0.5456264615058899  0.7538409233093262  0.052277766168117516  1.0000
  Pb  Pb5       1.0  0.032048605382442474  0.8056384921073914  0.9155284166336058  1.0000
  Pb  Pb6       1.0  0.5485981106758118  0.8070666790008545  0.7364059686660765  1.0000
