data_image0
_chemical_formula_structural       GeOP4Pb2
_chemical_formula_sum              "Ge1 O1 P4 Pb2"
_cell_length_a       5.246063832352224
_cell_length_b       5.519078983184933
_cell_length_c       7.906870365142822
_cell_angle_alpha    93.89263565458423
_cell_angle_beta     94.40530841604509
_cell_angle_gamma    111.8510955708984

_space_group_name_H-M_alt    "P 1"
_space_group_IT_number       1

loop_
  _space_group_symop_operation_xyz
  'x, y, z'

loop_
  _atom_site_type_symbol
  _atom_site_label
  _atom_site_symmetry_multiplicity
  _atom_site_fract_x
  _atom_site_fract_y
  _atom_site_fract_z
  _atom_site_occupancy
  Ge  Ge1       1.0  0.45225533843040466  0.3645755648612976  0.7307198643684387  1.0000
  O   O1        1.0  0.3634124994277954  0.5151905417442322  0.9853995442390442  1.0000
  P   P1        1.0  0.36047759652137756  0.04114319756627083  0.3702273070812225  1.0000
  P   P2        1.0  0.36135146021842957  0.07229586690664291  0.8720175623893737  1.0000
  P   P3        1.0  0.6581279039382935  0.8300091028213501  0.10065966099500656  1.0000
  P   P4        1.0  0.34875062108039856  0.5976047515869141  0.38395586609840393  1.0000
  Pb  Pb1       1.0  0.6996912956237793  0.23420333862304688  0.9810330271720886  1.0000
  Pb  Pb2       1.0  0.9058148264884949  0.5983037352561951  0.8732913136482239  1.0000
