data_image0
_chemical_formula_structural       InMnS3Sc4SiZn
_chemical_formula_sum              "In1 Mn1 S3 Sc4 Si1 Zn1"
_cell_length_a       4.6597484878177555
_cell_length_b       7.600958203059114
_cell_length_c       7.438359260559082
_cell_angle_alpha    122.97534783221616
_cell_angle_beta     91.07496530342897
_cell_angle_gamma    89.23871782292076

_space_group_name_H-M_alt    "P 1"
_space_group_IT_number       1

loop_
  _space_group_symop_operation_xyz
  'x, y, z'

loop_
  _atom_site_type_symbol
  _atom_site_label
  _atom_site_symmetry_multiplicity
  _atom_site_fract_x
  _atom_site_fract_y
  _atom_site_fract_z
  _atom_site_occupancy
  In  In1       1.0  0.15332604944705963  0.7078546285629271  0.6386461853981019  1.0000
  Mn  Mn1       1.0  0.6296414732933044  0.7423130869865416  0.27049985527992243  1.0000
  S   S1        1.0  0.14189384877681735  0.3544886410236358  0.44869971275329595  1.0000
  S   S2        1.0  0.12425802648067474  0.8491904735565184  0.22335122525691983  1.0000
  S   S3        1.0  0.6344581246376039  0.9052611589431762  0.996276080608368  1.0000
  Sc  Sc1       1.0  0.6221218705177307  0.2877664864063263  0.3599087595939637  1.0000
  Sc  Sc2       1.0  0.6353039145469666  0.40330427885055536  0.6068028211593628  1.0000
  Sc  Sc3       1.0  0.6494947075843811  0.954824149608612  0.7069113850593566  1.0000
  Sc  Sc4       1.0  0.14147347211837769  0.07163913547992706  0.36007499694824224  1.0000
  Si  Si1       1.0  0.13860031962394714  0.34382146596908564  0.9223633408546449  1.0000
  Zn  Zn1       1.0  0.6410022974014282  0.8118257522583007  0.29379418492317194  1.0000
