data_image0
_chemical_formula_structural       AgGaMnSSc4Si2Sn
_chemical_formula_sum              "Ag1 Ga1 Mn1 S1 Sc4 Si2 Sn1"
_cell_length_a       5.420843753553558
_cell_length_b       7.980753741937616
_cell_length_c       8.227112770080566
_cell_angle_alpha    122.42749103982955
_cell_angle_beta     92.26468259749404
_cell_angle_gamma    89.03408822475285

_space_group_name_H-M_alt    "P 1"
_space_group_IT_number       1

loop_
  _space_group_symop_operation_xyz
  'x, y, z'

loop_
  _atom_site_type_symbol
  _atom_site_label
  _atom_site_symmetry_multiplicity
  _atom_site_fract_x
  _atom_site_fract_y
  _atom_site_fract_z
  _atom_site_occupancy
  Ag  Ag1       1.0  0.6396591067314148  0.18984946608543396  0.07397276163101196  1.0000
  Ga  Ga1       1.0  0.8990951180458068  0.31814733147621155  0.9035826921463013  1.0000
  Mn  Mn1       1.0  0.3820841312408447  0.6701149940490723  0.6401639580726624  1.0000
  S   S1        1.0  0.6564139723777771  0.9097369313240051  0.3408950865268707  1.0000
  Sc  Sc1       1.0  0.38831570744514465  0.30478960275650024  0.08252491056919098  1.0000
  Sc  Sc2       1.0  0.9020593166351317  0.6627395153045654  0.8813173770904541  1.0000
  Sc  Sc3       1.0  0.6654126048088074  0.2649815082550049  0.6023374199867249  1.0000
  Sc  Sc4       1.0  0.14770492911338806  0.9271968007087708  0.8614688515663147  1.0000
  Si  Si1       1.0  0.3846440017223358  0.9359880685806274  0.12035833299159993  1.0000
  Si  Si2       1.0  0.8883879780769347  0.6626207828521729  0.4244738817214966  1.0000
  Sn  Sn1       1.0  0.37891361117362976  0.6595286130905151  0.1117289811372757  1.0000
