data_image0
_chemical_formula_structural       Ag4Ca2In2RhSc2
_chemical_formula_sum              "Ag4 Ca2 In2 Rh1 Sc2"
_cell_length_a       5.097407591493239
_cell_length_b       7.313837460024759
_cell_length_c       6.827929973602295
_cell_angle_alpha    128.4986446184386
_cell_angle_beta     91.28574943496974
_cell_angle_gamma    85.67656663876684

_space_group_name_H-M_alt    "P 1"
_space_group_IT_number       1

loop_
  _space_group_symop_operation_xyz
  'x, y, z'

loop_
  _atom_site_type_symbol
  _atom_site_label
  _atom_site_symmetry_multiplicity
  _atom_site_fract_x
  _atom_site_fract_y
  _atom_site_fract_z
  _atom_site_occupancy
  Ag  Ag1       1.0  0.7150835394859314  0.8708688616752625  0.5439695715904236  1.0000
  Ag  Ag2       1.0  0.9713128805160522  0.7158899307250977  0.7537817955017089  1.0000
  Ag  Ag3       1.0  0.4657237231731415  0.49817904829978943  0.6160268783569336  1.0000
  Ag  Ag4       1.0  0.47274479269981384  0.1849314123392105  0.2159740179777145  1.0000
  Ca  Ca1       1.0  0.6953878402709961  0.39445602893829346  0.3506297171115875  1.0000
  Ca  Ca2       1.0  0.7193373441696167  0.301492840051651  0.8529212474822997  1.0000
  In  In1       1.0  0.7319723963737488  0.024508047848939896  0.4252697825431823  1.0000
  In  In2       1.0  0.21774086356163025  0.4699127972126007  0.3805973529815673  1.0000
  Rh  Rh1       1.0  0.2102513462305069  0.36010655760765076  0.41775968670845026  1.0000
  Sc  Sc1       1.0  0.20193763077259064  0.2566767930984497  0.03278392553329468  1.0000
  Sc  Sc2       1.0  0.2280886024236679  0.5704423785209656  0.1740705519914627  1.0000
