data_image0
_chemical_formula_structural       AgAlSSc6SeSi
_chemical_formula_sum              "Ag1 Al1 S1 Sc6 Se1 Si1"
_cell_length_a       4.7385669178906
_cell_length_b       7.618414422409982
_cell_length_c       7.633393287658691
_cell_angle_alpha    121.40920647895875
_cell_angle_beta     89.22328973515087
_cell_angle_gamma    90.45195688108514

_space_group_name_H-M_alt    "P 1"
_space_group_IT_number       1

loop_
  _space_group_symop_operation_xyz
  'x, y, z'

loop_
  _atom_site_type_symbol
  _atom_site_label
  _atom_site_symmetry_multiplicity
  _atom_site_fract_x
  _atom_site_fract_y
  _atom_site_fract_z
  _atom_site_occupancy
  Ag  Ag1       1.0  0.670490026473999  0.9161797165870667  0.5212938785552979  1.0000
  Al  Al1       1.0  0.6620071530342102  0.9101127982139587  0.5147649049758911  1.0000
  S   S1        1.0  0.6695325970649719  0.1552232950925827  0.7763590812683104  1.0000
  Sc  Sc1       1.0  0.1764823943376541  0.9093407392501831  0.027635954320430752  1.0000
  Sc  Sc2       1.0  0.18883749842643738  0.6779705882072449  0.8647549152374266  1.0000
  Sc  Sc3       1.0  0.17923209071159363  0.26948902010917664  0.7009714245796204  1.0000
  Sc  Sc4       1.0  0.6996874809265137  0.17808808386325836  0.2849963307380676  1.0000
  Sc  Sc5       1.0  0.19115297496318817  0.6640235781669617  0.09248694777488707  1.0000
  Sc  Sc6       1.0  0.6876446604728699  0.2643803656101227  0.2762058675289154  1.0000
  Se  Se1       1.0  0.160382941365242  0.657683253288269  0.33866000175476074  1.0000
  Si  Si1       1.0  0.6773090958595276  0.8992220759391785  0.518313467502594  1.0000
