data_image0
_chemical_formula_structural       AgINiS2Sc5Si
_chemical_formula_sum              "Ag1 I1 Ni1 S2 Sc5 Si1"
_cell_length_a       5.231913215990226
_cell_length_b       7.7166193905748806
_cell_length_c       7.767742156982422
_cell_angle_alpha    117.69535389976559
_cell_angle_beta     94.88103766235255
_cell_angle_gamma    88.45642692816604

_space_group_name_H-M_alt    "P 1"
_space_group_IT_number       1

loop_
  _space_group_symop_operation_xyz
  'x, y, z'

loop_
  _atom_site_type_symbol
  _atom_site_label
  _atom_site_symmetry_multiplicity
  _atom_site_fract_x
  _atom_site_fract_y
  _atom_site_fract_z
  _atom_site_occupancy
  Ag  Ag1       1.0  0.14176493883132935  0.3528565466403961  0.5123279094696045  1.0000
  I   I1        1.0  0.9278700351715088  0.10929862409830093  0.29890334606170654  1.0000
  Ni  Ni1       1.0  0.9283531308174133  0.7093085646629333  0.06414976716041565  1.0000
  S   S1        1.0  0.13461923599243164  0.39269259572029114  0.04293833673000336  1.0000
  S   S2        1.0  0.45613646507263184  0.6770203113555908  0.7085562944412231  1.0000
  Sc  Sc1       1.0  0.4618989825248718  0.20109115540981293  0.47222554683685297  1.0000
  Sc  Sc2       1.0  0.6631268858909607  0.6560843586921692  0.1025441512465477  1.0000
  Sc  Sc3       1.0  0.4502500593662262  0.6387823224067688  0.5951665043830872  1.0000
  Sc  Sc4       1.0  0.954696536064148  0.186546191573143  0.4950780570507049  1.0000
  Sc  Sc5       1.0  0.18782374262809753  0.10565068572759628  0.010393888689577586  1.0000
  Si  Si1       1.0  0.4194647967815399  0.6946307420730591  0.1403010934591294  1.0000
