data_image0
_chemical_formula_structural       Ag4Ca3In2RhSc
_chemical_formula_sum              "Ag4 Ca3 In2 Rh1 Sc1"
_cell_length_a       5.5774177842630195
_cell_length_b       7.919078161026557
_cell_length_c       7.710875034332275
_cell_angle_alpha    118.44038051196685
_cell_angle_beta     88.44114289134109
_cell_angle_gamma    88.4808684993418

_space_group_name_H-M_alt    "P 1"
_space_group_IT_number       1

loop_
  _space_group_symop_operation_xyz
  'x, y, z'

loop_
  _atom_site_type_symbol
  _atom_site_label
  _atom_site_symmetry_multiplicity
  _atom_site_fract_x
  _atom_site_fract_y
  _atom_site_fract_z
  _atom_site_occupancy
  Ag  Ag1       1.0  0.27430179715156555  0.5019891858100891  0.9874914884567261  1.0000
  Ag  Ag2       1.0  0.286389023065567  0.871832847595215  0.5184032320976258  1.0000
  Ag  Ag3       1.0  0.2836109697818756  0.18949280679225922  0.44840091466903687  1.0000
  Ag  Ag4       1.0  0.7916673421859741  0.12050351500511171  0.7739455699920654  1.0000
  Ca  Ca1       1.0  0.563519299030304  0.8801346421241761  0.297635167837143  1.0000
  Ca  Ca2       1.0  0.2675343751907348  0.013900948688387873  0.5084387063980103  1.0000
  Ca  Ca3       1.0  0.5359841585159302  0.3183700442314148  0.3415694534778595  1.0000
  In  In1       1.0  0.7855024337768555  0.8412621021270753  0.3158592879772187  1.0000
  In  In2       1.0  0.027828216552734375  0.6086469292640686  0.8444250822067261  1.0000
  Rh  Rh1       1.0  0.7610805034637451  0.5101613402366638  0.03889929130673411  1.0000
  Sc  Sc1       1.0  0.8193702697753906  0.3602953255176544  0.058495663106441526  1.0000
