data_image0
_chemical_formula_structural       BrCdGeHfI2IrLaW
_chemical_formula_sum              "Br1 Cd1 Ge1 Hf1 I2 Ir1 La1 W1"
_cell_length_a       7.0829511326267545
_cell_length_b       7.065944237816614
_cell_length_c       7.090466499328613
_cell_angle_alpha    65.33347195698722
_cell_angle_beta     65.39301421870819
_cell_angle_gamma    64.86370497874296

_space_group_name_H-M_alt    "P 1"
_space_group_IT_number       1

loop_
  _space_group_symop_operation_xyz
  'x, y, z'

loop_
  _atom_site_type_symbol
  _atom_site_label
  _atom_site_symmetry_multiplicity
  _atom_site_fract_x
  _atom_site_fract_y
  _atom_site_fract_z
  _atom_site_occupancy
  Br  Br1       1.0  0.5896971225738525  0.4907282590866089  0.13865698873996732  1.0000
  Cd  Cd1       1.0  0.9313045740127563  0.11688046902418137  0.041654396802186924  1.0000
  Ge  Ge1       1.0  0.7909403443336487  0.7268826961517334  0.4215748906135559  1.0000
  Hf  Hf1       1.0  0.4441005289554596  0.6408458352088928  0.48036921024322504  1.0000
  I   I1        1.0  0.08458553999662399  0.9441708922386169  0.6550548672676086  1.0000
  I   I2        1.0  0.35393795371055603  0.2657688856124878  0.7948145866394043  1.0000
  Ir  Ir1       1.0  0.5777386426925659  0.9383827447891235  0.14698307216167444  1.0000
  La  La1       1.0  0.1744535267353058  0.3592977225780487  0.25291460752487177  1.0000
  W   W1        1.0  0.6794863939285278  0.851488471031189  0.7730018496513367  1.0000
