data_image0
_chemical_formula_structural       Ir2Ni3Se4
_chemical_formula_sum              "Ir2 Ni3 Se4"
_cell_length_a       6.138325419040902
_cell_length_b       6.15969994207552
_cell_length_c       6.182842254638672
_cell_angle_alpha    60.93112651582258
_cell_angle_beta     60.94441651479382
_cell_angle_gamma    61.01819015732865

_space_group_name_H-M_alt    "P 1"
_space_group_IT_number       1

loop_
  _space_group_symop_operation_xyz
  'x, y, z'

loop_
  _atom_site_type_symbol
  _atom_site_label
  _atom_site_symmetry_multiplicity
  _atom_site_fract_x
  _atom_site_fract_y
  _atom_site_fract_z
  _atom_site_occupancy
  Ir  Ir1       1.0  0.917873740196228  0.19235321879386902  0.4764220416545868  1.0000
  Ir  Ir2       1.0  0.900303840637207  0.6809378266334534  0.4797679483890534  1.0000
  Ni  Ni1       1.0  0.41788578033447266  0.19106362760066986  0.00750008365139367  1.0000
  Ni  Ni2       1.0  0.9039903283119202  0.18465277552604675  0.004164338111877468  1.0000
  Ni  Ni3       1.0  0.2765190899372101  0.819994330406189  0.12382327020168304  1.0000
  Se  Se1       1.0  0.15910442173480988  0.44126415252685547  0.7563132047653198  1.0000
  Se  Se2       1.0  0.6361449956893921  0.4566914141178131  0.23152853548526772  1.0000
  Se  Se3       1.0  0.16621527075767517  0.929741382598877  0.7528187036514282  1.0000
  Se  Se4       1.0  0.6401280164718628  0.9306929707527161  0.7587156891822815  1.0000
