data_image0
_chemical_formula_structural       K3PdS4U
_chemical_formula_sum              "K3 Pd1 S4 U1"
_cell_length_a       4.082499194043585
_cell_length_b       7.536208198244554
_cell_length_c       9.015600204467773
_cell_angle_alpha    109.87552796662966
_cell_angle_beta     90.04244962619187
_cell_angle_gamma    105.4087393668404

_space_group_name_H-M_alt    "P 1"
_space_group_IT_number       1

loop_
  _space_group_symop_operation_xyz
  'x, y, z'

loop_
  _atom_site_type_symbol
  _atom_site_label
  _atom_site_symmetry_multiplicity
  _atom_site_fract_x
  _atom_site_fract_y
  _atom_site_fract_z
  _atom_site_occupancy
  K   K1        1.0  0.10551899671554565  0.9930127263069153  0.45116665959358215  1.0000
  K   K2        1.0  0.8523660898208618  0.5328590869903564  0.5629799962043762  1.0000
  K   K3        1.0  0.94368976354599  0.7215360403060913  0.0025717096868902445  1.0000
  Pd  Pd1       1.0  0.7960489988327026  0.40995821356773376  0.20135162770748138  1.0000
  S   S1        1.0  0.36045390367507935  0.5508363842964172  0.2217111438512802  1.0000
  S   S2        1.0  0.6418253779411316  0.10643089562654495  0.17401449382305145  1.0000
  S   S3        1.0  0.27336883544921875  0.3733408749103546  0.7543140649795532  1.0000
  S   S4        1.0  0.5598945021629333  0.9398595690727234  0.7579388618469238  1.0000
  U   U1        1.0  0.18743140995502472  0.17793278396129608  0.9474731683731079  1.0000
