data_image0
_chemical_formula_structural       K2Pd2S4U
_chemical_formula_sum              "K2 Pd2 S4 U1"
_cell_length_a       3.9686591706547034
_cell_length_b       7.26720595074851
_cell_length_c       8.227460861206055
_cell_angle_alpha    107.08639857940344
_cell_angle_beta     90.16972617220317
_cell_angle_gamma    105.90726288653462

_space_group_name_H-M_alt    "P 1"
_space_group_IT_number       1

loop_
  _space_group_symop_operation_xyz
  'x, y, z'

loop_
  _atom_site_type_symbol
  _atom_site_label
  _atom_site_symmetry_multiplicity
  _atom_site_fract_x
  _atom_site_fract_y
  _atom_site_fract_z
  _atom_site_occupancy
  K   K1        1.0  0.2597014904022217  0.2074413150548935  0.5569993257522583  1.0000
  K   K2        1.0  0.5099146962165833  0.7183130979537964  0.41289183497428894  1.0000
  Pd  Pd1       1.0  0.24119138717651367  0.17696043848991394  0.14988309144973755  1.0000
  Pd  Pd2       1.0  0.08328519761562347  0.8494827151298523  0.8284549117088318  1.0000
  S   S1        1.0  0.43986058235168457  0.6017687320709229  0.8305171728134156  1.0000
  S   S2        1.0  0.8211106061935425  0.34376832842826843  0.28115472197532654  1.0000
  S   S3        1.0  0.08032861351966858  0.8550635576248169  0.16646163165569305  1.0000
  S   S4        1.0  0.6895320415496826  0.06559257954359055  0.8060058355331421  1.0000
  U   U1        1.0  0.8774659037590027  0.46461474895477295  0.9865211248397827  1.0000
