data_image0
_chemical_formula_structural       KNPrRbS2TeUW
_chemical_formula_sum              "K1 N1 Pr1 Rb1 S2 Te1 U1 W1"
_cell_length_a       6.81387625289767
_cell_length_b       7.148575659684996
_cell_length_c       7.14902925491333
_cell_angle_alpha    110.34273874699574
_cell_angle_beta     109.05625318430474
_cell_angle_gamma    107.22412327225979

_space_group_name_H-M_alt    "P 1"
_space_group_IT_number       1

loop_
  _space_group_symop_operation_xyz
  'x, y, z'

loop_
  _atom_site_type_symbol
  _atom_site_label
  _atom_site_symmetry_multiplicity
  _atom_site_fract_x
  _atom_site_fract_y
  _atom_site_fract_z
  _atom_site_occupancy
  K   K1        1.0  0.49708378314971924  0.0016322454903274775  0.6694954633712769  1.0000
  N   N1        1.0  0.09720350801944733  0.5813430547714233  0.5556169748306274  1.0000
  Pr  Pr1       1.0  0.7279456257820129  0.5475777983665466  0.27150723338127136  1.0000
  Rb  Rb1       1.0  0.16637669503688812  0.8093527555465698  0.00731460051611069  1.0000
  S   S1        1.0  0.2189861685037613  0.29877856373786926  0.967232346534729  1.0000
  S   S2        1.0  0.6283019185066223  0.4208357334136963  0.6046028733253479  1.0000
  Te  Te1       1.0  0.7768736481666565  0.9817109107971191  0.20893339812755585  1.0000
  U   U1        1.0  0.20140844583511353  0.378752201795578  0.38279277086257935  1.0000
  W   W1        1.0  0.9648630619049072  0.3421342074871063  0.6183030009269714  1.0000
