data_image0
_chemical_formula_structural       P2ScTe2W
_chemical_formula_sum              "P2 Sc1 Te2 W1"
_cell_length_a       4.398350771751744
_cell_length_b       5.048574392417347
_cell_length_c       9.386122703552246
_cell_angle_alpha    96.60146935363424
_cell_angle_beta     92.39541114536794
_cell_angle_gamma    89.74926093291977

_space_group_name_H-M_alt    "P 1"
_space_group_IT_number       1

loop_
  _space_group_symop_operation_xyz
  'x, y, z'

loop_
  _atom_site_type_symbol
  _atom_site_label
  _atom_site_symmetry_multiplicity
  _atom_site_fract_x
  _atom_site_fract_y
  _atom_site_fract_z
  _atom_site_occupancy
  P   P1        1.0  0.04414412006735802  0.44989967346191406  0.2073885053396225  1.0000
  P   P2        1.0  0.5764211416244507  0.4350382685661316  0.2170363813638687  1.0000
  Sc  Sc1       1.0  0.3339006006717682  0.1417718231678009  0.24589240550994873  1.0000
  Te  Te1       1.0  0.11095129698514938  0.9543068408966064  0.9595151543617249  1.0000
  Te  Te2       1.0  0.6052441596984863  0.4300171732902527  0.6698098182678223  1.0000
  W   W1        1.0  0.6669882535934448  0.9366744160652161  0.1582510769367218  1.0000
