data_image0
_chemical_formula_structural       HTe4W
_chemical_formula_sum              "H1 Te4 W1"
_cell_length_a       4.796497967123431
_cell_length_b       5.463667200531932
_cell_length_c       8.309563636779785
_cell_angle_alpha    93.48387457641991
_cell_angle_beta     90.93777426688654
_cell_angle_gamma    93.79624798668992

_space_group_name_H-M_alt    "P 1"
_space_group_IT_number       1

loop_
  _space_group_symop_operation_xyz
  'x, y, z'

loop_
  _atom_site_type_symbol
  _atom_site_label
  _atom_site_symmetry_multiplicity
  _atom_site_fract_x
  _atom_site_fract_y
  _atom_site_fract_z
  _atom_site_occupancy
  H   H1        1.0  0.9761883616447449  0.2617385983467102  0.9394204020500183  1.0000
  Te  Te1       1.0  0.7045018076896667  0.714453935623169  0.5994783043861389  1.0000
  Te  Te2       1.0  0.23321330547332764  0.25441744923591614  0.10324344784021378  1.0000
  Te  Te3       1.0  0.6962971687316895  0.0831814855337143  0.4330350458621979  1.0000
  Te  Te4       1.0  0.2157863825559616  0.7537536025047302  0.0971357449889183  1.0000
  W   W1        1.0  0.9989207983016968  0.5896019339561462  0.4189935028553009  1.0000
