data_image0
_chemical_formula_structural       ClCo2IPb3Sc2
_chemical_formula_sum              "Cl1 Co2 I1 Pb3 Sc2"
_cell_length_a       5.973788413612377
_cell_length_b       5.965971823303344
_cell_length_c       6.6162567138671875
_cell_angle_alpha    116.93650655387601
_cell_angle_beta     110.67915716273865
_cell_angle_gamma    90.1387104653864

_space_group_name_H-M_alt    "P 1"
_space_group_IT_number       1

loop_
  _space_group_symop_operation_xyz
  'x, y, z'

loop_
  _atom_site_type_symbol
  _atom_site_label
  _atom_site_symmetry_multiplicity
  _atom_site_fract_x
  _atom_site_fract_y
  _atom_site_fract_z
  _atom_site_occupancy
  Cl  Cl1       1.0  0.8343393802642822  0.5645043849945068  0.9401268362998962  1.0000
  Co  Co1       1.0  0.2812335193157196  0.482517808675766  0.4682486057281494  1.0000
  Co  Co2       1.0  0.3117024600505829  0.6666411757469177  0.17723269760608668  1.0000
  I   I1        1.0  0.3555474877357483  0.6798187494277954  0.6862188577651978  1.0000
  Pb  Pb1       1.0  0.1937960386276245  0.3044636845588684  0.9647192358970642  1.0000
  Pb  Pb2       1.0  0.7456836104393005  0.08690453320741653  0.4101712703704834  1.0000
  Pb  Pb3       1.0  0.8189964890480042  0.6392766833305359  0.07507705688476556  1.0000
  Sc  Sc1       1.0  0.7534505128860474  0.31821927428245544  0.8939530849456787  1.0000
  Sc  Sc2       1.0  0.3420884311199188  0.7001304030418396  0.7421513199806213  1.0000
