data_image0
_chemical_formula_structural       GeLiPb4ScSrTm
_chemical_formula_sum              "Ge1 Li1 Pb4 Sc1 Sr1 Tm1"
_cell_length_a       4.816845981303219
_cell_length_b       4.749612081305437
_cell_length_c       7.685886859893799
_cell_angle_alpha    92.96125198122586
_cell_angle_beta     89.4454282623647
_cell_angle_gamma    97.6737567199374

_space_group_name_H-M_alt    "P 1"
_space_group_IT_number       1

loop_
  _space_group_symop_operation_xyz
  'x, y, z'

loop_
  _atom_site_type_symbol
  _atom_site_label
  _atom_site_symmetry_multiplicity
  _atom_site_fract_x
  _atom_site_fract_y
  _atom_site_fract_z
  _atom_site_occupancy
  Ge  Ge1       1.0  0.16739676892757416  0.9789250493049622  0.7547279596328735  1.0000
  Li  Li1       1.0  0.12618105113506317  0.6746246218681335  0.8978184461593629  1.0000
  Pb  Pb1       1.0  0.6640989780426025  0.5303122997283936  0.30136579275131226  1.0000
  Pb  Pb2       1.0  0.18038514256477356  0.8079196810722351  0.29567426443099976  1.0000
  Pb  Pb3       1.0  0.7057401537895203  0.28950947523117065  0.9682330489158631  1.0000
  Pb  Pb4       1.0  0.21542102098464966  0.15303078293800354  0.6867973208427429  1.0000
  Sc  Sc1       1.0  0.7065298557281494  0.22130660712718964  0.16391177475452423  1.0000
  Sr  Sr1       1.0  0.7278873920440674  0.8761029243469238  0.5019301176071167  1.0000
  Tm  Tm1       1.0  0.1838197261095047  0.9092534184455872  0.5239725112915039  1.0000
