data_image0
_chemical_formula_structural       ClPb4Sr4
_chemical_formula_sum              "Cl1 Pb4 Sr4"
_cell_length_a       5.010681970218082
_cell_length_b       4.934162981115985
_cell_length_c       12.860036849975586
_cell_angle_alpha    98.67166629242651
_cell_angle_beta     90.44694800612109
_cell_angle_gamma    116.50374320353681

_space_group_name_H-M_alt    "P 1"
_space_group_IT_number       1

loop_
  _space_group_symop_operation_xyz
  'x, y, z'

loop_
  _atom_site_type_symbol
  _atom_site_label
  _atom_site_symmetry_multiplicity
  _atom_site_fract_x
  _atom_site_fract_y
  _atom_site_fract_z
  _atom_site_occupancy
  Cl  Cl1       1.0  0.476955384016037  0.669008731842041  0.6620818972587584  1.0000
  Pb  Pb1       1.0  0.6707330942153931  0.5936592221260071  0.3490597307682037  1.0000
  Pb  Pb2       1.0  0.159303218126297  0.8792873620986938  0.40340772271156305  1.0000
  Pb  Pb3       1.0  0.17129766941070557  0.21992835402488708  0.46625646948814387  1.0000
  Pb  Pb4       1.0  0.5096039175987244  0.25286436080932617  0.6550241112709044  1.0000
  Sr  Sr1       1.0  0.16543444991111755  0.6543235778808594  0.3144018352031708  1.0000
  Sr  Sr2       1.0  0.10132866352796555  0.04697016626596451  0.5472292304039001  1.0000
  Sr  Sr3       1.0  0.9903797507286072  0.5028021335601807  0.6651799082756041  1.0000
  Sr  Sr4       1.0  0.5138943791389465  0.6908841133117676  0.9960484504699706  1.0000
