data_image0
_chemical_formula_structural       CaClCoPb3Sc2Sr
_chemical_formula_sum              "Ca1 Cl1 Co1 Pb3 Sc2 Sr1"
_cell_length_a       5.226547802811678
_cell_length_b       5.206539401222467
_cell_length_c       6.836880207061768
_cell_angle_alpha    89.65749982086082
_cell_angle_beta     90.54462480034414
_cell_angle_gamma    89.61367379891564

_space_group_name_H-M_alt    "P 1"
_space_group_IT_number       1

loop_
  _space_group_symop_operation_xyz
  'x, y, z'

loop_
  _atom_site_type_symbol
  _atom_site_label
  _atom_site_symmetry_multiplicity
  _atom_site_fract_x
  _atom_site_fract_y
  _atom_site_fract_z
  _atom_site_occupancy
  Ca  Ca1       1.0  0.8058407306671143  0.9475098252296449  0.37155306339263916  1.0000
  Cl  Cl1       1.0  0.3044278919696808  0.9318854808807374  0.9426012635231019  1.0000
  Co  Co1       1.0  0.30888646841049194  0.1490599513053894  0.06913287937641144  1.0000
  Pb  Pb1       1.0  0.3122365176677704  0.7486073970794678  0.05395383760333062  1.0000
  Pb  Pb2       1.0  0.805594801902771  0.3055252134799957  0.519320547580719  1.0000
  Pb  Pb3       1.0  0.3095766603946686  0.8771399259567261  0.3852899372577668  1.0000
  Sc  Sc1       1.0  0.8089677691459656  0.14940857887268066  0.2590033710002899  1.0000
  Sc  Sc2       1.0  0.3080556094646454  0.4602100551128388  0.5663498044013977  1.0000
  Sr  Sr1       1.0  0.8054342865943909  0.9835057258605958  0.4354217350482941  1.0000
