data_image0
_chemical_formula_structural       HHo5PPdSi3
_chemical_formula_sum              "H1 Ho5 P1 Pd1 Si3"
_cell_length_a       4.863219113372103
_cell_length_b       7.244074346388563
_cell_length_c       7.665892124176025
_cell_angle_alpha    118.4879711177822
_cell_angle_beta     88.97446287647757
_cell_angle_gamma    89.46408977454374

_space_group_name_H-M_alt    "P 1"
_space_group_IT_number       1

loop_
  _space_group_symop_operation_xyz
  'x, y, z'

loop_
  _atom_site_type_symbol
  _atom_site_label
  _atom_site_symmetry_multiplicity
  _atom_site_fract_x
  _atom_site_fract_y
  _atom_site_fract_z
  _atom_site_occupancy
  H   H1        1.0  0.06094325706362725  0.31138691306114197  0.2813631296157837  1.0000
  Ho  Ho1       1.0  0.5543585419654846  0.2920955419540405  0.4217250645160675  1.0000
  Ho  Ho2       1.0  0.05431210249662399  0.9782962203025818  0.6874595284461975  1.0000
  Ho  Ho3       1.0  0.5532785654067993  0.25260552763938904  0.6847450137138367  1.0000
  Ho  Ho4       1.0  0.5544769167900085  0.7227845191955566  0.530674934387207  1.0000
  Ho  Ho5       1.0  0.5531402826309204  0.8425995111465454  0.9957526922225952  1.0000
  P   P1        1.0  0.053813304752111435  0.03791510686278343  0.986136257648468  1.0000
  Pd  Pd1       1.0  0.5500786304473877  0.5667471289634705  0.790410578250885  1.0000
  Si  Si1       1.0  0.05215027928352356  0.5843503475189209  0.5574551820755005  1.0000
  Si  Si2       1.0  0.5506678223609924  0.23410002887248993  0.4923255145549774  1.0000
  Si  Si3       1.0  0.0479930154979229  0.061078622937202454  0.5227894186973572  1.0000
