data_image0
_chemical_formula_structural       H2Ho5PSi2V
_chemical_formula_sum              "H2 Ho5 P1 Si2 V1"
_cell_length_a       4.869757452332289
_cell_length_b       7.008573199991079
_cell_length_c       7.421462059020996
_cell_angle_alpha    118.84710236066961
_cell_angle_beta     89.51321566248227
_cell_angle_gamma    89.163107599963

_space_group_name_H-M_alt    "P 1"
_space_group_IT_number       1

loop_
  _space_group_symop_operation_xyz
  'x, y, z'

loop_
  _atom_site_type_symbol
  _atom_site_label
  _atom_site_symmetry_multiplicity
  _atom_site_fract_x
  _atom_site_fract_y
  _atom_site_fract_z
  _atom_site_occupancy
  H   H1        1.0  0.943758487701416  0.11298666894435883  0.7074209451675415  1.0000
  H   H2        1.0  0.44521793723106384  0.22588986158370972  0.891430139541626  1.0000
  Ho  Ho1       1.0  0.9441027641296387  0.5540921688079834  0.4849785566329956  1.0000
  Ho  Ho2       1.0  0.9449848532676697  0.30663415789604187  0.4585176408290863  1.0000
  Ho  Ho3       1.0  0.4433206617832184  0.1102529764175415  0.666591465473175  1.0000
  Ho  Ho4       1.0  0.9427635669708252  0.9556022882461548  0.8636329174041748  1.0000
  Ho  Ho5       1.0  0.4432617723941803  0.6332688927650452  0.17002087831497198  1.0000
  P   P1        1.0  0.9458811283111572  0.7909108400344849  0.38672366738319397  1.0000
  Si  Si1       1.0  0.4315430521965027  0.023078689351677895  0.29736462235450745  1.0000
  Si  Si2       1.0  0.9394315481185913  0.3155291676521301  0.7556703686714172  1.0000
  V   V1        1.0  0.4478338360786438  0.9479070901870728  0.6300225853919983  1.0000
