data_image0
_chemical_formula_structural       Ge3H2Ho3Si3
_chemical_formula_sum              "Ge3 H2 Ho3 Si3"
_cell_length_a       4.261492592939889
_cell_length_b       7.0532140542998345
_cell_length_c       7.612971305847168
_cell_angle_alpha    101.60303537514423
_cell_angle_beta     89.79587875614116
_cell_angle_gamma    89.18096593282549

_space_group_name_H-M_alt    "P 1"
_space_group_IT_number       1

loop_
  _space_group_symop_operation_xyz
  'x, y, z'

loop_
  _atom_site_type_symbol
  _atom_site_label
  _atom_site_symmetry_multiplicity
  _atom_site_fract_x
  _atom_site_fract_y
  _atom_site_fract_z
  _atom_site_occupancy
  Ge  Ge1       1.0  0.5257501006126404  0.8738763928413391  0.5220428705215454  1.0000
  Ge  Ge2       1.0  0.5150666236877441  0.6173281073570251  0.8411340713500975  1.0000
  Ge  Ge3       1.0  0.5284995436668396  0.1861281394958496  0.5191461443901062  1.0000
  H   H1        1.0  0.4988161325454712  0.6257424354553223  0.0824972540140152  1.0000
  H   H2        1.0  0.8015474677085876  0.3621903359889984  0.2649764120578766  1.0000
  Ho  Ho1       1.0  0.025218641385436058  0.13273759186267853  0.34543606638908386  1.0000
  Ho  Ho2       1.0  0.03918013349175453  0.43941250443458557  0.15867507457733154  1.0000
  Ho  Ho3       1.0  0.03143073990941048  0.601324200630188  0.8966640233993529  1.0000
  Si  Si1       1.0  0.02157183736562729  0.951740026473999  0.5951286554336548  1.0000
  Si  Si2       1.0  0.5303429961204529  0.19966372847557068  0.9570636153221129  1.0000
  Si  Si3       1.0  0.5319111347198486  0.7930017113685608  0.6944066286087036  1.0000
