data_image0
_chemical_formula_structural       B2Ge2Ho2Pd4Si
_chemical_formula_sum              "B2 Ge2 Ho2 Pd4 Si1"
_cell_length_a       4.696716410388357
_cell_length_b       6.330163374960625
_cell_length_c       7.05554723739624
_cell_angle_alpha    114.63536841500536
_cell_angle_beta     102.74284919017441
_cell_angle_gamma    89.8687945619722

_space_group_name_H-M_alt    "P 1"
_space_group_IT_number       1

loop_
  _space_group_symop_operation_xyz
  'x, y, z'

loop_
  _atom_site_type_symbol
  _atom_site_label
  _atom_site_symmetry_multiplicity
  _atom_site_fract_x
  _atom_site_fract_y
  _atom_site_fract_z
  _atom_site_occupancy
  B   B1        1.0  0.624230146408081  0.16671274602413177  0.34056028723716736  1.0000
  B   B2        1.0  0.3961944878101349  0.8538224697113037  0.705118715763092  1.0000
  Ge  Ge1       1.0  0.9102988839149475  0.8018344044685364  0.009354866109788418  1.0000
  Ge  Ge2       1.0  0.3591248393058777  0.308758944272995  0.08135715872049332  1.0000
  Ho  Ho1       1.0  0.8730421662330627  0.5310016870498657  0.04609525203704834  1.0000
  Ho  Ho2       1.0  0.9123501181602478  0.3791801333427429  0.19217084348201752  1.0000
  Pd  Pd1       1.0  0.4115954339504242  0.635075032711029  0.07662121951580048  1.0000
  Pd  Pd2       1.0  0.3999082148075104  0.5841122269630432  0.7084291577339172  1.0000
  Pd  Pd3       1.0  0.14961174130439758  0.06648826599121094  0.46636131405830383  1.0000
  Pd  Pd4       1.0  0.8666514754295349  0.06223450228571892  0.6968667507171631  1.0000
  Si  Si1       1.0  0.41199856996536255  0.8217918276786804  0.6355165839195251  1.0000
