data_image0
_chemical_formula_structural       Ge5HHoPd3Si
_chemical_formula_sum              "Ge5 H1 Ho1 Pd3 Si1"
_cell_length_a       5.037923230993624
_cell_length_b       6.17745279084737
_cell_length_c       6.851582050323486
_cell_angle_alpha    116.69439885747038
_cell_angle_beta     92.62836341816025
_cell_angle_gamma    90.52798415905606

_space_group_name_H-M_alt    "P 1"
_space_group_IT_number       1

loop_
  _space_group_symop_operation_xyz
  'x, y, z'

loop_
  _atom_site_type_symbol
  _atom_site_label
  _atom_site_symmetry_multiplicity
  _atom_site_fract_x
  _atom_site_fract_y
  _atom_site_fract_z
  _atom_site_occupancy
  Ge  Ge1       1.0  0.43252143263816833  0.30812278389930725  0.2435126453638077  1.0000
  Ge  Ge2       1.0  0.901060163974762  0.9105903506278992  0.5545400977134705  1.0000
  Ge  Ge3       1.0  0.9057391285896301  0.41144537925720215  0.06057651713490487  1.0000
  Ge  Ge4       1.0  0.16849468648433685  0.001651167869567871  0.5264191627502441  1.0000
  Ge  Ge5       1.0  0.3899228572845459  0.515347421169281  0.6415165066719055  1.0000
  H   H1        1.0  0.40675318241119385  0.6814083456993103  0.5109575986862183  1.0000
  Ho  Ho1       1.0  0.6842027306556702  0.6722444295883179  0.5458245873451233  1.0000
  Pd  Pd1       1.0  0.4265955686569214  0.3348800241947174  0.7470387816429139  1.0000
  Pd  Pd2       1.0  0.9071869850158691  0.014398446306586266  0.580176591873169  1.0000
  Pd  Pd3       1.0  0.9317248463630676  0.8743146657943726  0.8570098280906678  1.0000
  Si  Si1       1.0  0.17647191882133484  0.9956334233283997  0.11108756065368654  1.0000
