data_image0
_chemical_formula_structural       BGe2HHo5PdV
_chemical_formula_sum              "B1 Ge2 H1 Ho5 Pd1 V1"
_cell_length_a       4.2813267776705946
_cell_length_b       6.702498424437295
_cell_length_c       7.403845310211182
_cell_angle_alpha    109.43211961403108
_cell_angle_beta     88.84380611650569
_cell_angle_gamma    89.0715321025756

_space_group_name_H-M_alt    "P 1"
_space_group_IT_number       1

loop_
  _space_group_symop_operation_xyz
  'x, y, z'

loop_
  _atom_site_type_symbol
  _atom_site_label
  _atom_site_symmetry_multiplicity
  _atom_site_fract_x
  _atom_site_fract_y
  _atom_site_fract_z
  _atom_site_occupancy
  B   B1        1.0  0.5339681506156921  0.3768812417984009  0.04562811180949211  1.0000
  Ge  Ge1       1.0  0.5321325063705444  0.23074297606945038  0.7937795519828796  1.0000
  Ge  Ge2       1.0  0.5363389253616333  0.2310410588979721  0.7546992897987366  1.0000
  H   H1        1.0  0.022528650239109993  0.6984142661094666  0.023422585800290108  1.0000
  Ho  Ho1       1.0  0.029160885140299797  0.8575972318649292  0.7965478301048279  1.0000
  Ho  Ho2       1.0  0.5312815308570862  0.2133098542690277  0.516305685043335  1.0000
  Ho  Ho3       1.0  0.5333204865455627  0.9674867391586304  0.29858025908470154  1.0000
  Ho  Ho4       1.0  0.03310543671250343  0.7109972834587097  0.6169352531433105  1.0000
  Ho  Ho5       1.0  0.530753493309021  0.7148221731185913  0.7563906311988831  1.0000
  Pd  Pd1       1.0  0.036466240882873535  0.23265936970710754  0.45287168025970453  1.0000
  V   V1        1.0  0.03308556601405144  0.7193931937217712  0.02828913182020187  1.0000
