data_image0
_chemical_formula_structural       As4Np2
_chemical_formula_sum              "As4 Np2"
_cell_length_a       3.9716259205650144
_cell_length_b       4.127483339664407
_cell_length_c       8.119784355163574
_cell_angle_alpha    89.86371747427124
_cell_angle_beta     103.70047707731145
_cell_angle_gamma    89.93784833094702

_space_group_name_H-M_alt    "P 1"
_space_group_IT_number       1

loop_
  _space_group_symop_operation_xyz
  'x, y, z'

loop_
  _atom_site_type_symbol
  _atom_site_label
  _atom_site_symmetry_multiplicity
  _atom_site_fract_x
  _atom_site_fract_y
  _atom_site_fract_z
  _atom_site_occupancy
  As  As1       1.0  0.37886735796928406  0.4692131280899048  0.10877864807844162  1.0000
  As  As2       1.0  0.24683478474617004  0.9689076542854309  0.8643494248390198  1.0000
  As  As3       1.0  0.05154293030500412  0.4696876108646393  0.4788721203804016  1.0000
  As  As4       1.0  0.5568526983261108  0.9710087180137634  0.4818151295185089  1.0000
  Np  Np1       1.0  0.6991938352584839  0.4691976308822632  0.7737886905670167  1.0000
  Np  Np2       1.0  0.9128955602645874  0.9691106677055359  0.18861159682273865  1.0000
