data_image0
_chemical_formula_structural       As3Np3
_chemical_formula_sum              "As3 Np3"
_cell_length_a       4.233939939667815
_cell_length_b       4.2334681078432155
_cell_length_c       8.39658260345459
_cell_angle_alpha    104.02702966022592
_cell_angle_beta     104.5749781078718
_cell_angle_gamma    90.11657122600812

_space_group_name_H-M_alt    "P 1"
_space_group_IT_number       1

loop_
  _space_group_symop_operation_xyz
  'x, y, z'

loop_
  _atom_site_type_symbol
  _atom_site_label
  _atom_site_symmetry_multiplicity
  _atom_site_fract_x
  _atom_site_fract_y
  _atom_site_fract_z
  _atom_site_occupancy
  As  As1       1.0  0.7595363259315491  0.5627025365829468  0.3457111418247223  1.0000
  As  As2       1.0  0.5510291457176208  0.8635861277580261  0.9275097846984863  1.0000
  As  As3       1.0  0.2625983953475952  0.06539713591337204  0.34605950117111206  1.0000
  Np  Np1       1.0  0.918690025806427  0.2051962912082672  0.6599795818328857  1.0000
  Np  Np2       1.0  0.12278933078050613  0.4261396825313568  0.06987040489912033  1.0000
  Np  Np3       1.0  0.36549484729766846  0.6706949472427368  0.5608996748924255  1.0000
