data_image0
_chemical_formula_structural       GdHNbPTeW
_chemical_formula_sum              "Gd1 H1 Nb1 P1 Te1 W1"
_cell_length_a       3.877887173976404
_cell_length_b       3.8879532055242225
_cell_length_c       9.072798728942871
_cell_angle_alpha    77.56706003882385
_cell_angle_beta     77.40130951813872
_cell_angle_gamma    59.932336385805606

_space_group_name_H-M_alt    "P 1"
_space_group_IT_number       1

loop_
  _space_group_symop_operation_xyz
  'x, y, z'

loop_
  _atom_site_type_symbol
  _atom_site_label
  _atom_site_symmetry_multiplicity
  _atom_site_fract_x
  _atom_site_fract_y
  _atom_site_fract_z
  _atom_site_occupancy
  Gd  Gd1       1.0  0.5895128846168518  0.960695743560791  0.042282078415155425  1.0000
  H   H1        1.0  0.901202380657196  0.27696555852890015  0.10030841827392581  1.0000
  Nb  Nb1       1.0  0.8158441781997681  0.19282148778438568  0.3407280445098877  1.0000
  P   P1        1.0  0.1613219678401947  0.5327758193016052  0.3169991672039032  1.0000
  Te  Te1       1.0  0.34370988607406616  0.7152977585792542  0.7699131965637207  1.0000
  W   W1        1.0  0.07923995703458786  0.45853549242019653  0.5556915998458863  1.0000
