data_image0
_chemical_formula_structural       Cd2Cl6
_chemical_formula_sum              "Cd2 Cl6"
_cell_length_a       5.227648968220797
_cell_length_b       6.354554845859758
_cell_length_c       10.543187141418457
_cell_angle_alpha    89.63055562787629
_cell_angle_beta     91.00589518440268
_cell_angle_gamma    89.89470884243222

_space_group_name_H-M_alt    "P 1"
_space_group_IT_number       1

loop_
  _space_group_symop_operation_xyz
  'x, y, z'

loop_
  _atom_site_type_symbol
  _atom_site_label
  _atom_site_symmetry_multiplicity
  _atom_site_fract_x
  _atom_site_fract_y
  _atom_site_fract_z
  _atom_site_occupancy
  Cd  Cd1       1.0  0.43767336010932917  0.3883512020111084  0.14140421152114868  1.0000
  Cd  Cd2       1.0  0.08037132024765015  0.11608901619911194  0.6230188012123108  1.0000
  Cl  Cl1       1.0  0.7523152828216553  0.35073116421699524  0.22279317677021027  1.0000
  Cl  Cl2       1.0  0.9449381232261657  0.39825689792633057  0.9600373506546018  1.0000
  Cl  Cl3       1.0  0.933319330215454  0.8662107586860657  0.8782895803451538  1.0000
  Cl  Cl4       1.0  0.4265963733196258  0.8694161772727966  0.715600848197937  1.0000
  Cl  Cl5       1.0  0.4347161948680877  0.8736185431480408  0.5484930276870728  1.0000
  Cl  Cl6       1.0  0.7666455507278442  0.9292001128196716  0.27412191033363337  1.0000
