data_image0
_chemical_formula_structural       CCd3Cl4
_chemical_formula_sum              "C1 Cd3 Cl4"
_cell_length_a       4.340932223362941
_cell_length_b       5.470237096191658
_cell_length_c       11.238183975219727
_cell_angle_alpha    89.92811527303786
_cell_angle_beta     89.57990850787064
_cell_angle_gamma    89.54391304266821

_space_group_name_H-M_alt    "P 1"
_space_group_IT_number       1

loop_
  _space_group_symop_operation_xyz
  'x, y, z'

loop_
  _atom_site_type_symbol
  _atom_site_label
  _atom_site_symmetry_multiplicity
  _atom_site_fract_x
  _atom_site_fract_y
  _atom_site_fract_z
  _atom_site_occupancy
  C   C1        1.0  0.7562444806098938  0.5707492828369141  0.7054260969161987  1.0000
  Cd  Cd1       1.0  0.2525184750556946  0.11035749316215515  0.5987865924835205  1.0000
  Cd  Cd2       1.0  0.7595593929290771  0.5803454518318176  0.9282062649726868  1.0000
  Cd  Cd3       1.0  0.25888705253601074  0.1061725914478302  0.21434469521045685  1.0000
  Cl  Cl1       1.0  0.763194739818573  0.9058624505996704  0.7339920997619629  1.0000
  Cl  Cl2       1.0  0.32260751724243164  0.46339771151542664  0.4467865526676178  1.0000
  Cl  Cl3       1.0  0.7791590690612793  0.5382033586502075  0.24454843997955322  1.0000
  Cl  Cl4       1.0  0.27451321482658386  0.9003461599349976  0.22022616863250732  1.0000
