data_image0
_chemical_formula_structural       Cd4Cl4
_chemical_formula_sum              "Cd4 Cl4"
_cell_length_a       6.645821839831563
_cell_length_b       7.367353933336764
_cell_length_c       9.90101432800293
_cell_angle_alpha    89.15653077362782
_cell_angle_beta     89.49211332835316
_cell_angle_gamma    96.6438163504199

_space_group_name_H-M_alt    "P 1"
_space_group_IT_number       1

loop_
  _space_group_symop_operation_xyz
  'x, y, z'

loop_
  _atom_site_type_symbol
  _atom_site_label
  _atom_site_symmetry_multiplicity
  _atom_site_fract_x
  _atom_site_fract_y
  _atom_site_fract_z
  _atom_site_occupancy
  Cd  Cd1       1.0  0.7442514300346373  0.9794670343399048  0.5279226303100586  1.0000
  Cd  Cd2       1.0  0.7542660832405089  0.23044024407863617  0.37720274925231934  1.0000
  Cd  Cd3       1.0  0.25168463587760925  0.7032832503318787  0.9772487878799437  1.0000
  Cd  Cd4       1.0  0.23705942928791043  0.4956432580947876  0.7963682413101196  1.0000
  Cl  Cl1       1.0  0.3264262080192566  0.489793062210083  0.6621637344360352  1.0000
  Cl  Cl2       1.0  0.5637854337692261  0.9806490540504456  0.745654284954071  1.0000
  Cl  Cl3       1.0  0.9385872483253478  0.4932146966457367  0.1942220479249954  1.0000
  Cl  Cl4       1.0  0.24727191030979154  0.042031217366456985  0.4244278073310852  1.0000
