data_image0
_chemical_formula_structural       GaIV2ZnZr
_chemical_formula_sum              "Ga1 I1 V2 Zn1 Zr1"
_cell_length_a       4.883386448834762
_cell_length_b       4.709112114198725
_cell_length_c       5.365009307861328
_cell_angle_alpha    120.2382393240748
_cell_angle_beta     118.40991652659422
_cell_angle_gamma    102.98338513696565

_space_group_name_H-M_alt    "P 1"
_space_group_IT_number       1

loop_
  _space_group_symop_operation_xyz
  'x, y, z'

loop_
  _atom_site_type_symbol
  _atom_site_label
  _atom_site_symmetry_multiplicity
  _atom_site_fract_x
  _atom_site_fract_y
  _atom_site_fract_z
  _atom_site_occupancy
  Ga  Ga1       1.0  0.2091693133115769  0.4112348854541779  0.4801726639270783  1.0000
  I   I1        1.0  0.14766031503677368  0.9457676410675049  0.8074861168861389  1.0000
  V   V1        1.0  0.6478444933891296  0.362271636724472  0.4339858293533325  1.0000
  V   V2        1.0  0.668411374092102  0.8111443519592285  0.16330532729625705  1.0000
  Zn  Zn1       1.0  0.8280707001686097  0.020347248762846153  0.8461551666259767  1.0000
  Zr  Zr1       1.0  0.8472201824188232  0.6446794867515565  0.7656649351119996  1.0000
