data_image0
_chemical_formula_structural       Cl4V2
_chemical_formula_sum              "Cl4 V2"
_cell_length_a       5.148291890956912
_cell_length_b       4.984345187079761
_cell_length_c       6.291107654571533
_cell_angle_alpha    114.49553520674596
_cell_angle_beta     116.96523045817497
_cell_angle_gamma    89.01591464256842

_space_group_name_H-M_alt    "P 1"
_space_group_IT_number       1

loop_
  _space_group_symop_operation_xyz
  'x, y, z'

loop_
  _atom_site_type_symbol
  _atom_site_label
  _atom_site_symmetry_multiplicity
  _atom_site_fract_x
  _atom_site_fract_y
  _atom_site_fract_z
  _atom_site_occupancy
  Cl  Cl1       1.0  0.16132649779319763  0.683128297328949  0.6508888006210327  1.0000
  Cl  Cl2       1.0  0.5754363536834717  0.2946275770664215  0.9409067034721375  1.0000
  Cl  Cl3       1.0  0.1735498458147049  0.7127580642700195  0.061652377247810294  1.0000
  Cl  Cl4       1.0  0.426451712846756  0.1457253247499466  0.7978020310401917  1.0000
  V   V1        1.0  0.6823814511299133  0.44610923528671265  0.8933263421058655  1.0000
  V   V2        1.0  0.701022744178772  0.8191293478012085  0.1630820631980896  1.0000
