data_image0
_chemical_formula_structural       FLi4PSr6TiZr
_chemical_formula_sum              "F1 Li4 P1 Sr6 Ti1 Zr1"
_cell_length_a       4.778637318025611
_cell_length_b       7.192541374953011
_cell_length_c       6.6367058753967285
_cell_angle_alpha    53.146578962209446
_cell_angle_beta     12.90569398814697
_cell_angle_gamma    55.620244785977924

_space_group_name_H-M_alt    "P 1"
_space_group_IT_number       1

loop_
  _space_group_symop_operation_xyz
  'x, y, z'

loop_
  _atom_site_type_symbol
  _atom_site_label
  _atom_site_symmetry_multiplicity
  _atom_site_fract_x
  _atom_site_fract_y
  _atom_site_fract_z
  _atom_site_occupancy
  F   F1        1.0  0.7299000620841978  0.32227614521980286  0.9080156087875367  1.0000
  Li  Li1       1.0  0.3061862289905548  0.7309808135032654  0.6849024891853333  1.0000
  Li  Li2       1.0  0.17426727712154388  0.7567586898803711  0.173648402094841  1.0000
  Li  Li3       1.0  0.7848224639892576  0.988840639591217  0.8102481961250306  1.0000
  Li  Li4       1.0  0.9309548735618591  0.43023186922073364  0.330687701702118  1.0000
  P   P1        1.0  0.43903604149818404  0.026108695194125175  0.6409224867820741  1.0000
  Sr  Sr1       1.0  0.7658937573432922  0.5455045104026794  0.19473017752170566  1.0000
  Sr  Sr2       1.0  0.8994553685188293  0.021180862560868263  0.38249194622039795  1.0000
  Sr  Sr3       1.0  0.35514855384826644  0.24295394122600555  0.3334425985813142  1.0000
  Sr  Sr4       1.0  0.3372728228569029  0.37111636996269226  0.9258414506912233  1.0000
  Sr  Sr5       1.0  0.42391785979270935  0.1677994281053543  0.2138148695230484  1.0000
  Sr  Sr6       1.0  0.2502526640892029  0.7270098924636841  0.3631929755210877  1.0000
  Ti  Ti1       1.0  0.43278303742408775  0.6767802238464355  0.9453813433647155  1.0000
  Zr  Zr1       1.0  0.8490278720855713  0.7680853605270386  0.36875286698341375  1.0000
