data_image0
_chemical_formula_structural       GeILi2OSr8Tb
_chemical_formula_sum              "Ge1 I1 Li2 O1 Sr8 Tb1"
_cell_length_a       7.529000585251874
_cell_length_b       7.628948809336037
_cell_length_c       7.594579696655273
_cell_angle_alpha    60.06585049140802
_cell_angle_beta     57.79293224709161
_cell_angle_gamma    59.69911951271795

_space_group_name_H-M_alt    "P 1"
_space_group_IT_number       1

loop_
  _space_group_symop_operation_xyz
  'x, y, z'

loop_
  _atom_site_type_symbol
  _atom_site_label
  _atom_site_symmetry_multiplicity
  _atom_site_fract_x
  _atom_site_fract_y
  _atom_site_fract_z
  _atom_site_occupancy
  Ge  Ge1       1.0  0.2237381935119629  0.3624446392059326  0.08174224942922592  1.0000
  I   I1        1.0  0.8583301901817322  0.7250317335128784  0.6297953128814697  1.0000
  Li  Li1       1.0  0.6578509211540222  0.6081514954566956  0.738340437412262  1.0000
  Li  Li2       1.0  0.04915212094783783  0.5240357518196106  0.039481841027736664  1.0000
  O   O1        1.0  0.721192479133606  0.4543735086917878  0.050591230392456055  1.0000
  Sr  Sr1       1.0  0.1051400899887085  0.7739453911781311  0.5797321200370789  1.0000
  Sr  Sr2       1.0  0.5527915358543396  0.8434054255485536  0.7349270582199097  1.0000
  Sr  Sr3       1.0  0.538902223110199  0.59035724401474  0.9816451668739319  1.0000
  Sr  Sr4       1.0  0.9804210066795349  0.9721922278404237  0.36713096499443054  1.0000
  Sr  Sr5       1.0  0.6148189306259155  0.1397210955619812  0.1412121057510376  1.0000
  Sr  Sr6       1.0  0.8592943549156189  0.6897359490394592  0.18826530873775482  1.0000
  Sr  Sr7       1.0  0.033314768224954605  0.5384082794189453  0.0906212329864502  1.0000
  Sr  Sr8       1.0  0.9862114787101746  0.3362239599227905  0.16450774669647217  1.0000
  Tb  Tb1       1.0  0.521954357624054  0.22894155979156497  0.6807257533073425  1.0000
