data_image0
_chemical_formula_structural       I2Li8OPSr2
_chemical_formula_sum              "I2 Li8 O1 P1 Sr2"
_cell_length_a       7.70268491217557
_cell_length_b       7.572274487949951
_cell_length_c       7.672482013702393
_cell_angle_alpha    60.934358707512615
_cell_angle_beta     63.1830169487742
_cell_angle_gamma    61.15908679849714

_space_group_name_H-M_alt    "P 1"
_space_group_IT_number       1

loop_
  _space_group_symop_operation_xyz
  'x, y, z'

loop_
  _atom_site_type_symbol
  _atom_site_label
  _atom_site_symmetry_multiplicity
  _atom_site_fract_x
  _atom_site_fract_y
  _atom_site_fract_z
  _atom_site_occupancy
  I   I1        1.0  0.7913849353790282  0.7565230131149293  0.708329439163208  1.0000
  I   I2        1.0  0.5043913722038269  0.686305820941925  0.11029990762472153  1.0000
  Li  Li1       1.0  0.7498986124992371  0.4250342249870301  0.041649919003248215  1.0000
  Li  Li2       1.0  0.5713239908218383  0.8966593146324159  0.9876320362091064  1.0000
  Li  Li3       1.0  0.04535561054944992  0.5836220979690552  0.9795773029327393  1.0000
  Li  Li4       1.0  0.2655869722366332  0.9697832465171815  0.6676965355873108  1.0000
  Li  Li5       1.0  0.36198094487190247  0.7613715529441835  0.32688334584236145  1.0000
  Li  Li6       1.0  0.5287302732467651  0.8181850910186769  0.29602712392807007  1.0000
  Li  Li7       1.0  0.9644199013710021  0.7687650918960572  0.16425402462482452  1.0000
  Li  Li8       1.0  0.33829787373542786  0.8140587806701661  0.1299668252468109  1.0000
  O   O1        1.0  0.346253365278244  0.3994273245334626  0.45387277007102966  1.0000
  P   P1        1.0  0.5575103759765625  0.1993457078933716  0.49769127368927  1.0000
  Sr  Sr1       1.0  0.8152945637702941  0.7796019911766053  0.893456757068634  1.0000
  Sr  Sr2       1.0  0.9428707361221312  0.5298833847045898  0.5932114720344543  1.0000
