data_image0
_chemical_formula_structural       Li8O2Sr3Ta
_chemical_formula_sum              "Li8 O2 Sr3 Ta1"
_cell_length_a       4.864051360131228
_cell_length_b       4.5813964831404785
_cell_length_c       5.8974103927612305
_cell_angle_alpha    91.96633668585461
_cell_angle_beta     90.55295458299945
_cell_angle_gamma    90.88638617023835

_space_group_name_H-M_alt    "P 1"
_space_group_IT_number       1

loop_
  _space_group_symop_operation_xyz
  'x, y, z'

loop_
  _atom_site_type_symbol
  _atom_site_label
  _atom_site_symmetry_multiplicity
  _atom_site_fract_x
  _atom_site_fract_y
  _atom_site_fract_z
  _atom_site_occupancy
  Li  Li1       1.0  0.08306727558374405  0.9342873096466064  0.30156534910202026  1.0000
  Li  Li2       1.0  0.12538360059261322  0.6570257544517517  0.34482184052467346  1.0000
  Li  Li3       1.0  0.3013080656528473  0.09129682928323746  0.6362866759300232  1.0000
  Li  Li4       1.0  0.6172088384628296  0.03351734206080437  0.7016165852546692  1.0000
  Li  Li5       1.0  0.892983317375183  0.8715518712997437  0.4417026340961457  1.0000
  Li  Li6       1.0  0.6084540486335754  0.5170671343803406  0.41785562038421636  1.0000
  Li  Li7       1.0  0.5996512174606323  0.6597104072570801  0.7961543202400209  1.0000
  Li  Li8       1.0  0.36299917101860046  0.5074818134307861  0.6520295739173889  1.0000
  O   O1        1.0  0.08631615340709686  0.266725093126297  0.9432010054588319  1.0000
  O   O2        1.0  0.02576170675456524  0.43797335028648376  0.27382156252861023  1.0000
  Sr  Sr1       1.0  0.5576507449150085  0.07882435619831085  0.40770950913429266  1.0000
  Sr  Sr2       1.0  0.559463620185852  0.5755535364151001  0.712711751461029  1.0000
  Sr  Sr3       1.0  0.017133379355072975  0.4690098464488983  0.429695874452591  1.0000
  Ta  Ta1       1.0  0.5755606293678284  0.5006424188613892  0.42137193679809576  1.0000
