data_image0
_chemical_formula_structural       Li6O3SrTa4
_chemical_formula_sum              "Li6 O3 Sr1 Ta4"
_cell_length_a       6.020813872076175
_cell_length_b       6.138956563691277
_cell_length_c       5.756235599517822
_cell_angle_alpha    91.11050499870508
_cell_angle_beta     89.4845996542585
_cell_angle_gamma    93.65392427842187

_space_group_name_H-M_alt    "P 1"
_space_group_IT_number       1

loop_
  _space_group_symop_operation_xyz
  'x, y, z'

loop_
  _atom_site_type_symbol
  _atom_site_label
  _atom_site_symmetry_multiplicity
  _atom_site_fract_x
  _atom_site_fract_y
  _atom_site_fract_z
  _atom_site_occupancy
  Li  Li1       1.0  0.0890410915017128  0.5846458673477173  0.1718631088733673  1.0000
  Li  Li2       1.0  0.2170686423778534  0.6254015564918518  0.9400963187217711  1.0000
  Li  Li3       1.0  0.6815707683563232  0.9672712683677673  0.018366815522313118  1.0000
  Li  Li4       1.0  0.20105241239070892  0.9589211940765381  0.6306160092353821  1.0000
  Li  Li5       1.0  0.6021878719329834  0.5540798902511597  0.48517328500747675  1.0000
  Li  Li6       1.0  0.7429443597793579  0.2435799092054367  0.6107887625694275  1.0000
  O   O1        1.0  0.6639740467071533  0.4436311721801758  0.9626357555389403  1.0000
  O   O2        1.0  0.23698735237121582  0.7597595453262329  0.04381521791219711  1.0000
  O   O3        1.0  0.7355043888092041  0.7058823704719543  0.3778906762599945  1.0000
  Sr  Sr1       1.0  0.22359055280685425  0.2989193797111511  0.6771845817565918  1.0000
  Ta  Ta1       1.0  0.7260135412216187  0.7559618949890137  0.15815456211566925  1.0000
  Ta  Ta2       1.0  0.7292265295982361  0.7547658681869507  0.5416350960731506  1.0000
  Ta  Ta3       1.0  0.23796609044075012  0.7133021950721741  0.23754048347473142  1.0000
  Ta  Ta4       1.0  0.21911108493804932  0.998809278011322  0.5316866040229797  1.0000
