data_image0
_chemical_formula_structural       GdILi4OPSr5V
_chemical_formula_sum              "Gd1 I1 Li4 O1 P1 Sr5 V1"
_cell_length_a       7.0730629934107645
_cell_length_b       6.824292921532601
_cell_length_c       8.128616333007812
_cell_angle_alpha    79.62115218492282
_cell_angle_beta     71.1459428945833
_cell_angle_gamma    63.3812194356226

_space_group_name_H-M_alt    "P 1"
_space_group_IT_number       1

loop_
  _space_group_symop_operation_xyz
  'x, y, z'

loop_
  _atom_site_type_symbol
  _atom_site_label
  _atom_site_symmetry_multiplicity
  _atom_site_fract_x
  _atom_site_fract_y
  _atom_site_fract_z
  _atom_site_occupancy
  Gd  Gd1       1.0  0.5397018790245056  0.19392959773540497  0.983363151550293  1.0000
  I   I1        1.0  0.7911932468414306  0.18010348081588745  0.2863318026065827  1.0000
  Li  Li1       1.0  0.015394645743072031  0.6114672422409058  0.47951915860176086  1.0000
  Li  Li2       1.0  0.27018484473228455  0.739932119846344  0.35353612899780273  1.0000
  Li  Li3       1.0  0.28210294246673584  0.46871823072433466  0.26429805159568787  1.0000
  Li  Li4       1.0  0.5282763838768005  0.7743915319442749  0.7085385918617249  1.0000
  O   O1        1.0  0.2709217071533203  0.389911025762558  0.5990689396858215  1.0000
  P   P1        1.0  0.5629158020019531  0.8626133203506469  0.2603143751621247  1.0000
  Sr  Sr1       1.0  0.53382807970047  0.9089812040328978  0.09520601481199265  1.0000
  Sr  Sr2       1.0  0.2783850133419037  0.2531224489212036  0.3626663386821747  1.0000
  Sr  Sr3       1.0  0.764968454837799  0.481284350156784  0.6793265342712402  1.0000
  Sr  Sr4       1.0  0.7882491946220397  0.6701763868331909  0.39420112967491155  1.0000
  Sr  Sr5       1.0  0.49626016616821284  0.3642251193523407  0.8224657773971558  1.0000
  V   V1        1.0  0.26552408933639526  0.058831755071878426  0.13031277060508728  1.0000
