data_image0
_chemical_formula_structural       B3Se2Tl
_chemical_formula_sum              "B3 Se2 Tl1"
_cell_length_a       5.32525597114956
_cell_length_b       5.49336802464434
_cell_length_c       5.984944820404053
_cell_angle_alpha    64.95230749213381
_cell_angle_beta     61.99073438852128
_cell_angle_gamma    61.086111396190105

_space_group_name_H-M_alt    "P 1"
_space_group_IT_number       1

loop_
  _space_group_symop_operation_xyz
  'x, y, z'

loop_
  _atom_site_type_symbol
  _atom_site_label
  _atom_site_symmetry_multiplicity
  _atom_site_fract_x
  _atom_site_fract_y
  _atom_site_fract_z
  _atom_site_occupancy
  B   B1        1.0  0.39413973689079285  0.6070196628570557  0.05278611183166504  1.0000
  B   B2        1.0  0.9053561091423035  0.1374344527721405  0.5763153433799745  1.0000
  B   B3        1.0  0.9236361384391785  0.568425178527832  0.36954197287559515  1.0000
  Se  Se1       1.0  0.8968619704246521  0.6041871309280396  0.048050466924905846  1.0000
  Se  Se2       1.0  0.5505288243293762  0.9011061191558838  0.28539603948593145  1.0000
  Tl  Tl1       1.0  0.32021385431289673  0.8904126286506653  0.5555952191352844  1.0000
