data_image0
_chemical_formula_structural       B3Se3
_chemical_formula_sum              "B3 Se3"
_cell_length_a       4.435164772418298
_cell_length_b       4.529794985536175
_cell_length_c       6.95405387878418
_cell_angle_alpha    89.93272385832238
_cell_angle_beta     88.67802253291565
_cell_angle_gamma    93.39316465584447

_space_group_name_H-M_alt    "P 1"
_space_group_IT_number       1

loop_
  _space_group_symop_operation_xyz
  'x, y, z'

loop_
  _atom_site_type_symbol
  _atom_site_label
  _atom_site_symmetry_multiplicity
  _atom_site_fract_x
  _atom_site_fract_y
  _atom_site_fract_z
  _atom_site_occupancy
  B   B1        1.0  0.3876785933971405  0.47831323742866516  0.6193861365318298  1.0000
  B   B2        1.0  0.37103232741355896  0.46540001034736633  0.11419379711151122  1.0000
  B   B3        1.0  0.9500670433044434  0.7999387979507446  0.11389390379190444  1.0000
  Se  Se1       1.0  0.874713659286499  0.4561811089515686  0.3482903838157654  1.0000
  Se  Se2       1.0  0.4443528950214386  0.8036553859710693  0.616314172744751  1.0000
  Se  Se3       1.0  0.9105730652809143  0.9576621651649475  0.11493033170700072  1.0000
