data_image0
_chemical_formula_structural       GeILa2NiO2PZnZr
_chemical_formula_sum              "Ge1 I1 La2 Ni1 O2 P1 Zn1 Zr1"
_cell_length_a       5.153163608676537
_cell_length_b       5.668954184354403
_cell_length_c       6.8243937492370605
_cell_angle_alpha    110.22609085609407
_cell_angle_beta     107.94893542029308
_cell_angle_gamma    93.04439687427825

_space_group_name_H-M_alt    "P 1"
_space_group_IT_number       1

loop_
  _space_group_symop_operation_xyz
  'x, y, z'

loop_
  _atom_site_type_symbol
  _atom_site_label
  _atom_site_symmetry_multiplicity
  _atom_site_fract_x
  _atom_site_fract_y
  _atom_site_fract_z
  _atom_site_occupancy
  Ge  Ge1       1.0  0.07484307140111923  0.6984811425209045  0.22263932228088376  1.0000
  I   I1        1.0  0.06635978817939758  0.8406277298927307  0.7368468642234801  1.0000
  La  La1       1.0  0.07093282043933868  0.15674355626106262  0.5757677555084229  1.0000
  La  La2       1.0  0.06486853212118149  0.2743556797504425  0.3847974240779876  1.0000
  Ni  Ni1       1.0  0.562808096408844  0.30322420597076416  0.059428133070468896  1.0000
  O   O1        1.0  0.8248832821846008  0.8495043516159058  0.25908398628234863  1.0000
  O   O2        1.0  0.5492151379585266  0.4315319061279297  0.5997545719146729  1.0000
  P   P1        1.0  0.5702428817749023  0.7120327949523926  0.5625231862068176  1.0000
  Zn  Zn1       1.0  0.07992871105670929  0.12857912480831146  0.4146601557731628  1.0000
  Zr  Zr1       1.0  0.5646976232528687  0.07474958151578903  0.20340508222579953  1.0000
