data_image0
_chemical_formula_structural       GaI2La4NiOP
_chemical_formula_sum              "Ga1 I2 La4 Ni1 O1 P1"
_cell_length_a       6.87636860077988
_cell_length_b       7.190872120730247
_cell_length_c       8.163999557495117
_cell_angle_alpha    109.2606169123032
_cell_angle_beta     110.58963272574385
_cell_angle_gamma    99.58013137238811

_space_group_name_H-M_alt    "P 1"
_space_group_IT_number       1

loop_
  _space_group_symop_operation_xyz
  'x, y, z'

loop_
  _atom_site_type_symbol
  _atom_site_label
  _atom_site_symmetry_multiplicity
  _atom_site_fract_x
  _atom_site_fract_y
  _atom_site_fract_z
  _atom_site_occupancy
  Ga  Ga1       1.0  0.517778217792511  0.3918844163417816  0.12131952494382858  1.0000
  I   I1        1.0  0.8450955748558044  0.7244341969490051  0.41579315066337585  1.0000
  I   I2        1.0  0.02466302365064621  0.2960444986820221  0.7983441948890686  1.0000
  La  La1       1.0  0.5651630759239197  0.32368403673171997  0.5748646259307861  1.0000
  La  La2       1.0  0.5397902131080627  0.47632497549057007  0.620204508304596  1.0000
  La  La3       1.0  0.25976815819740295  0.241029292345047  0.592913031578064  1.0000
  La  La4       1.0  0.30362334847450256  0.06918002665042877  0.5409353971481323  1.0000
  Ni  Ni1       1.0  0.02606942690908909  0.28443506360054016  0.4595849812030792  1.0000
  O   O1        1.0  0.11845698207616806  0.5274636149406433  0.10651253908872602  1.0000
  P   P1        1.0  0.7643420100212097  0.6870520710945129  0.6663995385169983  1.0000
