data_image0
_chemical_formula_structural       La5Ni2O3
_chemical_formula_sum              "La5 Ni2 O3"
_cell_length_a       4.734855381736549
_cell_length_b       4.937134722025911
_cell_length_c       8.218499183654785
_cell_angle_alpha    91.76250686950361
_cell_angle_beta     85.28069825625624
_cell_angle_gamma    84.77900734162755

_space_group_name_H-M_alt    "P 1"
_space_group_IT_number       1

loop_
  _space_group_symop_operation_xyz
  'x, y, z'

loop_
  _atom_site_type_symbol
  _atom_site_label
  _atom_site_symmetry_multiplicity
  _atom_site_fract_x
  _atom_site_fract_y
  _atom_site_fract_z
  _atom_site_occupancy
  La  La1       1.0  0.5311091542243958  0.18888981640338898  0.8608247637748718  1.0000
  La  La2       1.0  0.8451604843139648  0.7646679282188416  0.5624823570251465  1.0000
  La  La3       1.0  0.8270742297172546  0.8423091769218446  0.9919850826263428  1.0000
  La  La4       1.0  0.29406002163887024  0.5849326252937317  0.45978081226348877  1.0000
  La  La5       1.0  0.524318277835846  0.04362672567367554  0.44080591201782227  1.0000
  Ni  Ni1       1.0  0.29880550503730774  0.26037779450416565  0.4944743812084198  1.0000
  Ni  Ni2       1.0  0.8248227834701538  0.924456298351288  0.35840490460395813  1.0000
  O   O1        1.0  0.831038236618042  0.8019396066665649  0.3522322177886963  1.0000
  O   O2        1.0  0.3109342157840729  0.17519165575504303  0.8625947833061218  1.0000
  O   O3        1.0  0.8196204304695129  0.8035897016525269  0.031709514558315284  1.0000
