data_image0
_chemical_formula_structural       La5Ni3O2
_chemical_formula_sum              "La5 Ni3 O2"
_cell_length_a       6.314541143046328
_cell_length_b       6.04935769714856
_cell_length_c       6.777299404144287
_cell_angle_alpha    71.43537240746203
_cell_angle_beta     60.71460692136838
_cell_angle_gamma    55.65610588383463

_space_group_name_H-M_alt    "P 1"
_space_group_IT_number       1

loop_
  _space_group_symop_operation_xyz
  'x, y, z'

loop_
  _atom_site_type_symbol
  _atom_site_label
  _atom_site_symmetry_multiplicity
  _atom_site_fract_x
  _atom_site_fract_y
  _atom_site_fract_z
  _atom_site_occupancy
  La  La1       1.0  0.4634208381175995  0.2430911809206009  0.6507160663604736  1.0000
  La  La2       1.0  0.9630846977233887  0.7625123858451843  0.46447503566741943  1.0000
  La  La3       1.0  0.45786720514297485  0.09624314308166504  0.8458585143089294  1.0000
  La  La4       1.0  0.45538395643234253  0.8129477500915527  0.3360567390918732  1.0000
  La  La5       1.0  0.963830828666687  0.24131055176258087  0.6033189296722412  1.0000
  Ni  Ni1       1.0  0.9715504050254822  0.20324771106243134  0.597024142742157  1.0000
  Ni  Ni2       1.0  0.9693481922149658  0.13492076098918915  0.49691855907440186  1.0000
  Ni  Ni3       1.0  0.46857112646102905  0.6839576363563538  0.5320377945899964  1.0000
  O   O1        1.0  0.5073304176330566  0.6260514855384827  0.03377633914351463  1.0000
  O   O2        1.0  0.919920802116394  0.311649888753891  0.0760590136051178  1.0000
