data_image0
_chemical_formula_structural       La5Ni2OZr2
_chemical_formula_sum              "La5 Ni2 O1 Zr2"
_cell_length_a       5.3331947083716456
_cell_length_b       3.972235352837871
_cell_length_c       7.679856300354004
_cell_angle_alpha    113.45597278482924
_cell_angle_beta     104.31794528316418
_cell_angle_gamma    123.48144863964039

_space_group_name_H-M_alt    "P 1"
_space_group_IT_number       1

loop_
  _space_group_symop_operation_xyz
  'x, y, z'

loop_
  _atom_site_type_symbol
  _atom_site_label
  _atom_site_symmetry_multiplicity
  _atom_site_fract_x
  _atom_site_fract_y
  _atom_site_fract_z
  _atom_site_occupancy
  La  La1       1.0  0.8759704828262328  0.30338960886001587  0.7778928875923156  1.0000
  La  La2       1.0  0.9873715639114379  0.11772797256708145  0.15291807055473322  1.0000
  La  La3       1.0  0.3527591824531555  0.9939523935317993  0.26708126068115234  1.0000
  La  La4       1.0  0.9211914539337157  0.44936299324035645  0.8308764100074767  1.0000
  La  La5       1.0  0.6417373418807983  0.5704812407493591  0.49703779816627497  1.0000
  Ni  Ni1       1.0  0.7786783576011658  0.04958338290452957  0.7071015238761901  1.0000
  Ni  Ni2       1.0  0.8188716769218444  0.8928298354148865  0.13393761217594147  1.0000
  O   O1        1.0  0.10629882663488387  0.3716064393520355  0.4574757516384124  1.0000
  Zr  Zr1       1.0  0.2738887071609497  0.22122293710708618  0.6135009527206421  1.0000
  Zr  Zr2       1.0  0.5824700593948364  0.4158300459384918  0.24338893592357633  1.0000
