data_image0
_chemical_formula_structural       GeILa3Ni3O2
_chemical_formula_sum              "Ge1 I1 La3 Ni3 O2"
_cell_length_a       4.540272498086299
_cell_length_b       4.147491885675152
_cell_length_c       9.073017120361328
_cell_angle_alpha    104.87566685845238
_cell_angle_beta     103.93495971563888
_cell_angle_gamma    89.4575918477401

_space_group_name_H-M_alt    "P 1"
_space_group_IT_number       1

loop_
  _space_group_symop_operation_xyz
  'x, y, z'

loop_
  _atom_site_type_symbol
  _atom_site_label
  _atom_site_symmetry_multiplicity
  _atom_site_fract_x
  _atom_site_fract_y
  _atom_site_fract_z
  _atom_site_occupancy
  Ge  Ge1       1.0  0.21477748453617096  0.20312584936618805  0.892389178276062  1.0000
  I   I1        1.0  0.7178131341934204  0.19417938590049744  0.8197072744369507  1.0000
  La  La1       1.0  0.22352656722068787  0.9910029768943787  0.05993497371673584  1.0000
  La  La2       1.0  0.7115629315376282  0.22122204303741455  0.9409268498420715  1.0000
  La  La3       1.0  0.6554784178733826  0.5532084703445435  0.1511899083852768  1.0000
  Ni  Ni1       1.0  0.20872460305690765  0.15099824965000153  0.6232759952545166  1.0000
  Ni  Ni2       1.0  0.7216016054153442  0.5300633311271667  0.5417359471321106  1.0000
  Ni  Ni3       1.0  0.213807612657547  0.27820196747779846  0.27440574765205383  1.0000
  O   O1        1.0  0.5770729780197144  0.4693790078163147  0.06962791085243225  1.0000
  O   O2        1.0  0.7228909134864807  0.1978181004524231  0.34963008761405945  1.0000
