data_image0
_chemical_formula_structural       CoF3InKPbZnZr
_chemical_formula_sum              "Co1 F3 In1 K1 Pb1 Zn1 Zr1"
_cell_length_a       5.256873126916074
_cell_length_b       4.463398657012991
_cell_length_c       6.013720989227295
_cell_angle_alpha    135.88382565347334
_cell_angle_beta     93.72726606156651
_cell_angle_gamma    86.63637965187401

_space_group_name_H-M_alt    "P 1"
_space_group_IT_number       1

loop_
  _space_group_symop_operation_xyz
  'x, y, z'

loop_
  _atom_site_type_symbol
  _atom_site_label
  _atom_site_symmetry_multiplicity
  _atom_site_fract_x
  _atom_site_fract_y
  _atom_site_fract_z
  _atom_site_occupancy
  Co  Co1       1.0  0.415996789932251  0.9564781188964843  0.42631205916404724  1.0000
  F   F1        1.0  0.8687103390693665  0.28712886571884166  0.24223966896533972  1.0000
  F   F2        1.0  0.6832217574119568  0.9458233118057253  0.864735245704651  1.0000
  F   F3        1.0  0.1706961691379547  0.7400569319725037  0.07927086204290391  1.0000
  In  In1       1.0  0.3596058785915375  0.9098850488662721  0.4771339595317841  1.0000
  K   K1        1.0  0.30724105238914495  0.2708791792392729  0.8176751732826232  1.0000
  Pb  Pb1       1.0  0.2806084156036377  0.580818474292755  0.1606125682592392  1.0000
  Zn  Zn1       1.0  0.834455132484436  0.44449540972709656  0.22146403789520264  1.0000
  Zr  Zr1       1.0  0.9244715571403503  0.10341166704893118  0.4587548673152924  1.0000
