data_image0
_chemical_formula_structural       F4PbPtVZn2
_chemical_formula_sum              "F4 Pb1 Pt1 V1 Zn2"
_cell_length_a       4.134376991880514
_cell_length_b       4.744366732716911
_cell_length_c       6.931456565856934
_cell_angle_alpha    117.53521317970335
_cell_angle_beta     94.79586045661848
_cell_angle_gamma    81.6282534217844

_space_group_name_H-M_alt    "P 1"
_space_group_IT_number       1

loop_
  _space_group_symop_operation_xyz
  'x, y, z'

loop_
  _atom_site_type_symbol
  _atom_site_label
  _atom_site_symmetry_multiplicity
  _atom_site_fract_x
  _atom_site_fract_y
  _atom_site_fract_z
  _atom_site_occupancy
  F   F1        1.0  0.9659340381622314  0.24887631833553314  0.6037387847900391  1.0000
  F   F2        1.0  0.466295450925827  0.4110705256462097  0.6520612835884094  1.0000
  F   F3        1.0  0.4011155068874359  0.8424280285835266  0.7684096097946167  1.0000
  F   F4        1.0  0.9691681265830994  0.863536536693573  0.6660907864570618  1.0000
  Pb  Pb1       1.0  0.39824941754341125  0.14371010661125183  0.8664228916168213  1.0000
  Pt  Pt1       1.0  0.43418464064598083  0.41588857769966125  0.025182504206895828  1.0000
  V   V1        1.0  0.39718738198280334  0.8209339380264282  0.2695143222808838  1.0000
  Zn  Zn1       1.0  0.47310683131217957  0.47318723797798157  0.025725016370415688  1.0000
  Zn  Zn2       1.0  0.0822192132472992  0.1675032675266266  0.11612380295991898  1.0000
