data_image0
_chemical_formula_structural       Ge2INdNiO3Zr2
_chemical_formula_sum              "Ge2 I1 Nd1 Ni1 O3 Zr2"
_cell_length_a       5.467263912304438
_cell_length_b       5.47984703525183
_cell_length_c       6.88747501373291
_cell_angle_alpha    101.10751152478358
_cell_angle_beta     102.08029471244876
_cell_angle_gamma    93.1512591749055

_space_group_name_H-M_alt    "P 1"
_space_group_IT_number       1

loop_
  _space_group_symop_operation_xyz
  'x, y, z'

loop_
  _atom_site_type_symbol
  _atom_site_label
  _atom_site_symmetry_multiplicity
  _atom_site_fract_x
  _atom_site_fract_y
  _atom_site_fract_z
  _atom_site_occupancy
  Ge  Ge1       1.0  0.3969365656375885  0.5417147874832153  0.23108579218387604  1.0000
  Ge  Ge2       1.0  0.6324571967124939  0.5115694999694824  0.8257498145103455  1.0000
  I   I1        1.0  0.09393327683210373  0.10067786276340485  0.8370659351348877  1.0000
  Nd  Nd1       1.0  0.14955632388591766  0.6974428296089172  0.6836431622505188  1.0000
  Ni  Ni1       1.0  0.41905781626701355  0.6979892253875732  0.7746867537498474  1.0000
  O   O1        1.0  0.1623518168926239  0.7901784181594849  0.5863030552864075  1.0000
  O   O2        1.0  0.19008593261241913  0.48881542682647705  0.8407793641090393  1.0000
  O   O3        1.0  0.6653035879135132  0.2830848693847656  0.6371656060218811  1.0000
  Zr  Zr1       1.0  0.1530648022890091  0.19310016930103302  0.7456993460655212  1.0000
  Zr  Zr2       1.0  0.6679580211639404  0.9587988257408142  0.6218755841255188  1.0000
