data_image0
_chemical_formula_structural       FeGe2I4O3
_chemical_formula_sum              "Fe1 Ge2 I4 O3"
_cell_length_a       6.622654774784276
_cell_length_b       6.222467772527715
_cell_length_c       7.112119674682617
_cell_angle_alpha    90.58698608571007
_cell_angle_beta     73.57951078543842
_cell_angle_gamma    63.155666239593366

_space_group_name_H-M_alt    "P 1"
_space_group_IT_number       1

loop_
  _space_group_symop_operation_xyz
  'x, y, z'

loop_
  _atom_site_type_symbol
  _atom_site_label
  _atom_site_symmetry_multiplicity
  _atom_site_fract_x
  _atom_site_fract_y
  _atom_site_fract_z
  _atom_site_occupancy
  Fe  Fe1       1.0  0.1852092146873474  0.6426479816436768  0.7516698837280273  1.0000
  Ge  Ge1       1.0  0.6941807270050049  0.9427956938743591  0.7129786014556885  1.0000
  Ge  Ge2       1.0  0.32649651169776917  0.17013181746006012  0.7301762700080872  1.0000
  I   I1        1.0  0.3581918179988861  0.38561999797821045  0.6351395845413208  1.0000
  I   I2        1.0  0.6038767099380493  0.9345815181732178  0.33356714248657227  1.0000
  I   I3        1.0  0.6077894568443298  0.6030697822570801  0.934733510017395  1.0000
  I   I4        1.0  0.8857792019844055  0.1062651127576828  0.8966868519783019  1.0000
  O   O1        1.0  0.7007052898406982  0.09441449493169785  0.05606124922633171  1.0000
  O   O2        1.0  0.6889391541481018  0.3391125202178955  0.21551093459129333  1.0000
  O   O3        1.0  0.6845663785934448  0.30886682868003845  0.16421933472156527  1.0000
