data_image0
_chemical_formula_structural       Nd3Ni4OPPb
_chemical_formula_sum              "Nd3 Ni4 O1 P1 Pb1"
_cell_length_a       5.334522228833127
_cell_length_b       5.8796092946223215
_cell_length_c       6.780046463012695
_cell_angle_alpha    88.87484337846337
_cell_angle_beta     84.75680995284002
_cell_angle_gamma    89.33864325162283

_space_group_name_H-M_alt    "P 1"
_space_group_IT_number       1

loop_
  _space_group_symop_operation_xyz
  'x, y, z'

loop_
  _atom_site_type_symbol
  _atom_site_label
  _atom_site_symmetry_multiplicity
  _atom_site_fract_x
  _atom_site_fract_y
  _atom_site_fract_z
  _atom_site_occupancy
  Nd  Nd1       1.0  0.25495266914367676  0.6290481090545654  0.7605262398719786  1.0000
  Nd  Nd2       1.0  0.7518396377563477  0.6058217883110046  0.8737723827362059  1.0000
  Nd  Nd3       1.0  0.7627890706062317  0.6080533266067505  0.7455615401268004  1.0000
  Ni  Ni1       1.0  0.24998782575130465  0.07229296118021011  0.5995054841041565  1.0000
  Ni  Ni2       1.0  0.24930149316787723  0.6751769781112671  0.6488136649131775  1.0000
  Ni  Ni3       1.0  0.7320910096168518  0.42958489060401917  0.0795636773109436  1.0000
  Ni  Ni4       1.0  0.22956690192222598  0.4650264084339142  0.13347172737121582  1.0000
  O   O1        1.0  0.7753551602363586  0.8501810431480408  0.6878710985183716  1.0000
  P   P1        1.0  0.9904266595840455  0.2555140256881714  0.8419593572616576  1.0000
  Pb  Pb1       1.0  0.7483631372451782  0.2805459499359131  0.08115407824516296  1.0000
