data_image0
_chemical_formula_structural       INd3Ni4O2
_chemical_formula_sum              "I1 Nd3 Ni4 O2"
_cell_length_a       5.265862244773296
_cell_length_b       3.911552943165114
_cell_length_c       6.297883033752441
_cell_angle_alpha    54.4059931561535
_cell_angle_beta     68.58869432158187
_cell_angle_gamma    91.58004402570806

_space_group_name_H-M_alt    "P 1"
_space_group_IT_number       1

loop_
  _space_group_symop_operation_xyz
  'x, y, z'

loop_
  _atom_site_type_symbol
  _atom_site_label
  _atom_site_symmetry_multiplicity
  _atom_site_fract_x
  _atom_site_fract_y
  _atom_site_fract_z
  _atom_site_occupancy
  I   I1        1.0  0.20152001082897186  0.7429370880126953  0.30400046706199646  1.0000
  Nd  Nd1       1.0  0.9489889740943909  0.5651735663414001  0.4552477300167084  1.0000
  Nd  Nd2       1.0  0.6479387879371643  0.8724955916404724  0.798953652381897  1.0000
  Nd  Nd3       1.0  0.9719616770744324  0.14504383504390717  0.44784656167030334  1.0000
  Ni  Ni1       1.0  0.34133848547935486  0.39758363366127014  0.44373607635498047  1.0000
  Ni  Ni2       1.0  0.8798124194145203  0.6919964551925659  0.7785889506340027  1.0000
  Ni  Ni3       1.0  0.6816921830177307  0.47903501987457275  0.8288050889968872  1.0000
  Ni  Ni4       1.0  0.9741833806037903  0.11236468702554703  0.9752404093742371  1.0000
  O   O1        1.0  0.6854619979858398  0.8210164904594421  0.543464183807373  1.0000
  O   O2        1.0  0.8907812237739563  0.5326602458953857  0.09995351731777191  1.0000
