data_image0
_chemical_formula_structural       Nd8O2
_chemical_formula_sum              "Nd8 O2"
_cell_length_a       5.536371181005955
_cell_length_b       5.7497900127619035
_cell_length_c       6.507196426391602
_cell_angle_alpha    75.18087672731833
_cell_angle_beta     76.51174208489479
_cell_angle_gamma    73.15666563215164

_space_group_name_H-M_alt    "P 1"
_space_group_IT_number       1

loop_
  _space_group_symop_operation_xyz
  'x, y, z'

loop_
  _atom_site_type_symbol
  _atom_site_label
  _atom_site_symmetry_multiplicity
  _atom_site_fract_x
  _atom_site_fract_y
  _atom_site_fract_z
  _atom_site_occupancy
  Nd  Nd1       1.0  0.323862761259079  0.1764075607061386  0.8568448424339293  1.0000
  Nd  Nd2       1.0  0.49910289049148565  0.6938422918319702  0.64723801612854  1.0000
  Nd  Nd3       1.0  0.7982165813446045  0.662280261516571  0.429426074028015  1.0000
  Nd  Nd4       1.0  0.07143644988536835  0.30803266167640686  0.6820062398910521  1.0000
  Nd  Nd5       1.0  0.7498149871826172  0.6524969935417175  0.8070697784423827  1.0000
  Nd  Nd6       1.0  0.7895387411117554  0.3068599998950958  0.35487049818038935  1.0000
  Nd  Nd7       1.0  0.055484667420387275  0.8032989501953125  0.6854645013809203  1.0000
  Nd  Nd8       1.0  0.3391437232494354  0.39330264925956726  0.027024047449231144  1.0000
  O   O1        1.0  0.226097047328949  0.3628009259700775  0.4796817302703857  1.0000
  O   O2        1.0  0.6088010668754578  0.746354341506958  0.5548114776611328  1.0000
