data_image0
_chemical_formula_structural       Nd8O2
_chemical_formula_sum              "Nd8 O2"
_cell_length_a       5.520059966895769
_cell_length_b       5.644153375911583
_cell_length_c       6.162840366363525
_cell_angle_alpha    77.57408609894355
_cell_angle_beta     74.31532807740395
_cell_angle_gamma    78.50771612812044

_space_group_name_H-M_alt    "P 1"
_space_group_IT_number       1

loop_
  _space_group_symop_operation_xyz
  'x, y, z'

loop_
  _atom_site_type_symbol
  _atom_site_label
  _atom_site_symmetry_multiplicity
  _atom_site_fract_x
  _atom_site_fract_y
  _atom_site_fract_z
  _atom_site_occupancy
  Nd  Nd1       1.0  0.4533754885196685  0.7866583466529846  0.2793690264225006  1.0000
  Nd  Nd2       1.0  0.6906803846359253  0.6506305932998657  0.3177885413169861  1.0000
  Nd  Nd3       1.0  0.4039632380008697  0.7040249109268188  0.43554621934890747  1.0000
  Nd  Nd4       1.0  0.05525005608797073  0.5195316672325134  0.02093280665576458  1.0000
  Nd  Nd5       1.0  0.2051526308059692  0.11959026753902435  0.1970733404159546  1.0000
  Nd  Nd6       1.0  0.4077149629592895  0.8415520191192627  0.0005121054127812386  1.0000
  Nd  Nd7       1.0  0.9374240040779113  0.7147923707962036  0.4337349832057953  1.0000
  Nd  Nd8       1.0  0.690708577632904  0.6267009973526001  0.8256902098655701  1.0000
  O   O1        1.0  0.9592500329017638  0.2646498382091522  0.3343096375465393  1.0000
  O   O2        1.0  0.4644810557365417  0.16837580502033234  0.4300712049007416  1.0000
