data_image0
_chemical_formula_structural       Ca2F3PbSb4
_chemical_formula_sum              "Ca2 F3 Pb1 Sb4"
_cell_length_a       5.87165449982322
_cell_length_b       5.961862067344966
_cell_length_c       9.018452644348145
_cell_angle_alpha    103.69721363011374
_cell_angle_beta     91.9085517455627
_cell_angle_gamma    113.83688035093454

_space_group_name_H-M_alt    "P 1"
_space_group_IT_number       1

loop_
  _space_group_symop_operation_xyz
  'x, y, z'

loop_
  _atom_site_type_symbol
  _atom_site_label
  _atom_site_symmetry_multiplicity
  _atom_site_fract_x
  _atom_site_fract_y
  _atom_site_fract_z
  _atom_site_occupancy
  Ca  Ca1       1.0  0.8220379352569579  0.13867032527923584  0.8492897152900696  1.0000
  Ca  Ca2       1.0  0.4428983926773071  0.6431114673614502  0.2525344789028168  1.0000
  F   F1        1.0  0.6596903204917908  0.5687940716743469  0.19535042345523834  1.0000
  F   F2        1.0  0.9749622344970702  0.6529861092567444  0.5086662769317627  1.0000
  F   F3        1.0  0.9651919603347777  0.7381520867347717  0.03812972828745842  1.0000
  Pb  Pb1       1.0  0.4436368644237518  0.4623635709285736  0.7116369009017944  1.0000
  Sb  Sb1       1.0  0.6131887435913086  0.22035881876945496  0.01657179556787014  1.0000
  Sb  Sb2       1.0  0.9450074434280394  0.533427894115448  0.7360680103302002  1.0000
  Sb  Sb3       1.0  0.44072350859642023  0.11983803659677505  0.1413535624742508  1.0000
  Sb  Sb4       1.0  0.44776016473770136  0.39117318391799927  0.527955949306488  1.0000
