data_image0
_chemical_formula_structural       F2IPtSb4UV
_chemical_formula_sum              "F2 I1 Pt1 Sb4 U1 V1"
_cell_length_a       6.127733250583656
_cell_length_b       7.074340706915619
_cell_length_c       7.675656318664551
_cell_angle_alpha    123.49493436781513
_cell_angle_beta     90.61572822537471
_cell_angle_gamma    93.66325068085162

_space_group_name_H-M_alt    "P 1"
_space_group_IT_number       1

loop_
  _space_group_symop_operation_xyz
  'x, y, z'

loop_
  _atom_site_type_symbol
  _atom_site_label
  _atom_site_symmetry_multiplicity
  _atom_site_fract_x
  _atom_site_fract_y
  _atom_site_fract_z
  _atom_site_occupancy
  F   F1        1.0  0.14972589910030365  0.6358084082603455  0.4653433859348297  1.0000
  F   F2        1.0  0.24858437478542328  0.6391973495483398  0.27053898572921753  1.0000
  I   I1        1.0  0.6703791618347168  0.4653233587741852  0.22788722813129428  1.0000
  Pt  Pt1       1.0  0.34893175959587097  0.733280599117279  0.09601669013500214  1.0000
  Sb  Sb1       1.0  0.1489199995994568  0.4325593411922455  0.07258325070142746  1.0000
  Sb  Sb2       1.0  0.6448033452033997  0.010468510910868645  0.5740634799003601  1.0000
  Sb  Sb3       1.0  0.40076130628585815  0.6658776998519897  0.38839051127433777  1.0000
  Sb  Sb4       1.0  0.6811172366142273  0.2826295793056488  0.09837473183870316  1.0000
  U   U1        1.0  0.18911105394363403  0.9140541553497314  0.40966293215751654  1.0000
  V   V1        1.0  0.8691245913505554  0.01285124197602272  0.6400051116943359  1.0000
