data_image0
_chemical_formula_structural       F5NaSb4
_chemical_formula_sum              "F5 Na1 Sb4"
_cell_length_a       5.527281894575503
_cell_length_b       6.502375874657959
_cell_length_c       6.776871204376221
_cell_angle_alpha    117.68233442683744
_cell_angle_beta     100.84546309436094
_cell_angle_gamma    100.62577196500293

_space_group_name_H-M_alt    "P 1"
_space_group_IT_number       1

loop_
  _space_group_symop_operation_xyz
  'x, y, z'

loop_
  _atom_site_type_symbol
  _atom_site_label
  _atom_site_symmetry_multiplicity
  _atom_site_fract_x
  _atom_site_fract_y
  _atom_site_fract_z
  _atom_site_occupancy
  F   F1        1.0  0.39647039771080017  0.32580044865608215  0.2672540843486786  1.0000
  F   F2        1.0  0.90069979429245  0.42584541440010065  0.03443426638841629  1.0000
  F   F3        1.0  0.8857722282409668  0.048453181982040405  0.10248757153749467  1.0000
  F   F4        1.0  0.40326443314552307  0.6695383787155151  0.3151567876338959  1.0000
  F   F5        1.0  0.3909916281700134  0.33701714873313904  0.6016247868537903  1.0000
  Na  Na1       1.0  0.8756223320960999  0.7417047023773193  0.30728745460510254  1.0000
  Sb  Sb1       1.0  0.8951632976531982  0.049186091870069504  0.22565402090549475  1.0000
  Sb  Sb2       1.0  0.3952735960483551  0.2944751977920532  0.1479107141494751  1.0000
  Sb  Sb3       1.0  0.8890398740768433  0.522102952003479  0.9420310258865358  1.0000
  Sb  Sb4       1.0  0.39540553092956543  0.9629589915275573  0.32977926731109625  1.0000
