data_image0
_chemical_formula_structural       F5IPPtSb2
_chemical_formula_sum              "F5 I1 P1 Pt1 Sb2"
_cell_length_a       4.65672830830493
_cell_length_b       6.9840703005698686
_cell_length_c       7.415157318115234
_cell_angle_alpha    122.40961525675017
_cell_angle_beta     91.30887641846762
_cell_angle_gamma    89.93924133895604

_space_group_name_H-M_alt    "P 1"
_space_group_IT_number       1

loop_
  _space_group_symop_operation_xyz
  'x, y, z'

loop_
  _atom_site_type_symbol
  _atom_site_label
  _atom_site_symmetry_multiplicity
  _atom_site_fract_x
  _atom_site_fract_y
  _atom_site_fract_z
  _atom_site_occupancy
  F   F1        1.0  0.07336914539337158  0.08449281752109528  0.7571839094161987  1.0000
  F   F2        1.0  0.4799205958843231  0.685073971748352  0.03834726288914687  1.0000
  F   F3        1.0  0.32798129320144653  0.14690077304840088  0.1796165406703949  1.0000
  F   F4        1.0  0.09210305660963058  0.6315375566482544  0.5045031905174255  1.0000
  F   F5        1.0  0.7484046220779419  0.18447937071323395  0.8282788395881653  1.0000
  I   I1        1.0  0.842780351638794  0.8675161600112915  0.8755305409431458  1.0000
  P   P1        1.0  0.4581667482852936  0.22739838063716888  0.8904940485954285  1.0000
  Pt  Pt1       1.0  0.9592921733856201  0.9357107281684875  0.8888929486274719  1.0000
  Sb  Sb1       1.0  0.6230913996696472  0.04770614579319954  0.27188238501548767  1.0000
  Sb  Sb2       1.0  0.07906822115182877  0.7272419333457947  0.5319758057594299  1.0000
