data_image0
_chemical_formula_structural       F3Na3Sb4
_chemical_formula_sum              "F3 Na3 Sb4"
_cell_length_a       5.808028626714275
_cell_length_b       5.64817738173943
_cell_length_c       6.299084186553955
_cell_angle_alpha    118.12849865141767
_cell_angle_beta     108.94737679868939
_cell_angle_gamma    117.5126421104385

_space_group_name_H-M_alt    "P 1"
_space_group_IT_number       1

loop_
  _space_group_symop_operation_xyz
  'x, y, z'

loop_
  _atom_site_type_symbol
  _atom_site_label
  _atom_site_symmetry_multiplicity
  _atom_site_fract_x
  _atom_site_fract_y
  _atom_site_fract_z
  _atom_site_occupancy
  F   F1        1.0  0.6547320485115052  0.6989814639091493  0.40125522017478943  1.0000
  F   F2        1.0  0.8511776924133301  0.7514457702636719  0.8698365092277527  1.0000
  F   F3        1.0  0.34697332978248613  0.405060797929764  0.8345943689346315  1.0000
  Na  Na1       1.0  0.9570090174674988  0.1913761049509049  0.8988187313079834  1.0000
  Na  Na2       1.0  0.10763514786958703  0.6782020926475526  0.5955268740653992  1.0000
  Na  Na3       1.0  0.31523057818412803  0.7520045042037967  0.7529501318931581  1.0000
  Sb  Sb1       1.0  0.6453755497932435  0.07420723140239738  0.42561277747154247  1.0000
  Sb  Sb2       1.0  0.5134167075157166  0.8836615085601807  0.8401055335998534  1.0000
  Sb  Sb3       1.0  0.47579205036163336  0.7600070834159852  0.5824804306030273  1.0000
  Sb  Sb4       1.0  0.11620585620403294  0.4070760309696198  0.5244466662406921  1.0000
