data_image0
_chemical_formula_structural       Ca2F4Sb4
_chemical_formula_sum              "Ca2 F4 Sb4"
_cell_length_a       5.600833969958203
_cell_length_b       7.209403997663682
_cell_length_c       8.248804092407227
_cell_angle_alpha    121.90282411718503
_cell_angle_beta     89.81969187500917
_cell_angle_gamma    88.98840577928988

_space_group_name_H-M_alt    "P 1"
_space_group_IT_number       1

loop_
  _space_group_symop_operation_xyz
  'x, y, z'

loop_
  _atom_site_type_symbol
  _atom_site_label
  _atom_site_symmetry_multiplicity
  _atom_site_fract_x
  _atom_site_fract_y
  _atom_site_fract_z
  _atom_site_occupancy
  Ca  Ca1       1.0  0.3618026375770568  0.05792192369699479  0.39238864183425903  1.0000
  Ca  Ca2       1.0  0.8399912118911742  0.7499986290931703  0.8410665988922119  1.0000
  F   F1        1.0  0.35402533411979675  0.23511433601379397  0.7825620174407959  1.0000
  F   F2        1.0  0.8304971456527709  0.4537742137908936  0.6006875038146973  1.0000
  F   F3        1.0  0.3354080319404602  0.8458051085472108  0.21045263111591345  1.0000
  F   F4        1.0  0.335706502199173  0.7145617604255677  0.3076446652412415  1.0000
  Sb  Sb1       1.0  0.8675500750541686  0.587329089641571  0.927416980266571  1.0000
  Sb  Sb2       1.0  0.8497918248176574  0.840051829814911  0.02747575938701635  1.0000
  Sb  Sb3       1.0  0.8373786807060241  0.7867631316184999  0.07122149318456655  1.0000
  Sb  Sb4       1.0  0.3385063707828522  0.8404136300086976  0.7468639016151428  1.0000
