data_image0
_chemical_formula_structural       Br3HSr7
_chemical_formula_sum              "Br3 H1 Sr7"
_cell_length_a       7.454052296075181
_cell_length_b       7.704574560535853
_cell_length_c       7.9644551277160645
_cell_angle_alpha    105.55705015178526
_cell_angle_beta     105.32357180032707
_cell_angle_gamma    112.78927543304657

_space_group_name_H-M_alt    "P 1"
_space_group_IT_number       1

loop_
  _space_group_symop_operation_xyz
  'x, y, z'

loop_
  _atom_site_type_symbol
  _atom_site_label
  _atom_site_symmetry_multiplicity
  _atom_site_fract_x
  _atom_site_fract_y
  _atom_site_fract_z
  _atom_site_occupancy
  Br  Br1       1.0  0.490619421005249  0.6671753525733948  0.664819598197937  1.0000
  Br  Br2       1.0  0.8260120749473572  0.22440904378890994  0.9992471933364869  1.0000
  Br  Br3       1.0  0.7903314828872681  0.9771170616149903  0.6169444918632507  1.0000
  H   H1        1.0  0.41982540488243103  0.8382325172424316  0.042376141995191574  1.0000
  Sr  Sr1       1.0  0.3061010241508484  0.8192436695098877  0.15446341037750244  1.0000
  Sr  Sr2       1.0  0.009916193783283234  0.7315123081207275  0.6378442645072937  1.0000
  Sr  Sr3       1.0  0.2821884155273438  0.9748883843421937  0.34200167655944824  1.0000
  Sr  Sr4       1.0  0.7923211455345154  0.8286660313606262  0.9204962253570558  1.0000
  Sr  Sr5       1.0  0.4983070492744446  0.3438621759414673  0.45305693149566656  1.0000
  Sr  Sr6       1.0  0.7780972123146057  0.9729332327842714  0.9874121546745301  1.0000
  Sr  Sr7       1.0  0.0996806621551514  0.49138417840003973  0.670710563659668  1.0000
