data_image0
_chemical_formula_structural       BBr4PPrRuSr3
_chemical_formula_sum              "B1 Br4 P1 Pr1 Ru1 Sr3"
_cell_length_a       5.768193215679532
_cell_length_b       8.32101021139437
_cell_length_c       9.122621536254883
_cell_angle_alpha    91.59201578632614
_cell_angle_beta     90.94288014795346
_cell_angle_gamma    89.08450992670225

_space_group_name_H-M_alt    "P 1"
_space_group_IT_number       1

loop_
  _space_group_symop_operation_xyz
  'x, y, z'

loop_
  _atom_site_type_symbol
  _atom_site_label
  _atom_site_symmetry_multiplicity
  _atom_site_fract_x
  _atom_site_fract_y
  _atom_site_fract_z
  _atom_site_occupancy
  B   B1        1.0  0.7276420593261719  0.34352824091911316  0.14095328748226166  1.0000
  Br  Br1       1.0  0.2653595209121704  0.07260085642337799  0.5358356237411499  1.0000
  Br  Br2       1.0  0.23707561194896698  0.2868324816226959  0.993094801902771  1.0000
  Br  Br3       1.0  0.29438942670822144  0.5650376081466675  0.7621139883995056  1.0000
  Br  Br4       1.0  0.7714093327522278  0.3697609007358551  0.7088608741760254  1.0000
  P   P1        1.0  0.7804941534996033  0.526976466178894  0.9754412770271301  1.0000
  Pr  Pr1       1.0  0.7604552507400513  0.9089610576629639  0.9616022109985352  1.0000
  Ru  Ru1       1.0  0.7749260663986206  0.7575945854187012  0.4777367115020752  1.0000
  Sr  Sr1       1.0  0.26784875988960266  0.14437587559223175  0.5022521018981934  1.0000
  Sr  Sr2       1.0  0.28980904817581177  0.27818915247917175  0.21597933769226074  1.0000
  Sr  Sr3       1.0  0.9647010564804077  0.5540167689323425  0.47011464834213257  1.0000
