data_image0
_chemical_formula_structural       AlBr5Sr4Tl
_chemical_formula_sum              "Al1 Br5 Sr4 Tl1"
_cell_length_a       7.095166120268256
_cell_length_b       7.135716006666364
_cell_length_c       7.179401874542236
_cell_angle_alpha    125.61328178871166
_cell_angle_beta     112.19778509402916
_cell_angle_gamma    97.35993671527525

_space_group_name_H-M_alt    "P 1"
_space_group_IT_number       1

loop_
  _space_group_symop_operation_xyz
  'x, y, z'

loop_
  _atom_site_type_symbol
  _atom_site_label
  _atom_site_symmetry_multiplicity
  _atom_site_fract_x
  _atom_site_fract_y
  _atom_site_fract_z
  _atom_site_occupancy
  Al  Al1       1.0  0.20630364120006564  0.3008767068386078  0.2989278137683869  1.0000
  Br  Br1       1.0  0.10379280894994737  0.2880867123603821  0.6196423172950745  1.0000
  Br  Br2       1.0  0.622832179069519  0.6122114658355714  0.340114325284958  1.0000
  Br  Br3       1.0  0.6357821226119995  0.8472102284431458  0.3517165184020997  1.0000
  Br  Br4       1.0  0.7967680692672731  0.38179236650466924  0.5341072082519532  1.0000
  Br  Br5       1.0  0.6456542611122132  0.5804746747016907  0.08276104927062994  1.0000
  Sr  Sr1       1.0  0.5679235458374023  0.17748318612575528  0.641808032989502  1.0000
  Sr  Sr2       1.0  0.055185183882713325  0.773657500743866  0.8987859487533569  1.0000
  Sr  Sr3       1.0  0.43071913719177257  0.987513840198517  0.38970568776130693  1.0000
  Sr  Sr4       1.0  0.08660773187875749  0.2776598334312439  0.11100647598505023  1.0000
  Tl  Tl1       1.0  0.09465496987104417  0.5818679332733154  0.34283131361007696  1.0000
