data_image0
_chemical_formula_structural       Br7Sr4
_chemical_formula_sum              "Br7 Sr4"
_cell_length_a       9.991275413968767
_cell_length_b       9.7262451536936
_cell_length_c       9.322235107421875
_cell_angle_alpha    106.69731918873089
_cell_angle_beta     108.0128926159546
_cell_angle_gamma    114.39650170144238

_space_group_name_H-M_alt    "P 1"
_space_group_IT_number       1

loop_
  _space_group_symop_operation_xyz
  'x, y, z'

loop_
  _atom_site_type_symbol
  _atom_site_label
  _atom_site_symmetry_multiplicity
  _atom_site_fract_x
  _atom_site_fract_y
  _atom_site_fract_z
  _atom_site_occupancy
  Br  Br1       1.0  0.30784496665000916  0.9074333310127258  0.106317438185215  1.0000
  Br  Br2       1.0  0.6382641196250916  0.36763739585876465  0.41441941261291504  1.0000
  Br  Br3       1.0  0.27532270550727844  0.38902291655540466  0.22206544876098633  1.0000
  Br  Br4       1.0  0.13102024793624872  0.4658894836902618  0.10376528650522235  1.0000
  Br  Br5       1.0  0.53558748960495  0.3702528476715088  0.6578788161277771  1.0000
  Br  Br6       1.0  0.04131130874156952  0.8736912608146667  0.7077903151512146  1.0000
  Br  Br7       1.0  0.3168999254703522  0.8770512342453003  0.06957460939884186  1.0000
  Sr  Sr1       1.0  0.7321687936782837  0.44613781571388245  0.2783361077308655  1.0000
  Sr  Sr2       1.0  0.7145483493804932  0.7725447416305542  0.22651062905788422  1.0000
  Sr  Sr3       1.0  0.5257948040962219  0.6100100874900818  0.49194589257240295  1.0000
  Sr  Sr4       1.0  0.2902143597602844  0.09116068482398987  0.7481219172477722  1.0000
