data_image0
_chemical_formula_structural       Br6S2Sr2Th
_chemical_formula_sum              "Br6 S2 Sr2 Th1"
_cell_length_a       8.839112355556043
_cell_length_b       9.127337170177595
_cell_length_c       8.616949081420898
_cell_angle_alpha    107.40586775775137
_cell_angle_beta     110.06493533810573
_cell_angle_gamma    112.57918401759375

_space_group_name_H-M_alt    "P 1"
_space_group_IT_number       1

loop_
  _space_group_symop_operation_xyz
  'x, y, z'

loop_
  _atom_site_type_symbol
  _atom_site_label
  _atom_site_symmetry_multiplicity
  _atom_site_fract_x
  _atom_site_fract_y
  _atom_site_fract_z
  _atom_site_occupancy
  Br  Br1       1.0  0.5402457118034363  0.14760401844978333  0.6090944409370422  1.0000
  Br  Br2       1.0  0.3076339662075043  0.8959152698516846  0.4561586081981659  1.0000
  Br  Br3       1.0  0.5534683465957642  0.02471339702606201  0.059039123356342316  1.0000
  Br  Br4       1.0  0.8213794827461243  0.3917078971862793  0.2942197322845459  1.0000
  Br  Br5       1.0  0.6237179636955261  0.35457533597946167  0.3055212199687958  1.0000
  Br  Br6       1.0  0.11236575990915298  0.04773234948515892  0.9066630005836487  1.0000
  S   S1        1.0  0.09887128323316574  0.5100290775299072  0.4150243401527405  1.0000
  S   S2        1.0  0.5586913824081421  0.6576061248779297  0.5933287143707275  1.0000
  Sr  Sr1       1.0  0.8833795785903931  0.20098862051963806  0.837650716304779  1.0000
  Sr  Sr2       1.0  0.5240557193756104  0.6390108466148376  0.10987510532140728  1.0000
  Th  Th1       1.0  0.062361735850572586  0.697425901889801  0.10534586012363434  1.0000
