data_image0
_chemical_formula_structural       Br5Sr5Tl
_chemical_formula_sum              "Br5 Sr5 Tl1"
_cell_length_a       8.575536795650489
_cell_length_b       10.053629195231837
_cell_length_c       9.943195343017578
_cell_angle_alpha    100.19660825698044
_cell_angle_beta     100.83050093105139
_cell_angle_gamma    95.31756773285485

_space_group_name_H-M_alt    "P 1"
_space_group_IT_number       1

loop_
  _space_group_symop_operation_xyz
  'x, y, z'

loop_
  _atom_site_type_symbol
  _atom_site_label
  _atom_site_symmetry_multiplicity
  _atom_site_fract_x
  _atom_site_fract_y
  _atom_site_fract_z
  _atom_site_occupancy
  Br  Br1       1.0  0.3194456398487091  0.7471112608909607  0.696715772151947  1.0000
  Br  Br2       1.0  0.8317371010780334  0.8981530666351317  0.7831441760063171  1.0000
  Br  Br3       1.0  0.5262774229049683  0.6745542287826538  0.022988658398389816  1.0000
  Br  Br4       1.0  0.814591646194458  0.4031219184398651  0.537398099899292  1.0000
  Br  Br5       1.0  0.5215365290641785  0.16888558864593506  0.452485054731369  1.0000
  Sr  Sr1       1.0  0.36812689900398254  0.14159314334392548  0.8823529481887817  1.0000
  Sr  Sr2       1.0  0.024857258424162865  0.7095784544944763  0.9279186725616455  1.0000
  Sr  Sr3       1.0  0.3355344533920288  0.6855324506759644  0.13294047117233276  1.0000
  Sr  Sr4       1.0  0.8876685500144958  0.14068478345870972  0.7766389846801758  1.0000
  Sr  Sr5       1.0  0.5059753656387329  0.1874295175075531  0.507743239402771  1.0000
  Tl  Tl1       1.0  0.8566290140151978  0.6447040438652039  0.8760709166526794  1.0000
