data_image0
_chemical_formula_structural       B4Gd6Ni
_chemical_formula_sum              "B4 Gd6 Ni1"
_cell_length_a       5.594580102798018
_cell_length_b       5.708976765378447
_cell_length_c       6.697646141052246
_cell_angle_alpha    65.62873231112528
_cell_angle_beta     65.06890411896292
_cell_angle_gamma    60.83569944487508

_space_group_name_H-M_alt    "P 1"
_space_group_IT_number       1

loop_
  _space_group_symop_operation_xyz
  'x, y, z'

loop_
  _atom_site_type_symbol
  _atom_site_label
  _atom_site_symmetry_multiplicity
  _atom_site_fract_x
  _atom_site_fract_y
  _atom_site_fract_z
  _atom_site_occupancy
  B   B1        1.0  0.7918606996536255  0.25387898087501526  0.5510633587837219  1.0000
  B   B2        1.0  0.30930396914482117  0.213242769241333  0.9780982732772827  1.0000
  B   B3        1.0  0.05060227960348129  0.7197993397712708  0.8348104357719421  1.0000
  B   B4        1.0  0.2827545404434204  0.715182900428772  0.4733870029449463  1.0000
  Gd  Gd1       1.0  0.4236026108264923  0.8704554438591003  0.6853452324867249  1.0000
  Gd  Gd2       1.0  0.4152437746524811  0.36728933453559875  0.8409583568572998  1.0000
  Gd  Gd3       1.0  0.42319923639297485  0.8687719702720642  0.9963345527648926  1.0000
  Gd  Gd4       1.0  0.03553109988570213  0.03013462759554386  0.6996736526489258  1.0000
  Gd  Gd5       1.0  0.615177571773529  0.7029337286949158  0.9504181742668152  1.0000
  Gd  Gd6       1.0  0.043513067066669464  0.726702868938446  0.3326514661312103  1.0000
  Ni  Ni1       1.0  0.04067447409033775  0.8754487633705139  0.3223560154438019  1.0000
