data_image0
_chemical_formula_structural       B4Gd4Ni3
_chemical_formula_sum              "B4 Gd4 Ni3"
_cell_length_a       5.6293910494467285
_cell_length_b       5.4861445052054565
_cell_length_c       6.044191837310791
_cell_angle_alpha    62.4358775791812
_cell_angle_beta     63.77077526998845
_cell_angle_gamma    60.441363793967035

_space_group_name_H-M_alt    "P 1"
_space_group_IT_number       1

loop_
  _space_group_symop_operation_xyz
  'x, y, z'

loop_
  _atom_site_type_symbol
  _atom_site_label
  _atom_site_symmetry_multiplicity
  _atom_site_fract_x
  _atom_site_fract_y
  _atom_site_fract_z
  _atom_site_occupancy
  B   B1        1.0  0.3189195394515991  0.12654362618923187  0.49337080121040344  1.0000
  B   B2        1.0  0.9965135455131531  0.164012148976326  0.06482424587011337  1.0000
  B   B3        1.0  0.6745448112487793  0.7330616116523743  0.2701396942138672  1.0000
  B   B4        1.0  0.35100793838500977  0.8535792231559753  0.572039783000946  1.0000
  Gd  Gd1       1.0  0.9919379949569702  0.8595954179763794  0.6904461979866028  1.0000
  Gd  Gd2       1.0  0.9936626553535461  0.37891823053359985  0.06163541227579117  1.0000
  Gd  Gd3       1.0  0.6079925298690796  0.1335921734571457  0.8250945806503296  1.0000
  Gd  Gd4       1.0  0.5836419463157654  0.6242299675941467  0.03307845816016197  1.0000
  Ni  Ni1       1.0  0.02865901216864586  0.6359506845474243  0.016666676849126816  1.0000
  Ni  Ni2       1.0  0.5915524363517761  0.37289854884147644  0.06485561281442642  1.0000
  Ni  Ni3       1.0  0.29288747906684875  0.6238927245140076  0.2732263505458832  1.0000
