data_image0
_chemical_formula_structural       B4Gd3Ni4
_chemical_formula_sum              "B4 Gd3 Ni4"
_cell_length_a       5.394136158535892
_cell_length_b       5.6750495347793075
_cell_length_c       5.726382255554199
_cell_angle_alpha    62.24467136897806
_cell_angle_beta     62.08302562654994
_cell_angle_gamma    61.721038834182636

_space_group_name_H-M_alt    "P 1"
_space_group_IT_number       1

loop_
  _space_group_symop_operation_xyz
  'x, y, z'

loop_
  _atom_site_type_symbol
  _atom_site_label
  _atom_site_symmetry_multiplicity
  _atom_site_fract_x
  _atom_site_fract_y
  _atom_site_fract_z
  _atom_site_occupancy
  B   B1        1.0  0.42860665917396545  0.6968680620193481  0.7001835703849792  1.0000
  B   B2        1.0  0.44001448154449463  0.3629940450191498  0.9944859743118287  1.0000
  B   B3        1.0  0.10463999211788177  0.007437046617269516  0.6217871308326721  1.0000
  B   B4        1.0  0.9472146034240723  0.8199152946472168  0.07139525562524796  1.0000
  Gd  Gd1       1.0  0.7266271114349365  0.9792047142982483  0.2650432586669922  1.0000
  Gd  Gd2       1.0  0.10637623816728592  0.9485617280006409  0.12179266661405565  1.0000
  Gd  Gd3       1.0  0.767774760723114  0.506084680557251  0.7978900671005249  1.0000
  Ni  Ni1       1.0  0.7592002153396606  0.6996033191680908  0.6102233529090881  1.0000
  Ni  Ni2       1.0  0.7102017998695374  0.015927374362945557  0.7919129729270935  1.0000
  Ni  Ni3       1.0  0.09347376972436905  0.9457703828811646  0.03901800140738487  1.0000
  Ni  Ni4       1.0  0.353553831577301  0.23905250430107117  0.8683518767356873  1.0000
