data_image0
_chemical_formula_structural       B5Gd3Ni3
_chemical_formula_sum              "B5 Gd3 Ni3"
_cell_length_a       5.829953437080627
_cell_length_b       5.535327119001219
_cell_length_c       6.048807144165039
_cell_angle_alpha    61.44439462603274
_cell_angle_beta     60.36963934327216
_cell_angle_gamma    59.272874166233315

_space_group_name_H-M_alt    "P 1"
_space_group_IT_number       1

loop_
  _space_group_symop_operation_xyz
  'x, y, z'

loop_
  _atom_site_type_symbol
  _atom_site_label
  _atom_site_symmetry_multiplicity
  _atom_site_fract_x
  _atom_site_fract_y
  _atom_site_fract_z
  _atom_site_occupancy
  B   B1        1.0  0.7527646422386169  0.3545391261577606  0.01723748818039894  1.0000
  B   B2        1.0  0.5038125514984131  0.08450464904308319  0.8318631649017335  1.0000
  B   B3        1.0  0.2504221796989441  0.8641126155853271  0.12289740145206453  1.0000
  B   B4        1.0  0.2761857807636261  0.3470964729785919  0.25499987602233887  1.0000
  B   B5        1.0  0.9974412322044374  0.5723650455474854  0.9553948640823365  1.0000
  Gd  Gd1       1.0  0.25852856040000916  0.8472445607185364  0.4453753232955933  1.0000
  Gd  Gd2       1.0  0.0011487007141113281  0.5744906663894653  0.9571943879127504  1.0000
  Gd  Gd3       1.0  0.7516692280769348  0.8483093976974487  0.44460213184356695  1.0000
  Ni  Ni1       1.0  0.4455131888389588  0.8371341824531555  0.2138224542140961  1.0000
  Ni  Ni2       1.0  0.12067178636789323  0.8323907256126404  0.7289597988128662  1.0000
  Ni  Ni3       1.0  0.7573573589324951  0.3406376540660858  0.5089749693870544  1.0000
