data_image0
_chemical_formula_structural       B5Gd4Ni2
_chemical_formula_sum              "B5 Gd4 Ni2"
_cell_length_a       5.653531829007102
_cell_length_b       5.884594197201541
_cell_length_c       6.337461471557617
_cell_angle_alpha    62.420315778632606
_cell_angle_beta     61.77652036186415
_cell_angle_gamma    60.15028933546358

_space_group_name_H-M_alt    "P 1"
_space_group_IT_number       1

loop_
  _space_group_symop_operation_xyz
  'x, y, z'

loop_
  _atom_site_type_symbol
  _atom_site_label
  _atom_site_symmetry_multiplicity
  _atom_site_fract_x
  _atom_site_fract_y
  _atom_site_fract_z
  _atom_site_occupancy
  B   B1        1.0  0.03429633006453514  0.7809027433395386  0.449740320444107  1.0000
  B   B2        1.0  0.7429865002632141  0.7757280468940735  0.49077710509300226  1.0000
  B   B3        1.0  0.7312182784080505  0.8199687600135803  0.0763072595000267  1.0000
  B   B4        1.0  0.5516177415847778  0.21707886457443237  0.2630158066749573  1.0000
  B   B5        1.0  0.19978292286396027  0.8099279999732971  0.14409932494163513  1.0000
  Gd  Gd1       1.0  0.7328834533691406  0.3249412775039673  0.5687679648399353  1.0000
  Gd  Gd2       1.0  0.5202720165252686  0.294461727142334  0.3203071057796478  1.0000
  Gd  Gd3       1.0  0.34378042817115784  0.841097891330719  0.7737590670585631  1.0000
  Gd  Gd4       1.0  0.0977838858962059  0.0038766784127801657  0.05529559776186944  1.0000
  Ni  Ni1       1.0  0.6071224212646484  0.4606722891330719  0.7970243096351622  1.0000
  Ni  Ni2       1.0  0.8594803810119629  0.3470250964164734  0.8287362456321715  1.0000
