data_image0
_chemical_formula_structural       B5Gd2Ni3Ru
_chemical_formula_sum              "B5 Gd2 Ni3 Ru1"
_cell_length_a       5.138031580468738
_cell_length_b       5.521672099823582
_cell_length_c       5.880747318267822
_cell_angle_alpha    64.029456250155
_cell_angle_beta     63.17660731790617
_cell_angle_gamma    61.63192260846918

_space_group_name_H-M_alt    "P 1"
_space_group_IT_number       1

loop_
  _space_group_symop_operation_xyz
  'x, y, z'

loop_
  _atom_site_type_symbol
  _atom_site_label
  _atom_site_symmetry_multiplicity
  _atom_site_fract_x
  _atom_site_fract_y
  _atom_site_fract_z
  _atom_site_occupancy
  B   B1        1.0  0.40232864022254944  0.4324629008769989  0.6439516544342041  1.0000
  B   B2        1.0  0.3853946924209595  0.4295893609523773  0.8881747126579285  1.0000
  B   B3        1.0  0.9172590970993042  0.9263178110122681  0.5231736302375793  1.0000
  B   B4        1.0  0.8954002857208252  0.4316125810146332  0.4247281849384308  1.0000
  B   B5        1.0  0.18771909177303314  0.7670336365699768  0.037264034152030945  1.0000
  Gd  Gd1       1.0  0.4995281398296356  0.6777793169021606  0.9661118984222412  1.0000
  Gd  Gd2       1.0  0.6801078915596008  0.2260807603597641  0.23097562789916992  1.0000
  Ni  Ni1       1.0  0.6878849864006042  0.6890974044799805  0.44248929619789124  1.0000
  Ni  Ni2       1.0  0.36299043893814087  0.9366732835769653  0.7633156776428223  1.0000
  Ni  Ni3       1.0  0.11654236912727356  0.15814347565174103  0.21734246611595154  1.0000
  Ru  Ru1       1.0  0.05592251941561699  0.2847435176372528  0.7653620839118958  1.0000
