data_image0
_chemical_formula_structural       AlBBaBiCl2Hf3MoY
_chemical_formula_sum              "Al1 B1 Ba1 Bi1 Cl2 Hf3 Mo1 Y1"
_cell_length_a       4.900832156923211
_cell_length_b       7.195245744211229
_cell_length_c       7.905692100524902
_cell_angle_alpha    118.61365939768172
_cell_angle_beta     93.44865199230351
_cell_angle_gamma    88.69267968325995

_space_group_name_H-M_alt    "P 1"
_space_group_IT_number       1

loop_
  _space_group_symop_operation_xyz
  'x, y, z'

loop_
  _atom_site_type_symbol
  _atom_site_label
  _atom_site_symmetry_multiplicity
  _atom_site_fract_x
  _atom_site_fract_y
  _atom_site_fract_z
  _atom_site_occupancy
  Al  Al1       1.0  0.7911632061004639  0.5985822081565857  0.34344455599784857  1.0000
  B   B1        1.0  0.49776613712310785  0.8212538957595826  0.29260984063148504  1.0000
  Ba  Ba1       1.0  0.5316836833953857  0.817594885826111  0.07499065250158311  1.0000
  Bi  Bi1       1.0  0.03145310655236244  0.6222118735313416  0.6111568212509156  1.0000
  Cl  Cl1       1.0  0.5276234149932861  0.0784330666065216  0.172837570309639  1.0000
  Cl  Cl2       1.0  0.02859458513557911  0.815124809741974  0.7726035714149476  1.0000
  Hf  Hf1       1.0  0.03225241228938103  0.10374562442302705  0.6883803009986879  1.0000
  Hf  Hf2       1.0  0.5316563844680786  0.06294114887714386  0.2827721238136292  1.0000
  Hf  Hf3       1.0  0.031671665608882904  0.10841064900159837  0.0342305898666382  1.0000
  Mo  Mo1       1.0  0.02812192402780056  0.1158110946416855  0.008453375659883031  1.0000
  Y   Y1        1.0  0.5361629724502563  0.3441310524940491  0.7929008603096009  1.0000
