data_image0
_chemical_formula_structural       BiCl2Co2Hf5Ni
_chemical_formula_sum              "Bi1 Cl2 Co2 Hf5 Ni1"
_cell_length_a       4.853209090364977
_cell_length_b       7.446139304662739
_cell_length_c       7.751514434814453
_cell_angle_alpha    121.48543686225054
_cell_angle_beta     89.44172136357605
_cell_angle_gamma    87.84514733446316

_space_group_name_H-M_alt    "P 1"
_space_group_IT_number       1

loop_
  _space_group_symop_operation_xyz
  'x, y, z'

loop_
  _atom_site_type_symbol
  _atom_site_label
  _atom_site_symmetry_multiplicity
  _atom_site_fract_x
  _atom_site_fract_y
  _atom_site_fract_z
  _atom_site_occupancy
  Bi  Bi1       1.0  0.39072078466415405  0.27969881892204285  0.9698442816734314  1.0000
  Cl  Cl1       1.0  0.3879930377006531  0.04158517345786095  0.3300408124923706  1.0000
  Cl  Cl2       1.0  0.8950929641723633  0.7119504809379578  0.2853597700595855  1.0000
  Co  Co1       1.0  0.891992449760437  0.04729781672358513  0.5323072075843811  1.0000
  Co  Co2       1.0  0.8918142318725586  0.7738847732543945  0.33715465664863586  1.0000
  Hf  Hf1       1.0  0.888886570930481  0.5494215488433838  0.5290454626083374  1.0000
  Hf  Hf2       1.0  0.3918434679508209  0.19034259021282196  0.6948012709617615  1.0000
  Hf  Hf3       1.0  0.8905087113380432  0.5428404211997986  0.9238354563713074  1.0000
  Hf  Hf4       1.0  0.3876095414161682  0.05182798206806183  0.596612274646759  1.0000
  Hf  Hf5       1.0  0.38878780603408813  0.5618621706962585  0.571556568145752  1.0000
  Ni  Ni1       1.0  0.8992213010787964  0.423071026802063  0.030574822798371315  1.0000
