data_image0
_chemical_formula_structural       Co2FeHf7Mo
_chemical_formula_sum              "Co2 Fe1 Hf7 Mo1"
_cell_length_a       5.4770843847216995
_cell_length_b       5.80547606925783
_cell_length_c       6.089308261871338
_cell_angle_alpha    60.08090394212356
_cell_angle_beta     60.08700927931968
_cell_angle_gamma    60.291077162475275

_space_group_name_H-M_alt    "P 1"
_space_group_IT_number       1

loop_
  _space_group_symop_operation_xyz
  'x, y, z'

loop_
  _atom_site_type_symbol
  _atom_site_label
  _atom_site_symmetry_multiplicity
  _atom_site_fract_x
  _atom_site_fract_y
  _atom_site_fract_z
  _atom_site_occupancy
  Co  Co1       1.0  0.29787519574165344  0.33104223012924194  0.7906333208084106  1.0000
  Co  Co2       1.0  0.7694712281227112  0.3428991436958313  0.1039079874753952  1.0000
  Fe  Fe1       1.0  0.8771281242370605  0.9481320381164551  0.402011901140213  1.0000
  Hf  Hf1       1.0  0.2536884546279907  0.34298309683799744  0.5779735445976257  1.0000
  Hf  Hf2       1.0  0.8857770562171936  0.5321788787841797  0.562847912311554  1.0000
  Hf  Hf3       1.0  0.5344829559326172  0.5873201489448547  0.3028991222381592  1.0000
  Hf  Hf4       1.0  0.3072962164878845  0.2654617726802826  0.659149169921875  1.0000
  Hf  Hf5       1.0  0.5257518887519836  0.05556681007146835  0.2708227634429932  1.0000
  Hf  Hf6       1.0  0.2648342251777649  0.008077898062765598  0.5030885934829712  1.0000
  Hf  Hf7       1.0  0.7629656791687012  0.8483266234397888  0.6862083077430725  1.0000
  Mo  Mo1       1.0  0.5406389236450195  0.5834236741065979  0.7834487557411194  1.0000
