data_image0
_chemical_formula_structural       ClCo2GeHHf6
_chemical_formula_sum              "Cl1 Co2 Ge1 H1 Hf6"
_cell_length_a       5.365787504421612
_cell_length_b       6.063964929070082
_cell_length_c       7.660942077636719
_cell_angle_alpha    74.56396082675404
_cell_angle_beta     70.67619300386869
_cell_angle_gamma    61.26656107907284

_space_group_name_H-M_alt    "P 1"
_space_group_IT_number       1

loop_
  _space_group_symop_operation_xyz
  'x, y, z'

loop_
  _atom_site_type_symbol
  _atom_site_label
  _atom_site_symmetry_multiplicity
  _atom_site_fract_x
  _atom_site_fract_y
  _atom_site_fract_z
  _atom_site_occupancy
  Cl  Cl1       1.0  0.4545893371105194  0.4504372179508209  0.8970623016357422  1.0000
  Co  Co1       1.0  0.0016740912105888128  0.2915762662887573  0.0004627704620361328  1.0000
  Co  Co2       1.0  0.25567826628685  0.7966225743293762  0.42309457063674927  1.0000
  Ge  Ge1       1.0  0.9271779656410217  0.9500148892402649  0.5163252949714661  1.0000
  H   H1        1.0  0.8251409530639648  0.08392483741044998  0.38287004828453064  1.0000
  Hf  Hf1       1.0  0.5614970922470093  0.417776495218277  0.6335618495941162  1.0000
  Hf  Hf2       1.0  0.30905431509017944  0.9450632929801941  0.17681677639484406  1.0000
  Hf  Hf3       1.0  0.767123281955719  0.4412272274494171  0.33822500705718994  1.0000
  Hf  Hf4       1.0  0.3203648328781128  0.2964678704738617  0.3084847033023834  1.0000
  Hf  Hf5       1.0  0.5050606727600098  0.543407678604126  0.8407522439956665  1.0000
  Hf  Hf6       1.0  0.8013952374458313  0.1183648630976677  0.4338758885860443  1.0000
