data_image0
_chemical_formula_structural       Co3Hf8
_chemical_formula_sum              "Co3 Hf8"
_cell_length_a       6.122882986622105
_cell_length_b       6.238549273090508
_cell_length_c       6.102181434631348
_cell_angle_alpha    62.07149240461976
_cell_angle_beta     58.91327055470841
_cell_angle_gamma    58.6558308802543

_space_group_name_H-M_alt    "P 1"
_space_group_IT_number       1

loop_
  _space_group_symop_operation_xyz
  'x, y, z'

loop_
  _atom_site_type_symbol
  _atom_site_label
  _atom_site_symmetry_multiplicity
  _atom_site_fract_x
  _atom_site_fract_y
  _atom_site_fract_z
  _atom_site_occupancy
  Co  Co1       1.0  0.239983469247818  0.9802788496017456  0.5451654195785522  1.0000
  Co  Co2       1.0  0.32001376152038574  0.672997772693634  0.6738274097442627  1.0000
  Co  Co3       1.0  0.8350291848182678  0.1942504346370697  0.6853046417236328  1.0000
  Hf  Hf1       1.0  0.44020822644233704  0.4142685532569885  0.22055001556873322  1.0000
  Hf  Hf2       1.0  0.9408283829689026  0.506430983543396  0.053662192076444626  1.0000
  Hf  Hf3       1.0  0.7457033395767212  0.9396620392799377  0.4494363069534302  1.0000
  Hf  Hf4       1.0  0.4378398358821869  0.23948070406913757  0.7232936024665833  1.0000
  Hf  Hf5       1.0  0.42969268560409546  0.22155699133872986  0.7132327556610107  1.0000
  Hf  Hf6       1.0  0.4064733684062958  0.3863293528556824  0.7920519709587097  1.0000
  Hf  Hf7       1.0  0.882964551448822  0.6860000491142273  0.8273856043815613  1.0000
  Hf  Hf8       1.0  0.78062504529953  0.7141566276550293  0.20393060147762299  1.0000
