data_image0
_chemical_formula_structural       BiClCo3FHf5
_chemical_formula_sum              "Bi1 Cl1 Co3 F1 Hf5"
_cell_length_a       4.643824747694014
_cell_length_b       4.779786995947033
_cell_length_c       9.883431434631348
_cell_angle_alpha    93.48170512298819
_cell_angle_beta     90.30761163074636
_cell_angle_gamma    104.71427802366024

_space_group_name_H-M_alt    "P 1"
_space_group_IT_number       1

loop_
  _space_group_symop_operation_xyz
  'x, y, z'

loop_
  _atom_site_type_symbol
  _atom_site_label
  _atom_site_symmetry_multiplicity
  _atom_site_fract_x
  _atom_site_fract_y
  _atom_site_fract_z
  _atom_site_occupancy
  Bi  Bi1       1.0  0.542956531047821  0.365429162979126  0.9918209314346313  1.0000
  Cl  Cl1       1.0  0.577921986579895  0.8395425081253052  0.9830808639526367  1.0000
  Co  Co1       1.0  0.5118098855018616  0.8649252653121948  0.7667983770370483  1.0000
  Co  Co2       1.0  0.5248518586158752  0.8436653017997742  0.44741857051849365  1.0000
  Co  Co3       1.0  0.5331593155860901  0.36631372570991516  0.7787006497383118  1.0000
  F   F1        1.0  0.054697051644325256  0.8058553338050842  0.2564431428909302  1.0000
  Hf  Hf1       1.0  0.04529247805476189  0.13563431799411774  0.9332150816917419  1.0000
  Hf  Hf2       1.0  0.5434809923171997  0.6499620079994202  0.265535056591034  1.0000
  Hf  Hf3       1.0  0.045895036309957504  0.860205352306366  0.1431332677602768  1.0000
  Hf  Hf4       1.0  0.019546236842870712  0.16439709067344666  0.4310547709465027  1.0000
  Hf  Hf5       1.0  0.04350389540195465  0.3592359721660614  0.5051112174987793  1.0000
