data_image0
_chemical_formula_structural       AlBr2CoCs2HI3Ir
_chemical_formula_sum              "Al1 Br2 Co1 Cs2 H1 I3 Ir1"
_cell_length_a       6.140285941625074
_cell_length_b       9.006499951297467
_cell_length_c       10.41989517211914
_cell_angle_alpha    90.37289383182787
_cell_angle_beta     89.9187643342719
_cell_angle_gamma    90.14658157976712

_space_group_name_H-M_alt    "P 1"
_space_group_IT_number       1

loop_
  _space_group_symop_operation_xyz
  'x, y, z'

loop_
  _atom_site_type_symbol
  _atom_site_label
  _atom_site_symmetry_multiplicity
  _atom_site_fract_x
  _atom_site_fract_y
  _atom_site_fract_z
  _atom_site_occupancy
  Al  Al1       1.0  0.6302131414413452  0.20225201547145844  0.22405202686786652  1.0000
  Br  Br1       1.0  0.13211070001125336  0.40245670080184937  0.008920341730117798  1.0000
  Br  Br2       1.0  0.12655992805957794  0.004880324937403202  0.5876415967941284  1.0000
  Co  Co1       1.0  0.12830092012882233  0.7168387770652771  0.056606754660606384  1.0000
  Cs  Cs1       1.0  0.6363041400909424  0.3518010079860687  0.3714044392108917  1.0000
  Cs  Cs2       1.0  0.12583144009113312  0.02832539565861225  0.9305976629257202  1.0000
  H   H1        1.0  0.6234851479530334  0.7630641460418701  0.08083438128232956  1.0000
  I   I1        1.0  0.6250179409980774  0.24411797523498535  0.5769699215888977  1.0000
  I   I2        1.0  0.1246994361281395  0.5082491636276245  0.05322238802909851  1.0000
  I   I3        1.0  0.6295918226242065  0.36248594522476196  0.423734188079834  1.0000
  Ir  Ir1       1.0  0.1258373260498047  0.7611589431762695  0.08440276980400085  1.0000
