data_image0
_chemical_formula_structural       AlBiBr3I2RuZr3
_chemical_formula_sum              "Al1 Bi1 Br3 I2 Ru1 Zr3"
_cell_length_a       7.022741370114602
_cell_length_b       7.233676612413676
_cell_length_c       10.499622344970703
_cell_angle_alpha    115.33163973294745
_cell_angle_beta     89.92962428030103
_cell_angle_gamma    90.43061617458626

_space_group_name_H-M_alt    "P 1"
_space_group_IT_number       1

loop_
  _space_group_symop_operation_xyz
  'x, y, z'

loop_
  _atom_site_type_symbol
  _atom_site_label
  _atom_site_symmetry_multiplicity
  _atom_site_fract_x
  _atom_site_fract_y
  _atom_site_fract_z
  _atom_site_occupancy
  Al  Al1       1.0  0.691352903842926  0.15267762541770935  0.21142522990703583  1.0000
  Bi  Bi1       1.0  0.6908195614814758  0.7867903113365173  0.6431437730789185  1.0000
  Br  Br1       1.0  0.6704659461975098  0.6047466993331909  0.498272567987442  1.0000
  Br  Br2       1.0  0.6980171203613281  0.6477552056312561  0.43354591727256775  1.0000
  Br  Br3       1.0  0.6816995739936829  0.36671555042266846  0.2863785922527313  1.0000
  I   I1        1.0  0.6871854066848755  0.34720227122306824  0.17756880819797516  1.0000
  I   I2        1.0  0.6741479635238647  0.5862501263618469  0.9184895753860474  1.0000
  Ru  Ru1       1.0  0.19807861745357513  0.5908083915710449  0.04971204698085783  1.0000
  Zr  Zr1       1.0  0.19522209465503693  0.491731196641922  0.5966958999633789  1.0000
  Zr  Zr2       1.0  0.7048723101615906  0.9305765628814697  0.06853307038545604  1.0000
  Zr  Zr3       1.0  0.2013605684041977  0.18603287637233734  0.925453245639801  1.0000
