data_image0
_chemical_formula_structural       AlBiBrCs2DyI3TbZr
_chemical_formula_sum              "Al1 Bi1 Br1 Cs2 Dy1 I3 Tb1 Zr1"
_cell_length_a       7.53284679696095
_cell_length_b       7.846717829441937
_cell_length_c       9.67817211151123
_cell_angle_alpha    88.0561009509185
_cell_angle_beta     76.81413068657169
_cell_angle_gamma    69.00416669663669

_space_group_name_H-M_alt    "P 1"
_space_group_IT_number       1

loop_
  _space_group_symop_operation_xyz
  'x, y, z'

loop_
  _atom_site_type_symbol
  _atom_site_label
  _atom_site_symmetry_multiplicity
  _atom_site_fract_x
  _atom_site_fract_y
  _atom_site_fract_z
  _atom_site_occupancy
  Al  Al1       1.0  0.6657935380935669  0.3016250729560852  0.05887011066079139  1.0000
  Bi  Bi1       1.0  0.17283500730991364  0.23967820405960083  0.17012731730937958  1.0000
  Br  Br1       1.0  0.9321484565734863  0.803990364074707  0.5966374278068542  1.0000
  Cs  Cs1       1.0  0.6635745763778687  0.3717145025730133  0.9203085303306578  1.0000
  Cs  Cs2       1.0  0.9395785331726074  0.9288088083267212  0.2060928642749786  1.0000
  Dy  Dy1       1.0  0.7073323130607605  0.8438522219657898  0.7487848401069641  1.0000
  I   I1        1.0  0.6673652529716492  0.9408788084983826  0.3384900987148285  1.0000
  I   I2        1.0  0.6703035831451416  0.4355708062648773  0.8636756539344788  1.0000
  I   I3        1.0  0.16475793719291687  0.45175275206565857  0.2767578065395355  1.0000
  Tb  Tb1       1.0  0.4327675700187683  0.6842563152313232  0.3215765953063965  1.0000
  Zr  Zr1       1.0  0.6686205267906189  0.9834812879562378  0.9050670266151427  1.0000
