data_image0
_chemical_formula_structural       AlBr3CsI3PtTb2
_chemical_formula_sum              "Al1 Br3 Cs1 I3 Pt1 Tb2"
_cell_length_a       6.471426959358232
_cell_length_b       6.740449248989047
_cell_length_c       12.582815170288086
_cell_angle_alpha    90.05907421264628
_cell_angle_beta     89.65362943109079
_cell_angle_gamma    107.33604734451093

_space_group_name_H-M_alt    "P 1"
_space_group_IT_number       1

loop_
  _space_group_symop_operation_xyz
  'x, y, z'

loop_
  _atom_site_type_symbol
  _atom_site_label
  _atom_site_symmetry_multiplicity
  _atom_site_fract_x
  _atom_site_fract_y
  _atom_site_fract_z
  _atom_site_occupancy
  Al  Al1       1.0  0.9784763455390929  0.25235629081726074  0.7346558570861816  1.0000
  Br  Br1       1.0  0.9947902560234069  0.2795562744140625  0.682426691055298  1.0000
  Br  Br2       1.0  0.47459945082664484  0.18394574522972107  0.8812119960784912  1.0000
  Br  Br3       1.0  0.48400083184242243  0.368468701839447  0.6183832883834839  1.0000
  Cs  Cs1       1.0  0.4737399816513061  0.7554605603218079  0.3846145272254944  1.0000
  I   I1        1.0  0.9718577861785888  0.10357581824064255  0.12759889662265778  1.0000
  I   I2        1.0  0.9735460877418517  0.19079405069351196  0.30918946862220764  1.0000
  I   I3        1.0  0.23104991018772122  0.9583916664123535  0.47814828157424927  1.0000
  Pt  Pt1       1.0  0.9850989580154418  0.6296799182891846  0.649575412273407  1.0000
  Tb  Tb1       1.0  0.9763224124908446  0.09805481880903244  0.2321641892194748  1.0000
  Tb  Tb2       1.0  0.47174260020256037  0.2503480315208435  0.01092787180095911  1.0000
