data_image0
_chemical_formula_structural       Bi6Br4Hg
_chemical_formula_sum              "Bi6 Br4 Hg1"
_cell_length_a       6.444312859379417
_cell_length_b       6.100353651399797
_cell_length_c       15.870229721069336
_cell_angle_alpha    78.00354473881531
_cell_angle_beta     81.42045336873791
_cell_angle_gamma    66.19706037917845

_space_group_name_H-M_alt    "P 1"
_space_group_IT_number       1

loop_
  _space_group_symop_operation_xyz
  'x, y, z'

loop_
  _atom_site_type_symbol
  _atom_site_label
  _atom_site_symmetry_multiplicity
  _atom_site_fract_x
  _atom_site_fract_y
  _atom_site_fract_z
  _atom_site_occupancy
  Bi  Bi1       1.0  0.57293701171875  0.3683534860610962  0.6521710753440856  1.0000
  Bi  Bi2       1.0  0.5075129270553589  0.7983114719390869  0.39525198936462397  1.0000
  Bi  Bi3       1.0  0.07118583470582962  0.442043274641037  0.15505689382553098  1.0000
  Bi  Bi4       1.0  0.9292993545532227  0.43396681547164917  0.9964988231658934  1.0000
  Bi  Bi5       1.0  0.07007616758346558  0.6812862753868103  0.4122111797332763  1.0000
  Bi  Bi6       1.0  0.7951628565788269  0.45660462975502014  0.28131136298179626  1.0000
  Br  Br1       1.0  0.0910293385386467  0.5353903770446777  0.10968219488859175  1.0000
  Br  Br2       1.0  0.8347252011299133  0.8385248780250549  0.5754791498184203  1.0000
  Br  Br3       1.0  0.1321561187505722  0.9321192502975464  0.6350911855697631  1.0000
  Br  Br4       1.0  0.4405349791049957  0.8868293762207031  0.9555268883705138  1.0000
  Hg  Hg1       1.0  0.14245212078094482  0.0030543822795152664  0.8125444054603576  1.0000
