data_image0
_chemical_formula_structural       Bi8Br3
_chemical_formula_sum              "Bi8 Br3"
_cell_length_a       5.816384927166858
_cell_length_b       7.348677834178772
_cell_length_c       9.695428848266602
_cell_angle_alpha    59.37392592348158
_cell_angle_beta     77.10272950358025
_cell_angle_gamma    68.99405941072017

_space_group_name_H-M_alt    "P 1"
_space_group_IT_number       1

loop_
  _space_group_symop_operation_xyz
  'x, y, z'

loop_
  _atom_site_type_symbol
  _atom_site_label
  _atom_site_symmetry_multiplicity
  _atom_site_fract_x
  _atom_site_fract_y
  _atom_site_fract_z
  _atom_site_occupancy
  Bi  Bi1       1.0  0.22243107855319977  0.18397642672061923  0.7284855246543884  1.0000
  Bi  Bi2       1.0  0.1506659388542175  0.9488273859024049  0.7803292274475098  1.0000
  Bi  Bi3       1.0  0.16386498510837552  0.843781352043152  0.28883188962936396  1.0000
  Bi  Bi4       1.0  0.1820375919342041  0.398875117301941  0.9074246883392334  1.0000
  Bi  Bi5       1.0  0.6412943601608276  0.22093831002712253  0.663197934627533  1.0000
  Bi  Bi6       1.0  0.6476674675941467  0.9945441484451295  0.8034660220146179  1.0000
  Bi  Bi7       1.0  0.7607102990150452  0.5380852222442627  0.5678671598434448  1.0000
  Bi  Bi8       1.0  0.12652157247066495  0.8553090691566468  0.981471061706543  1.0000
  Br  Br1       1.0  0.6473315954208374  0.3883009850978852  0.4262286424636841  1.0000
  Br  Br2       1.0  0.7168049812316895  0.050640411674976356  0.8190510869026184  1.0000
  Br  Br3       1.0  0.11128665506839751  0.36593988537788397  0.44706737995147705  1.0000
