data_image0
_chemical_formula_structural       BeCd2GdGeSeTe3
_chemical_formula_sum              "Be1 Cd2 Gd1 Ge1 Se1 Te3"
_cell_length_a       6.257516754254526
_cell_length_b       6.241861454421654
_cell_length_c       6.213540554046631
_cell_angle_alpha    94.08024131738362
_cell_angle_beta     93.97204332336945
_cell_angle_gamma    94.43148683515713

_space_group_name_H-M_alt    "P 1"
_space_group_IT_number       1

loop_
  _space_group_symop_operation_xyz
  'x, y, z'

loop_
  _atom_site_type_symbol
  _atom_site_label
  _atom_site_symmetry_multiplicity
  _atom_site_fract_x
  _atom_site_fract_y
  _atom_site_fract_z
  _atom_site_occupancy
  Be  Be1       1.0  0.7610718011856079  0.9533076882362366  0.787699818611145  1.0000
  Cd  Cd1       1.0  0.26508358120918274  0.8831804990768433  0.9925713539123535  1.0000
  Cd  Cd2       1.0  0.8873302936553955  0.4073144793510437  0.12299608439207077  1.0000
  Gd  Gd1       1.0  0.3484072685241699  0.6666752696037292  0.5393038988113403  1.0000
  Ge  Ge1       1.0  0.9468465447425842  0.7046770453453064  0.7872514128684998  1.0000
  Se  Se1       1.0  0.5266391634941101  0.9130548238754272  0.8110007047653198  1.0000
  Te  Te1       1.0  0.6879390478134155  0.3043663203716278  0.5879321694374084  1.0000
  Te  Te2       1.0  0.4311169385910034  0.5035358667373657  0.09321233630180359  1.0000
  Te  Te3       1.0  0.07108541578054428  0.0069163041189312935  0.3173336982727051  1.0000
