data_image0
_chemical_formula_structural       Be4Cd2Te3
_chemical_formula_sum              "Be4 Cd2 Te3"
_cell_length_a       6.030508687714323
_cell_length_b       6.080075165466485
_cell_length_c       6.753018379211426
_cell_angle_alpha    67.47045414561507
_cell_angle_beta     77.25467475566387
_cell_angle_gamma    68.00846242122985

_space_group_name_H-M_alt    "P 1"
_space_group_IT_number       1

loop_
  _space_group_symop_operation_xyz
  'x, y, z'

loop_
  _atom_site_type_symbol
  _atom_site_label
  _atom_site_symmetry_multiplicity
  _atom_site_fract_x
  _atom_site_fract_y
  _atom_site_fract_z
  _atom_site_occupancy
  Be  Be1       1.0  0.4902460277080536  0.23021088540554047  0.12447519600391388  1.0000
  Be  Be2       1.0  0.7546212077140808  0.05330859497189522  0.31413885951042175  1.0000
  Be  Be3       1.0  0.5593134164810181  0.4930734932422638  0.8074398636817932  1.0000
  Be  Be4       1.0  0.8373143076896667  0.22572268545627594  0.9988624453544618  1.0000
  Cd  Cd1       1.0  0.24727436900138855  0.5333585739135742  0.3888643980026245  1.0000
  Cd  Cd2       1.0  0.8450406193733215  0.8310234546661377  0.8013008236885071  1.0000
  Te  Te1       1.0  0.6970601081848145  0.6607730984687805  0.3927249610424042  1.0000
  Te  Te2       1.0  0.203522190451622  0.3630155026912689  0.8575127124786377  1.0000
  Te  Te3       1.0  0.09803777188062668  0.07190631330013275  0.3979237973690033  1.0000
