data_image0
_chemical_formula_structural       Be3Cd2Te4
_chemical_formula_sum              "Be3 Cd2 Te4"
_cell_length_a       6.374696622842543
_cell_length_b       6.449265498552534
_cell_length_c       6.807147979736328
_cell_angle_alpha    65.82613578351541
_cell_angle_beta     79.20720245297008
_cell_angle_gamma    71.72180299517866

_space_group_name_H-M_alt    "P 1"
_space_group_IT_number       1

loop_
  _space_group_symop_operation_xyz
  'x, y, z'

loop_
  _atom_site_type_symbol
  _atom_site_label
  _atom_site_symmetry_multiplicity
  _atom_site_fract_x
  _atom_site_fract_y
  _atom_site_fract_z
  _atom_site_occupancy
  Be  Be1       1.0  0.7811703681945801  0.5010117292404175  0.7246717810630798  1.0000
  Be  Be2       1.0  0.834965705871582  0.6275595426559448  0.38714274764060974  1.0000
  Be  Be3       1.0  0.1544240266084671  0.8752270340919495  0.7197023034095764  1.0000
  Cd  Cd1       1.0  0.22586585581302643  0.06807075440883636  0.1797327697277069  1.0000
  Cd  Cd2       1.0  0.5526512861251831  0.22885414958000183  0.5257761478424072  1.0000
  Te  Te1       1.0  0.49699270725250244  0.7517082691192627  0.531602680683136  1.0000
  Te  Te2       1.0  0.06076875329017639  0.2754918932914734  0.5379619598388672  1.0000
  Te  Te3       1.0  0.0247806366533041  0.7670135498046875  0.05791977792978293  1.0000
  Te  Te4       1.0  0.6046711802482605  0.3261282444000244  0.05653581023216251  1.0000
