data_image0
_chemical_formula_structural       BrCd2EuGe2HfNaTe
_chemical_formula_sum              "Br1 Cd2 Eu1 Ge2 Hf1 Na1 Te1"
_cell_length_a       6.69533551638259
_cell_length_b       6.67481082737463
_cell_length_c       6.725375652313232
_cell_angle_alpha    66.89637059962854
_cell_angle_beta     66.9802586500447
_cell_angle_gamma    66.4309528344492

_space_group_name_H-M_alt    "P 1"
_space_group_IT_number       1

loop_
  _space_group_symop_operation_xyz
  'x, y, z'

loop_
  _atom_site_type_symbol
  _atom_site_label
  _atom_site_symmetry_multiplicity
  _atom_site_fract_x
  _atom_site_fract_y
  _atom_site_fract_z
  _atom_site_occupancy
  Br  Br1       1.0  0.35051167011260986  0.749991238117218  0.49666422605514526  1.0000
  Cd  Cd1       1.0  0.2804170846939087  0.9069145321846008  0.8836380839347839  1.0000
  Cd  Cd2       1.0  0.6762434244155884  0.46992209553718567  0.12364796549081801  1.0000
  Eu  Eu1       1.0  0.8659517168998718  0.8248685002326965  0.4185585081577301  1.0000
  Ge  Ge1       1.0  0.9088649153709412  0.3508981168270111  0.7366475462913513  1.0000
  Ge  Ge2       1.0  0.9429091215133667  0.31105685234069824  0.37604033946990967  1.0000
  Hf  Hf1       1.0  0.3228975534439087  0.2808665633201599  0.4534783661365509  1.0000
  Na  Na1       1.0  0.33888816833496094  0.3325720429420471  0.9266800284385681  1.0000
  Te  Te1       1.0  0.7902020812034607  0.9088039398193359  0.9272196292877197  1.0000
