data_image0
_chemical_formula_structural       Cd3Hf3Na2Np
_chemical_formula_sum              "Cd3 Hf3 Na2 Np1"
_cell_length_a       3.903627036479137
_cell_length_b       5.855850594594195
_cell_length_c       9.386924743652344
_cell_angle_alpha    89.97753912262131
_cell_angle_beta     89.89692717753849
_cell_angle_gamma    109.6615561731238

_space_group_name_H-M_alt    "P 1"
_space_group_IT_number       1

loop_
  _space_group_symop_operation_xyz
  'x, y, z'

loop_
  _atom_site_type_symbol
  _atom_site_label
  _atom_site_symmetry_multiplicity
  _atom_site_fract_x
  _atom_site_fract_y
  _atom_site_fract_z
  _atom_site_occupancy
  Cd  Cd1       1.0  0.14713293313980103  0.4500610828399658  0.8857276439666748  1.0000
  Cd  Cd2       1.0  0.1785646229982376  0.515685498714447  0.5685577988624574  1.0000
  Cd  Cd3       1.0  0.8306887149810791  0.8318591117858887  0.7424065470695496  1.0000
  Hf  Hf1       1.0  0.7555633783340454  0.6741410493850708  0.38928157091140747  1.0000
  Hf  Hf2       1.0  0.751433789730072  0.6733928322792053  0.06360099464654922  1.0000
  Hf  Hf3       1.0  0.4471500813961029  0.06382319331169128  0.9449418783187866  1.0000
  Na  Na1       1.0  0.03669678792357445  0.23866334557533264  0.22009816765785217  1.0000
  Na  Na2       1.0  0.4599238336086273  0.0869428887963295  0.527111053466797  1.0000
  Np  Np1       1.0  0.32830810546875  0.8414170742034912  0.22574895620346064  1.0000
