data_image0
_chemical_formula_structural       Al4BaK3Na2NiZn5
_chemical_formula_sum              "Al4 Ba1 K3 Na2 Ni1 Zn5"
_cell_length_a       7.545392763069905
_cell_length_b       7.959915287543089
_cell_length_c       7.739780426025391
_cell_angle_alpha    109.07424675359435
_cell_angle_beta     110.07804154246705
_cell_angle_gamma    108.3750494208758

_space_group_name_H-M_alt    "P 1"
_space_group_IT_number       1

loop_
  _space_group_symop_operation_xyz
  'x, y, z'

loop_
  _atom_site_type_symbol
  _atom_site_label
  _atom_site_symmetry_multiplicity
  _atom_site_fract_x
  _atom_site_fract_y
  _atom_site_fract_z
  _atom_site_occupancy
  Al  Al1       1.0  0.6890987157821655  0.9095826745033264  0.57847797870636  1.0000
  Al  Al2       1.0  0.5686349868774414  0.8933942914009094  0.3690383732318878  1.0000
  Al  Al3       1.0  0.19546324014663696  0.4173063635826111  0.5810790657997132  1.0000
  Al  Al4       1.0  0.5716868042945862  0.07976434379816055  0.08842891454696657  1.0000
  Ba  Ba1       1.0  0.2566545903682709  0.06646031886339188  0.12253703176975252  1.0000
  K   K1        1.0  0.7516387701034546  0.40168461203575134  0.8852775096893312  1.0000
  K   K2        1.0  0.21189174056053162  0.41074949502944946  0.04889559373259542  1.0000
  K   K3        1.0  0.5766085386276245  0.1336803138256073  0.08312309533357622  1.0000
  Na  Na1       1.0  0.07785606384277344  0.9027687311172485  0.857900381088257  1.0000
  Na  Na2       1.0  0.7200941443443298  0.42083489894866943  0.6280961632728578  1.0000
  Ni  Ni1       1.0  0.9072834849357605  0.8065167665481567  0.08356227725744249  1.0000
  Zn  Zn1       1.0  0.23553256690502167  0.23533760011196136  0.8308876752853395  1.0000
  Zn  Zn2       1.0  0.17333854734897614  0.14635808765888214  0.5641990900039674  1.0000
  Zn  Zn3       1.0  0.9101424813270569  0.6386057138442993  0.06972643733024597  1.0000
  Zn  Zn4       1.0  0.742217481136322  0.4060077965259552  0.8358086943626405  1.0000
  Zn  Zn5       1.0  0.4682369530200958  0.5579551458358765  0.3257037997245789  1.0000
