data_image0
_chemical_formula_structural       Al4Ba2Cs2K2Na2Zn4
_chemical_formula_sum              "Al4 Ba2 Cs2 K2 Na2 Zn4"
_cell_length_a       6.251372398677846
_cell_length_b       8.415371834017408
_cell_length_c       9.743082046508789
_cell_angle_alpha    112.2672584953515
_cell_angle_beta     105.83154272615575
_cell_angle_gamma    89.47134460097544

_space_group_name_H-M_alt    "P 1"
_space_group_IT_number       1

loop_
  _space_group_symop_operation_xyz
  'x, y, z'

loop_
  _atom_site_type_symbol
  _atom_site_label
  _atom_site_symmetry_multiplicity
  _atom_site_fract_x
  _atom_site_fract_y
  _atom_site_fract_z
  _atom_site_occupancy
  Al  Al1       1.0  0.678533136844635  0.7903030514717102  0.6045201420783997  1.0000
  Al  Al2       1.0  0.6848137378692628  0.3367081880569458  0.1178412064909935  1.0000
  Al  Al3       1.0  0.4995782673358918  0.3689350485801697  0.7477730512619019  1.0000
  Al  Al4       1.0  0.000776504166424293  0.8454313874244691  0.458771288394928  1.0000
  Ba  Ba1       1.0  0.640434741973877  0.6690391302108765  0.053950410336256076  1.0000
  Ba  Ba2       1.0  0.15536539256572723  0.12106415629386903  0.3132424056529999  1.0000
  Cs  Cs1       1.0  0.900038242340088  0.5274279117584229  0.4854887127876282  1.0000
  Cs  Cs2       1.0  0.3970907330513001  0.02807487547397614  0.6253164410591125  1.0000
  K   K1        1.0  0.6625368595123291  0.6583195924758911  0.9971218705177307  1.0000
  K   K2        1.0  0.36541578173637396  0.2920163869857788  0.1954049915075302  1.0000
  Na  Na1       1.0  0.14398035407066345  0.6631504893302917  0.016396522521972656  1.0000
  Na  Na2       1.0  0.18758419156074527  0.6323413848876953  0.7444401979446411  1.0000
  Zn  Zn1       1.0  0.9000244140625001  0.030371857807040218  0.5436915159225464  1.0000
  Zn  Zn2       1.0  0.41579157114028936  0.03446391224861145  0.4099050462245941  1.0000
  Zn  Zn3       1.0  0.9040467739105226  0.27301448583602905  0.9738912582397461  1.0000
  Zn  Zn4       1.0  0.1718307435512543  0.8004144430160522  0.30333733558654785  1.0000
