data_image0
_chemical_formula_structural       Al3AuBaCl2K6NaNb2
_chemical_formula_sum              "Al3 Au1 Ba1 Cl2 K6 Na1 Nb2"
_cell_length_a       7.914499847486656
_cell_length_b       8.116294746262605
_cell_length_c       8.079314231872559
_cell_angle_alpha    109.74434014415178
_cell_angle_beta     109.01889020881443
_cell_angle_gamma    106.76717338931525

_space_group_name_H-M_alt    "P 1"
_space_group_IT_number       1

loop_
  _space_group_symop_operation_xyz
  'x, y, z'

loop_
  _atom_site_type_symbol
  _atom_site_label
  _atom_site_symmetry_multiplicity
  _atom_site_fract_x
  _atom_site_fract_y
  _atom_site_fract_z
  _atom_site_occupancy
  Al  Al1       1.0  0.17155359685420993  0.27426621317863464  0.5505529046058655  1.0000
  Al  Al2       1.0  0.26702117919921875  0.029183009639382362  0.33215630054473877  1.0000
  Al  Al3       1.0  0.9362595677375795  0.7678596377372742  0.7528932094573975  1.0000
  Au  Au1       1.0  0.6956563591957093  0.7835454940795898  0.23890239000320435  1.0000
  Ba  Ba1       1.0  0.4553202092647553  0.5332931876182556  0.5701514482498169  1.0000
  Cl  Cl1       1.0  0.2192458361387253  0.5289780497550964  0.3327409625053406  1.0000
  Cl  Cl2       1.0  0.209268793463707  0.2748986780643463  0.8325658440589905  1.0000
  K   K1        1.0  0.21906098723411563  0.7863501906394958  0.7649356126785278  1.0000
  K   K2        1.0  0.4510390758514405  0.5315131545066833  0.2839297652244568  1.0000
  K   K3        1.0  0.9325440526008607  0.02486429549753666  0.832024097442627  1.0000
  K   K4        1.0  0.9486261606216432  0.17907455563545227  0.06195246800780296  1.0000
  K   K5        1.0  0.6705339550971986  0.2705962061882019  0.8328753113746643  1.0000
  K   K6        1.0  0.666311025619507  0.8388831615447998  0.027137842029333115  1.0000
  Na  Na1       1.0  0.1735002398490906  0.27771466970443726  0.3548940420150757  1.0000
  Nb  Nb1       1.0  0.7299993634223939  0.5225021839141846  0.482249915599823  1.0000
  Nb  Nb2       1.0  0.15972886979579928  0.5274020433425903  0.5504757165908813  1.0000
