data_image0
_chemical_formula_structural       Al3BaCsMnNa2Nb2PZn5
_chemical_formula_sum              "Al3 Ba1 Cs1 Mn1 Na2 Nb2 P1 Zn5"
_cell_length_a       7.205312899661199
_cell_length_b       8.058559352683641
_cell_length_c       8.055092811584473
_cell_angle_alpha    106.42623563457617
_cell_angle_beta     108.47767542934447
_cell_angle_gamma    109.30310054469301

_space_group_name_H-M_alt    "P 1"
_space_group_IT_number       1

loop_
  _space_group_symop_operation_xyz
  'x, y, z'

loop_
  _atom_site_type_symbol
  _atom_site_label
  _atom_site_symmetry_multiplicity
  _atom_site_fract_x
  _atom_site_fract_y
  _atom_site_fract_z
  _atom_site_occupancy
  Al  Al1       1.0  0.01860157400369644  0.43298354744911194  0.6983921527862549  1.0000
  Al  Al2       1.0  0.303616464138031  0.3595062792301178  0.336799681186676  1.0000
  Al  Al3       1.0  0.6445204615592957  0.630425214767456  0.8603654503822327  1.0000
  Ba  Ba1       1.0  0.9381845593452454  0.7236945033073425  0.48333361744880676  1.0000
  Cs  Cs1       1.0  0.14316372573375702  0.9765611886978149  0.4836011528968811  1.0000
  Mn  Mn1       1.0  0.5904588103294373  0.8210034966468811  0.8901677131652832  1.0000
  Na  Na1       1.0  0.15403996407985687  0.9832439422607422  0.09423847496509552  1.0000
  Na  Na2       1.0  0.9245105385780334  0.009241830557584763  0.8364510536193848  1.0000
  Nb  Nb1       1.0  0.28856006264686584  0.8001360297203064  0.9064925312995911  1.0000
  Nb  Nb2       1.0  0.605230987071991  0.43893566727638245  0.47424983978271484  1.0000
  P   P1        1.0  0.9394945502281189  0.8962003588676453  0.5423418283462524  1.0000
  Zn  Zn1       1.0  0.8112194538116455  0.10564128309488297  0.8549726605415344  1.0000
  Zn  Zn2       1.0  0.636348307132721  0.1481272280216217  0.7178773283958435  1.0000
  Zn  Zn3       1.0  0.15053151547908783  0.8535891175270081  0.30136558413505554  1.0000
  Zn  Zn4       1.0  0.15364907681941986  0.9993272423744202  0.5706169009208679  1.0000
  Zn  Zn5       1.0  0.3007686138153076  0.3227306008338928  0.8719009757041931  1.0000
