data_image0
_chemical_formula_structural       Al4BaKLiNa2NiTlZn5
_chemical_formula_sum              "Al4 Ba1 K1 Li1 Na2 Ni1 Tl1 Zn5"
_cell_length_a       6.59175157716956
_cell_length_b       8.528288707253495
_cell_length_c       8.602375984191895
_cell_angle_alpha    114.81060201523096
_cell_angle_beta     110.73171103324921
_cell_angle_gamma    89.56882700543761

_space_group_name_H-M_alt    "P 1"
_space_group_IT_number       1

loop_
  _space_group_symop_operation_xyz
  'x, y, z'

loop_
  _atom_site_type_symbol
  _atom_site_label
  _atom_site_symmetry_multiplicity
  _atom_site_fract_x
  _atom_site_fract_y
  _atom_site_fract_z
  _atom_site_occupancy
  Al  Al1       1.0  0.7663841247558594  0.886418581008911  0.24060218036174774  1.0000
  Al  Al2       1.0  0.3969443738460541  0.6404051780700684  0.6600412130355835  1.0000
  Al  Al3       1.0  0.2880326211452484  0.21879392862319944  0.25301703810691833  1.0000
  Al  Al4       1.0  0.6636156439781189  0.08984941989183426  0.8451351523399353  1.0000
  Ba  Ba1       1.0  0.42108792066574097  0.28689107298851013  0.7023633122444153  1.0000
  K   K1        1.0  0.41248542070388794  0.6416370272636414  0.6387335062026978  1.0000
  Li  Li1       1.0  0.045727692544460255  0.9089652895927428  0.6250633001327515  1.0000
  Na  Na1       1.0  0.39932698011398315  0.3810465335845947  0.6283771395683289  1.0000
  Na  Na2       1.0  0.2363504916429519  0.8892538547515868  0.8878418803215027  1.0000
  Ni  Ni1       1.0  0.6275410056114197  0.523699939250946  0.36119595170021057  1.0000
  Tl  Tl1       1.0  0.07332605868577957  0.5076153874397278  0.22460103034973142  1.0000
  Zn  Zn1       1.0  0.9500544667243958  0.23170644044876096  0.43574252724647516  1.0000
  Zn  Zn2       1.0  0.7609452605247498  0.9085983037948607  0.1344859004020691  1.0000
  Zn  Zn3       1.0  0.41729602217674255  0.23845855891704557  0.5413495302200317  1.0000
  Zn  Zn4       1.0  0.4340647757053375  0.8861080408096312  0.3920602798461914  1.0000
  Zn  Zn5       1.0  0.8857855796813965  0.7749205827713013  0.12210386246442795  1.0000
