data_image0
_chemical_formula_structural       Al4CaGaK8NaP
_chemical_formula_sum              "Al4 Ca1 Ga1 K8 Na1 P1"
_cell_length_a       7.404569080359093
_cell_length_b       8.202007934864305
_cell_length_c       8.368849754333496
_cell_angle_alpha    112.70055321969596
_cell_angle_beta     109.28971067364272
_cell_angle_gamma    104.31930111486437

_space_group_name_H-M_alt    "P 1"
_space_group_IT_number       1

loop_
  _space_group_symop_operation_xyz
  'x, y, z'

loop_
  _atom_site_type_symbol
  _atom_site_label
  _atom_site_symmetry_multiplicity
  _atom_site_fract_x
  _atom_site_fract_y
  _atom_site_fract_z
  _atom_site_occupancy
  Al  Al1       1.0  0.856880009174347  0.7026286125183105  0.7153715491294861  1.0000
  Al  Al2       1.0  0.3252248764038086  0.39599719643592834  0.484937846660614  1.0000
  Al  Al3       1.0  0.8259039521217347  0.27126604318618774  0.7765732407569885  1.0000
  Al  Al4       1.0  0.9271932840347291  0.9309956431388855  0.987719714641571  1.0000
  Ca  Ca1       1.0  0.8224884271621705  0.5170301198959351  0.00517177302390337  1.0000
  Ga  Ga1       1.0  0.2967451214790344  0.049487266689538956  0.8215038180351257  1.0000
  K   K1        1.0  0.5383336544036865  0.9980170726776123  0.8212440609931946  1.0000
  K   K2        1.0  0.03275402635335922  0.1935388594865799  0.490387499332428  1.0000
  K   K3        1.0  0.0417710579931736  0.04200363531708717  0.7105923891067505  1.0000
  K   K4        1.0  0.5422307252883911  0.20619449019432068  0.4788549840450287  1.0000
  K   K5        1.0  0.3795383572578431  0.6953134536743164  0.9869213700294495  1.0000
  K   K6        1.0  0.2971819043159485  0.713640034198761  0.30046185851097107  1.0000
  K   K7        1.0  0.037985920906066895  0.5422292947769165  0.22452972829341888  1.0000
  K   K8        1.0  0.5397576093673706  0.7217501997947693  0.7330498695373535  1.0000
  Na  Na1       1.0  0.7827473282814027  0.4175280034542084  0.4900161027908325  1.0000
  P   P1        1.0  0.858497440814972  0.19956208765506744  0.002212729770690256  1.0000
