data_image0
_chemical_formula_structural       CoLaSb9Tb
_chemical_formula_sum              "Co1 La1 Sb9 Tb1"
_cell_length_a       6.76312709945306
_cell_length_b       7.890138296940434
_cell_length_c       9.32325553894043
_cell_angle_alpha    114.78182249507249
_cell_angle_beta     104.35964217779251
_cell_angle_gamma    89.6537187042469

_space_group_name_H-M_alt    "P 1"
_space_group_IT_number       1

loop_
  _space_group_symop_operation_xyz
  'x, y, z'

loop_
  _atom_site_type_symbol
  _atom_site_label
  _atom_site_symmetry_multiplicity
  _atom_site_fract_x
  _atom_site_fract_y
  _atom_site_fract_z
  _atom_site_occupancy
  Co  Co1       1.0  0.11244982481002808  0.7805936336517334  0.7294706106185913  1.0000
  La  La1       1.0  0.5843298435211182  0.22640225291252136  0.4659656286239624  1.0000
  Sb  Sb1       1.0  0.7164894938468933  0.6680788397789001  0.0698588564991951  1.0000
  Sb  Sb2       1.0  0.7209134101867676  0.7211186289787292  0.08198682218790054  1.0000
  Sb  Sb3       1.0  0.22559303045272827  0.2174486368894577  0.38860008120536804  1.0000
  Sb  Sb4       1.0  0.7878812551498413  0.46426093578338623  0.24358224868774417  1.0000
  Sb  Sb5       1.0  0.5912512540817261  0.6924649477005005  0.004413623362779617  1.0000
  Sb  Sb6       1.0  0.10214494913816452  0.3073062598705292  0.5767548680305481  1.0000
  Sb  Sb7       1.0  0.4714028537273407  0.47856801748275757  0.2759645879268646  1.0000
  Sb  Sb8       1.0  0.9739035964012146  0.6523510813713074  0.5418070554733276  1.0000
  Sb  Sb9       1.0  0.9684122800827026  0.9695549011230469  0.11399731040000916  1.0000
  Tb  Tb1       1.0  0.6044163703918457  0.28285321593284607  0.7361191511154175  1.0000
