data_image0
_chemical_formula_structural       BCoSb10
_chemical_formula_sum              "B1 Co1 Sb10"
_cell_length_a       6.574209488466094
_cell_length_b       8.467995899119561
_cell_length_c       8.946756362915039
_cell_angle_alpha    117.1594870730442
_cell_angle_beta     85.71645489369335
_cell_angle_gamma    87.72110292044033

_space_group_name_H-M_alt    "P 1"
_space_group_IT_number       1

loop_
  _space_group_symop_operation_xyz
  'x, y, z'

loop_
  _atom_site_type_symbol
  _atom_site_label
  _atom_site_symmetry_multiplicity
  _atom_site_fract_x
  _atom_site_fract_y
  _atom_site_fract_z
  _atom_site_occupancy
  B   B1        1.0  0.6997271180152893  0.4175247251987457  0.39794063568115234  1.0000
  Co  Co1       1.0  0.19171109795570374  0.9460797309875488  0.5353088974952698  1.0000
  Sb  Sb1       1.0  0.927510678768158  0.725811779499054  0.8778711557388306  1.0000
  Sb  Sb2       1.0  0.3416445255279541  0.817044734954834  0.15815140306949615  1.0000
  Sb  Sb3       1.0  0.6985352635383606  0.6632640361785889  0.3903255760669708  1.0000
  Sb  Sb4       1.0  0.4328605830669403  0.18345166742801666  0.7702701687812805  1.0000
  Sb  Sb5       1.0  0.16874927282333374  0.1788107007741928  0.1755329668521881  1.0000
  Sb  Sb6       1.0  0.7044746279716492  0.6112858057022095  0.38224536180496216  1.0000
  Sb  Sb7       1.0  0.1930602788925171  0.6751550436019897  0.04875410720705981  1.0000
  Sb  Sb8       1.0  0.8348883986473083  0.7410606145858765  0.1561385542154312  1.0000
  Sb  Sb9       1.0  0.679531991481781  0.34677639603614807  0.6633269190788269  1.0000
  Sb  Sb10      1.0  0.6888453960418701  0.9329318404197693  0.5369918346405029  1.0000
