data_image0
_chemical_formula_structural       Ce4Fe4SbSm3
_chemical_formula_sum              "Ce4 Fe4 Sb1 Sm3"
_cell_length_a       6.003866598249448
_cell_length_b       7.389433721963241
_cell_length_c       7.69320011138916
_cell_angle_alpha    117.8024535256339
_cell_angle_beta     112.80986379749349
_cell_angle_gamma    89.3776010023944

_space_group_name_H-M_alt    "P 1"
_space_group_IT_number       1

loop_
  _space_group_symop_operation_xyz
  'x, y, z'

loop_
  _atom_site_type_symbol
  _atom_site_label
  _atom_site_symmetry_multiplicity
  _atom_site_fract_x
  _atom_site_fract_y
  _atom_site_fract_z
  _atom_site_occupancy
  Ce  Ce1       1.0  0.48773470520973206  0.3738057017326355  0.7302260398864745  1.0000
  Ce  Ce2       1.0  0.44701799750328064  0.5640314817428589  0.5239266157150269  1.0000
  Ce  Ce3       1.0  0.3067546486854553  0.9617018103599548  0.34050422906875605  1.0000
  Ce  Ce4       1.0  0.5275059938430786  0.5693192481994629  0.6199781894683837  1.0000
  Fe  Fe1       1.0  0.024955730885267258  0.06500586867332458  0.8370750546455382  1.0000
  Fe  Fe2       1.0  0.9982385039329529  0.42828384041786194  0.536828875541687  1.0000
  Fe  Fe3       1.0  0.9786460399627686  0.07292213290929794  0.5561102032661438  1.0000
  Fe  Fe4       1.0  0.7191681265830994  0.13819371163845062  0.24275968968868253  1.0000
  Sb  Sb1       1.0  0.7917059659957886  0.1465822458267212  0.3250812888145446  1.0000
  Sm  Sm1       1.0  0.7645530104637146  0.6566606760025024  0.06150853261351585  1.0000
  Sm  Sm2       1.0  0.5823103785514832  0.9816441535949707  0.8542964458465576  1.0000
  Sm  Sm3       1.0  0.23117025196552277  0.4891287088394165  0.10012299567461012  1.0000
