data_image0
_chemical_formula_structural       Ce3Fe4Sb3SmTb
_chemical_formula_sum              "Ce3 Fe4 Sb3 Sm1 Tb1"
_cell_length_a       6.377917919709299
_cell_length_b       7.7823940707397075
_cell_length_c       8.043190956115723
_cell_angle_alpha    116.85822920808519
_cell_angle_beta     110.29051585326874
_cell_angle_gamma    93.55243117897798

_space_group_name_H-M_alt    "P 1"
_space_group_IT_number       1

loop_
  _space_group_symop_operation_xyz
  'x, y, z'

loop_
  _atom_site_type_symbol
  _atom_site_label
  _atom_site_symmetry_multiplicity
  _atom_site_fract_x
  _atom_site_fract_y
  _atom_site_fract_z
  _atom_site_occupancy
  Ce  Ce1       1.0  0.2085520178079605  0.7853237390518188  0.7193884253501892  1.0000
  Ce  Ce2       1.0  0.20389607548713684  0.7999496459960938  0.0957199409604072  1.0000
  Ce  Ce3       1.0  0.9608009457588196  0.7506940960884094  0.04872588813304901  1.0000
  Fe  Fe1       1.0  0.4809398055076599  0.22458788752555847  0.8225516676902771  1.0000
  Fe  Fe2       1.0  0.7794191837310791  0.7646501064300537  0.14135144650936127  1.0000
  Fe  Fe3       1.0  0.7540469765663147  0.775916337966919  0.21913179755210876  1.0000
  Fe  Fe4       1.0  0.19414490461349487  0.07067849487066269  0.3500528037548065  1.0000
  Sb  Sb1       1.0  0.19823533296585083  0.4946613311767578  0.7392807602882385  1.0000
  Sb  Sb2       1.0  0.09204379469156265  0.24157986044883728  0.3297760486602783  1.0000
  Sb  Sb3       1.0  0.8398566246032715  0.8553469181060791  0.9554126262664795  1.0000
  Sm  Sm1       1.0  0.6951427459716797  0.5491921305656433  0.5168635249137878  1.0000
  Tb  Tb1       1.0  0.450957328081131  0.26425105333328247  0.03604939952492714  1.0000
