data_image0
_chemical_formula_structural       MoSSb8Sc2
_chemical_formula_sum              "Mo1 S1 Sb8 Sc2"
_cell_length_a       5.70084374795576
_cell_length_b       8.367982533270958
_cell_length_c       8.576565742492676
_cell_angle_alpha    117.31219141708267
_cell_angle_beta     88.87394495223494
_cell_angle_gamma    89.24594049307318

_space_group_name_H-M_alt    "P 1"
_space_group_IT_number       1

loop_
  _space_group_symop_operation_xyz
  'x, y, z'

loop_
  _atom_site_type_symbol
  _atom_site_label
  _atom_site_symmetry_multiplicity
  _atom_site_fract_x
  _atom_site_fract_y
  _atom_site_fract_z
  _atom_site_occupancy
  Mo  Mo1       1.0  0.24162481725215912  0.8024028539657593  0.6881160140037537  1.0000
  S   S1        1.0  0.7446610927581787  0.8237789273262024  0.09772700071334839  1.0000
  Sb  Sb1       1.0  0.7416393160820007  0.830989420413971  0.9875989556312561  1.0000
  Sb  Sb2       1.0  0.7423105239868164  0.15863564610481262  0.22859974205493927  1.0000
  Sb  Sb3       1.0  0.7343724966049194  0.8656195402145386  0.10394884645938869  1.0000
  Sb  Sb4       1.0  0.2345512956380844  0.4828476011753082  0.7336795330047607  1.0000
  Sb  Sb5       1.0  0.7403819561004639  0.36106038093566895  0.7282299399375916  1.0000
  Sb  Sb6       1.0  0.738043487071991  0.49386900663375854  0.8229287266731261  1.0000
  Sb  Sb7       1.0  0.24151378870010376  0.993840754032135  0.35314911603927607  1.0000
  Sb  Sb8       1.0  0.7425351142883301  0.10273776948451996  0.34927383065223694  1.0000
  Sc  Sc1       1.0  0.243514746427536  0.3236394226551056  0.46630170941352844  1.0000
  Sc  Sc2       1.0  0.23722977936267853  0.851860761642456  0.9995260834693909  1.0000
