data_image0
_chemical_formula_structural       La2Sb8ScSi
_chemical_formula_sum              "La2 Sb8 Sc1 Si1"
_cell_length_a       5.3825454279486475
_cell_length_b       7.509489985763041
_cell_length_c       8.33283519744873
_cell_angle_alpha    110.3583559104341
_cell_angle_beta     102.92745605013715
_cell_angle_gamma    88.60715579202731

_space_group_name_H-M_alt    "P 1"
_space_group_IT_number       1

loop_
  _space_group_symop_operation_xyz
  'x, y, z'

loop_
  _atom_site_type_symbol
  _atom_site_label
  _atom_site_symmetry_multiplicity
  _atom_site_fract_x
  _atom_site_fract_y
  _atom_site_fract_z
  _atom_site_occupancy
  La  La1       1.0  0.732927680015564  0.9255492687225342  0.398714393377304  1.0000
  La  La2       1.0  0.5411808490753174  0.4203152060508728  0.704750657081604  1.0000
  Sb  Sb1       1.0  0.5451235175132751  0.22248339653015137  0.10752474516630173  1.0000
  Sb  Sb2       1.0  0.10737446695566177  0.9822129607200623  0.7298619151115417  1.0000
  Sb  Sb3       1.0  0.016886647790670395  0.9017935395240784  0.09037255495786667  1.0000
  Sb  Sb4       1.0  0.04527737572789192  0.9293279647827148  0.213811844587326  1.0000
  Sb  Sb5       1.0  0.7640610337257385  0.8432579636573792  0.8772977590560913  1.0000
  Sb  Sb6       1.0  0.2690332531929016  0.05963776633143425  0.4977805018424988  1.0000
  Sb  Sb7       1.0  0.2782323360443115  0.6597855091094971  0.8658000230789185  1.0000
  Sb  Sb8       1.0  0.8812879920005798  0.9728994965553284  0.7450702786445618  1.0000
  Sc  Sc1       1.0  0.577796459197998  0.6005155444145203  0.9745418429374695  1.0000
  Si  Si1       1.0  0.5672668218612671  0.4653436839580536  0.5364595055580139  1.0000
