data_image0
_chemical_formula_structural       IO4TbTi3Tl
_chemical_formula_sum              "I1 O4 Tb1 Ti3 Tl1"
_cell_length_a       4.854883466373028
_cell_length_b       4.838992131571603
_cell_length_c       6.457745552062988
_cell_angle_alpha    109.06593397655757
_cell_angle_beta     107.27117238745603
_cell_angle_gamma    123.14982334491546

_space_group_name_H-M_alt    "P 1"
_space_group_IT_number       1

loop_
  _space_group_symop_operation_xyz
  'x, y, z'

loop_
  _atom_site_type_symbol
  _atom_site_label
  _atom_site_symmetry_multiplicity
  _atom_site_fract_x
  _atom_site_fract_y
  _atom_site_fract_z
  _atom_site_occupancy
  I   I1        1.0  0.5431252717971802  0.2179248929023743  0.4852532148361206  1.0000
  O   O1        1.0  0.0489063523709774  0.04317883774638176  0.30483895540237427  1.0000
  O   O2        1.0  0.6931756734848022  0.006242832634598017  0.38347533345222473  1.0000
  O   O3        1.0  0.2104491889476777  0.9449743032455445  0.22053283452987674  1.0000
  O   O4        1.0  0.6700389981269836  0.25497952103614807  0.9207094311714172  1.0000
  Tb  Tb1       1.0  0.5752410292625427  0.7080917954444885  0.7492811679840088  1.0000
  Ti  Ti1       1.0  0.7503552436828613  0.16485828161239624  0.9788775444030762  1.0000
  Ti  Ti2       1.0  0.2593001127243042  0.3195505440235138  0.5141058564186096  1.0000
  Ti  Ti3       1.0  0.21188829839229592  0.997221350669861  0.48215988278388977  1.0000
  Tl  Tl1       1.0  0.48598146438598633  0.24652551114559176  0.6011846661567688  1.0000
