data_image0
_chemical_formula_structural       LiO3PSTi4
_chemical_formula_sum              "Li1 O3 P1 S1 Ti4"
_cell_length_a       6.647165241699852
_cell_length_b       6.808319954097245
_cell_length_c       7.80433988571167
_cell_angle_alpha    76.14434590232418
_cell_angle_beta     67.07452282030295
_cell_angle_gamma    61.05769779106485

_space_group_name_H-M_alt    "P 1"
_space_group_IT_number       1

loop_
  _space_group_symop_operation_xyz
  'x, y, z'

loop_
  _atom_site_type_symbol
  _atom_site_label
  _atom_site_symmetry_multiplicity
  _atom_site_fract_x
  _atom_site_fract_y
  _atom_site_fract_z
  _atom_site_occupancy
  Li  Li1       1.0  0.7230787873268127  0.9138604402542115  0.46860224008560186  1.0000
  O   O1        1.0  0.7228176593780518  0.8842571377754213  0.002409779699519291  1.0000
  O   O2        1.0  0.21849200129508972  0.28161248564720154  0.13505098223686218  1.0000
  O   O3        1.0  0.4691341817378998  0.3999829888343811  0.46120053529739385  1.0000
  P   P1        1.0  0.3533896207809448  0.4495421946048737  0.34874135255813604  1.0000
  S   S1        1.0  0.0117834489792585  0.4335064589977265  0.5215580463409424  1.0000
  Ti  Ti1       1.0  0.7985091805458069  0.33837607502937317  0.7962342500686647  1.0000
  Ti  Ti2       1.0  0.8019616603851318  0.8878899216651918  0.9418047666549684  1.0000
  Ti  Ti3       1.0  0.4867307245731354  0.595068633556366  0.6726989150047303  1.0000
  Ti  Ti4       1.0  0.2916942238807678  0.8468286395072937  0.01818966679275036  1.0000
