data_image0
_chemical_formula_structural       O3S2Ti5
_chemical_formula_sum              "O3 S2 Ti5"
_cell_length_a       6.420733216778876
_cell_length_b       5.987738186325742
_cell_length_c       6.879466533660889
_cell_angle_alpha    63.76055983950176
_cell_angle_beta     64.19321103607501
_cell_angle_gamma    64.2276055250456

_space_group_name_H-M_alt    "P 1"
_space_group_IT_number       1

loop_
  _space_group_symop_operation_xyz
  'x, y, z'

loop_
  _atom_site_type_symbol
  _atom_site_label
  _atom_site_symmetry_multiplicity
  _atom_site_fract_x
  _atom_site_fract_y
  _atom_site_fract_z
  _atom_site_occupancy
  O   O1        1.0  0.5734682679176331  0.6780057549476624  0.22350138425827026  1.0000
  O   O2        1.0  0.32527270913124084  0.8747806549072266  0.9072936177253723  1.0000
  O   O3        1.0  0.12582603096961975  0.05657555162906647  0.03241504728794098  1.0000
  S   S1        1.0  0.2876341938972473  0.6183544397354126  0.7310103178024292  1.0000
  S   S2        1.0  0.953641414642334  0.3072125315666199  0.812841534614563  1.0000
  Ti  Ti1       1.0  0.6565933227539062  0.15823711454868317  0.6335655450820923  1.0000
  Ti  Ti2       1.0  0.8935121297836304  0.13091377913951874  0.3074850738048553  1.0000
  Ti  Ti3       1.0  0.7303533554077148  0.5824993252754211  0.20309202373027802  1.0000
  Ti  Ti4       1.0  0.13256025314331055  0.9453263878822327  0.1204790472984314  1.0000
  Ti  Ti5       1.0  0.25842544436454773  0.11285343021154404  0.711917519569397  1.0000
