data_image0
_chemical_formula_structural       OS2Ti7
_chemical_formula_sum              "O1 S2 Ti7"
_cell_length_a       4.831871617319736
_cell_length_b       4.726643319983311
_cell_length_c       5.452716827392578
_cell_angle_alpha    68.38898827813804
_cell_angle_beta     64.05824312647101
_cell_angle_gamma    67.93466473084105

_space_group_name_H-M_alt    "P 1"
_space_group_IT_number       1

loop_
  _space_group_symop_operation_xyz
  'x, y, z'

loop_
  _atom_site_type_symbol
  _atom_site_label
  _atom_site_symmetry_multiplicity
  _atom_site_fract_x
  _atom_site_fract_y
  _atom_site_fract_z
  _atom_site_occupancy
  O   O1        1.0  0.9967072010040284  0.42332711815834045  0.5390722751617432  1.0000
  S   S1        1.0  0.4675070345401764  0.9207161664962769  0.018495026975870132  1.0000
  S   S2        1.0  0.11508426070213318  0.6733621954917908  0.14982645213603973  1.0000
  Ti  Ti1       1.0  0.6384317278862  0.22241950035095215  0.5429699420928955  1.0000
  Ti  Ti2       1.0  0.14472831785678864  0.8374866843223572  0.9681301712989807  1.0000
  Ti  Ti3       1.0  0.6511943340301514  0.12007227540016174  0.4324498176574707  1.0000
  Ti  Ti4       1.0  0.1300307959318161  0.2276439219713211  0.6432908177375793  1.0000
  Ti  Ti5       1.0  0.947637677192688  0.9063822031021118  0.7475928664207458  1.0000
  Ti  Ti6       1.0  0.6285198926925659  0.8761184215545654  0.5304224491119385  1.0000
  Ti  Ti7       1.0  0.614257276058197  0.5493257641792297  0.12242689728736877  1.0000
