data_image0
_chemical_formula_structural       O3STi6
_chemical_formula_sum              "O3 S1 Ti6"
_cell_length_a       4.816966728402268
_cell_length_b       5.1134158072434355
_cell_length_c       4.94920015335083
_cell_angle_alpha    112.86448748600466
_cell_angle_beta     116.39921995094369
_cell_angle_gamma    96.81465521163882

_space_group_name_H-M_alt    "P 1"
_space_group_IT_number       1

loop_
  _space_group_symop_operation_xyz
  'x, y, z'

loop_
  _atom_site_type_symbol
  _atom_site_label
  _atom_site_symmetry_multiplicity
  _atom_site_fract_x
  _atom_site_fract_y
  _atom_site_fract_z
  _atom_site_occupancy
  O   O1        1.0  0.9425996541976929  0.8944208025932312  0.30577778816223145  1.0000
  O   O2        1.0  0.9403378963470459  0.42056602239608765  0.41766875982284546  1.0000
  O   O3        1.0  0.4438666105270386  0.5332974195480347  0.8175259828567505  1.0000
  S   S1        1.0  0.19715827703475952  0.08453531563282013  0.5081287026405334  1.0000
  Ti  Ti1       1.0  0.7173490524291992  0.9314523935317993  0.26272130012512207  1.0000
  Ti  Ti2       1.0  0.21770332753658295  0.7514045238494873  0.17889641225337982  1.0000
  Ti  Ti3       1.0  0.9268317222595215  0.08568654209375381  0.9706963896751403  1.0000
  Ti  Ti4       1.0  0.7214451432228088  0.965492308139801  0.03201399743556976  1.0000
  Ti  Ti5       1.0  0.22937242686748505  0.42318737506866455  0.8874473571777344  1.0000
  Ti  Ti6       1.0  0.7118157744407654  0.2576126456260681  0.5586209893226624  1.0000
