data_image0
_chemical_formula_structural       GeIO4PSTiU
_chemical_formula_sum              "Ge1 I1 O4 P1 S1 Ti1 U1"
_cell_length_a       7.017720098523144
_cell_length_b       6.704489722293334
_cell_length_c       7.66631555557251
_cell_angle_alpha    69.2202880792443
_cell_angle_beta     64.51808854707579
_cell_angle_gamma    59.61386143909604

_space_group_name_H-M_alt    "P 1"
_space_group_IT_number       1

loop_
  _space_group_symop_operation_xyz
  'x, y, z'

loop_
  _atom_site_type_symbol
  _atom_site_label
  _atom_site_symmetry_multiplicity
  _atom_site_fract_x
  _atom_site_fract_y
  _atom_site_fract_z
  _atom_site_occupancy
  Ge  Ge1       1.0  0.5149174332618713  0.17341473698616028  0.3742567300796508  1.0000
  I   I1        1.0  0.17247879505157468  0.18757851421833038  0.5841755867004393  1.0000
  O   O1        1.0  0.029610581696033474  0.15065288543701172  0.6356179118156432  1.0000
  O   O2        1.0  0.38716199994087214  0.0240598376840353  0.3356675803661346  1.0000
  O   O3        1.0  0.6681861877441405  0.12673145532608032  0.1514606326818466  1.0000
  O   O4        1.0  0.04397591203451156  0.20168821513652802  0.4133149087429046  1.0000
  P   P1        1.0  0.7774556875228881  0.36626574397087097  0.25980305671691895  1.0000
  S   S1        1.0  0.02108512260019779  0.09869174659252167  0.15387843549251554  1.0000
  Ti  Ti1       1.0  0.16743762791156766  0.2279655784368515  0.8153464198112487  1.0000
  U   U1        1.0  0.016917679458856583  0.15060390532016754  0.32189652323722834  1.0000
