data_image0
_chemical_formula_structural       Bi3Br2Cl2Cs3Ru
_chemical_formula_sum              "Bi3 Br2 Cl2 Cs3 Ru1"
_cell_length_a       5.885432096094397
_cell_length_b       6.110378551718813
_cell_length_c       12.172061920166016
_cell_angle_alpha    89.679278073656
_cell_angle_beta     89.43097179787883
_cell_angle_gamma    89.54196345053737

_space_group_name_H-M_alt    "P 1"
_space_group_IT_number       1

loop_
  _space_group_symop_operation_xyz
  'x, y, z'

loop_
  _atom_site_type_symbol
  _atom_site_label
  _atom_site_symmetry_multiplicity
  _atom_site_fract_x
  _atom_site_fract_y
  _atom_site_fract_z
  _atom_site_occupancy
  Bi  Bi1       1.0  0.4777125120162964  0.8740887641906737  0.0583651103079319  1.0000
  Bi  Bi2       1.0  0.47356393933296215  0.8767436146736144  0.4791804850101471  1.0000
  Bi  Bi3       1.0  0.9733940362930298  0.23922218382358548  0.15332956612110138  1.0000
  Br  Br1       1.0  0.37050434947013855  0.1179884374141693  0.8613362312316895  1.0000
  Br  Br2       1.0  0.4617290496826172  0.12718820571899414  0.13206295669078827  1.0000
  Cl  Cl1       1.0  0.48004940152168274  0.36862659454345703  0.8751481175422668  1.0000
  Cl  Cl2       1.0  0.24065901339054108  0.19102710485458374  0.6475128531455994  1.0000
  Cs  Cs1       1.0  0.9801891446113586  0.3709403872489929  0.3704002797603607  1.0000
  Cs  Cs2       1.0  0.4542926847934723  0.6363489627838135  0.6428508162498474  1.0000
  Cs  Cs3       1.0  0.8650846481323242  0.12158845365047453  0.8743371963500977  1.0000
  Ru  Ru1       1.0  0.963340163230896  0.8653627038002014  0.6448239088058472  1.0000
