data_image0
_chemical_formula_structural       AlBi3Br2ClCs3F
_chemical_formula_sum              "Al1 Bi3 Br2 Cl1 Cs3 F1"
_cell_length_a       8.046688619794814
_cell_length_b       8.129122028855216
_cell_length_c       8.91093635559082
_cell_angle_alpha    66.97583688722308
_cell_angle_beta     62.942297515565706
_cell_angle_gamma    61.591426845248435

_space_group_name_H-M_alt    "P 1"
_space_group_IT_number       1

loop_
  _space_group_symop_operation_xyz
  'x, y, z'

loop_
  _atom_site_type_symbol
  _atom_site_label
  _atom_site_symmetry_multiplicity
  _atom_site_fract_x
  _atom_site_fract_y
  _atom_site_fract_z
  _atom_site_occupancy
  Al  Al1       1.0  0.09342704713344575  0.9399376511573792  0.4303837716579437  1.0000
  Bi  Bi1       1.0  0.42925375699996954  0.34567251801490784  0.32428139448165894  1.0000
  Bi  Bi2       1.0  0.12730854749679565  0.3135930895805359  0.02341221272945404  1.0000
  Bi  Bi3       1.0  0.9203095436096193  0.8102665543556213  0.9224207401275635  1.0000
  Br  Br1       1.0  0.8712307810783387  0.5633252263069153  0.3606932759284973  1.0000
  Br  Br2       1.0  0.6157010197639465  0.8389743566513062  0.5451033115386963  1.0000
  Cl  Cl1       1.0  0.16740903258323672  0.1606469452381134  0.795906662940979  1.0000
  Cs  Cs1       1.0  0.45070037245750433  0.6782118082046509  0.7978187799453735  1.0000
  Cs  Cs2       1.0  0.9199447035789491  0.32876884937286377  0.32677632570266724  1.0000
  Cs  Cs3       1.0  0.9445207715034486  0.32455235719680786  0.7597600817680359  1.0000
  F   F1        1.0  0.3981891870498658  0.36271822452545166  0.6042564511299133  1.0000
