data_image0
_chemical_formula_structural       Bi3Br4Cs3Fe
_chemical_formula_sum              "Bi3 Br4 Cs3 Fe1"
_cell_length_a       7.72438828541505
_cell_length_b       8.130443106243233
_cell_length_c       8.99014663696289
_cell_angle_alpha    67.06516603683355
_cell_angle_beta     63.19133478302157
_cell_angle_gamma    59.5983544870768

_space_group_name_H-M_alt    "P 1"
_space_group_IT_number       1

loop_
  _space_group_symop_operation_xyz
  'x, y, z'

loop_
  _atom_site_type_symbol
  _atom_site_label
  _atom_site_symmetry_multiplicity
  _atom_site_fract_x
  _atom_site_fract_y
  _atom_site_fract_z
  _atom_site_occupancy
  Bi  Bi1       1.0  0.6882817149162292  0.7510250210762024  0.009712607599794865  1.0000
  Bi  Bi2       1.0  0.7515260577201843  0.34212228655815125  0.7385201454162598  1.0000
  Bi  Bi3       1.0  0.6360445618629456  0.28089404106140137  0.7082652449607849  1.0000
  Br  Br1       1.0  0.6630128622055054  0.5404980778694153  0.1808841973543167  1.0000
  Br  Br2       1.0  0.11570212244987486  0.020300136879086494  0.2695263922214508  1.0000
  Br  Br3       1.0  0.2943502366542816  0.3991564214229584  0.021923456341028214  1.0000
  Br  Br4       1.0  0.6756331324577332  0.32343411445617676  0.5478768944740295  1.0000
  Cs  Cs1       1.0  0.6647411584854126  0.35341542959213257  0.00598938250914216  1.0000
  Cs  Cs2       1.0  0.630669355392456  0.5874955058097839  0.36306726932525635  1.0000
  Cs  Cs3       1.0  0.6419791579246521  0.019202865660190582  0.1780393123626709  1.0000
  Fe  Fe1       1.0  0.26671677827835083  0.7557023167610168  0.20127570629119873  1.0000
