data_image0
_chemical_formula_structural       Bi4Br4Cs2F
_chemical_formula_sum              "Bi4 Br4 Cs2 F1"
_cell_length_a       7.429251761041547
_cell_length_b       7.7066325851137725
_cell_length_c       9.992137908935547
_cell_angle_alpha    103.2424897699169
_cell_angle_beta     102.42690943073154
_cell_angle_gamma    111.40505233281945

_space_group_name_H-M_alt    "P 1"
_space_group_IT_number       1

loop_
  _space_group_symop_operation_xyz
  'x, y, z'

loop_
  _atom_site_type_symbol
  _atom_site_label
  _atom_site_symmetry_multiplicity
  _atom_site_fract_x
  _atom_site_fract_y
  _atom_site_fract_z
  _atom_site_occupancy
  Bi  Bi1       1.0  0.4589855670928955  0.4554725289344788  0.4337216913700104  1.0000
  Bi  Bi2       1.0  0.06787049770355225  0.14605297148227692  0.7126411199569702  1.0000
  Bi  Bi3       1.0  0.5426483750343323  0.15309074521064758  0.9170569181442261  1.0000
  Bi  Bi4       1.0  0.06664954870939255  0.14342822134494781  0.7246366739273071  1.0000
  Br  Br1       1.0  0.4004981517791748  0.19127124547958377  0.3691003620624542  1.0000
  Br  Br2       1.0  0.051763832569122314  0.1609124392271042  0.988863468170166  1.0000
  Br  Br3       1.0  0.4049549996852875  0.5194531083106995  0.3671002984046936  1.0000
  Br  Br4       1.0  0.8015931248664856  0.5010188817977905  0.913387656211853  1.0000
  Cs  Cs1       1.0  0.06944479048252106  0.1596958041191101  0.13003472983837128  1.0000
  Cs  Cs2       1.0  0.8570700287818909  0.6914922595024109  0.3546343743801117  1.0000
  F   F1        1.0  0.35993140935897827  0.6708986163139343  0.4422975480556488  1.0000
