data_image0
_chemical_formula_structural       Br9FRu
_chemical_formula_sum              "Br9 F1 Ru1"
_cell_length_a       6.931774192586146
_cell_length_b       8.237306096369544
_cell_length_c       9.736310958862305
_cell_angle_alpha    97.68848043235728
_cell_angle_beta     89.86709143323164
_cell_angle_gamma    89.48991312668032

_space_group_name_H-M_alt    "P 1"
_space_group_IT_number       1

loop_
  _space_group_symop_operation_xyz
  'x, y, z'

loop_
  _atom_site_type_symbol
  _atom_site_label
  _atom_site_symmetry_multiplicity
  _atom_site_fract_x
  _atom_site_fract_y
  _atom_site_fract_z
  _atom_site_occupancy
  Br  Br1       1.0  0.602851390838623  0.6726586222648621  0.9331337809562683  1.0000
  Br  Br2       1.0  0.1004226878285408  0.1560114175081253  0.8157116174697876  1.0000
  Br  Br3       1.0  0.6046879291534424  0.882192850112915  0.1003076434135437  1.0000
  Br  Br4       1.0  0.09383006393909454  0.6630494594573975  0.8154382109642029  1.0000
  Br  Br5       1.0  0.6067671179771423  0.7563657760620117  0.6043776869773865  1.0000
  Br  Br6       1.0  0.5759124755859375  0.17779962718486786  0.05526118725538254  1.0000
  Br  Br7       1.0  0.6024541854858398  0.16069717705249786  0.3159153461456299  1.0000
  Br  Br8       1.0  0.6069401502609253  0.18512457609176636  0.6128455996513367  1.0000
  Br  Br9       1.0  0.10072485357522964  0.15604577958583832  0.3152618706226349  1.0000
  F   F1        1.0  0.10327377915382385  0.4383506178855896  0.3140266835689545  1.0000
  Ru  Ru1       1.0  0.09509574621915817  0.6654996871948242  0.3273136019706726  1.0000
