data_image0
_chemical_formula_structural       BiBr8FRu
_chemical_formula_sum              "Bi1 Br8 F1 Ru1"
_cell_length_a       5.358840626059916
_cell_length_b       5.910570707493518
_cell_length_c       12.966301918029785
_cell_angle_alpha    90.45117425500004
_cell_angle_beta     90.874615419169
_cell_angle_gamma    89.3451399745926

_space_group_name_H-M_alt    "P 1"
_space_group_IT_number       1

loop_
  _space_group_symop_operation_xyz
  'x, y, z'

loop_
  _atom_site_type_symbol
  _atom_site_label
  _atom_site_symmetry_multiplicity
  _atom_site_fract_x
  _atom_site_fract_y
  _atom_site_fract_z
  _atom_site_occupancy
  Bi  Bi1       1.0  0.8317363262176514  0.0007875437149778008  0.12746736407279968  1.0000
  Br  Br1       1.0  0.1558939665555954  0.33159661293029785  0.7859755158424377  1.0000
  Br  Br2       1.0  0.06716540455818176  0.986528754234314  0.04360264912247658  1.0000
  Br  Br3       1.0  0.357217401266098  0.4858957529067993  0.042800262570381165  1.0000
  Br  Br4       1.0  0.07541080564260483  0.33174383640289307  0.4345557391643524  1.0000
  Br  Br5       1.0  0.4949205219745636  0.7170527577400208  0.6468861103057861  1.0000
  Br  Br6       1.0  0.07898838818073273  0.9939733147621155  0.2887939214706421  1.0000
  Br  Br7       1.0  0.8497287034988403  0.4800548851490021  0.028622517362236977  1.0000
  Br  Br8       1.0  0.5038431882858276  0.718353271484375  0.6287974119186401  1.0000
  F   F1        1.0  0.5692154169082642  0.9834050536155701  0.5367234945297241  1.0000
  Ru  Ru1       1.0  0.7415247559547423  0.7295042872428894  0.7917308807373047  1.0000
