data_image0
_chemical_formula_structural       OOs3PSnZr3
_chemical_formula_sum              "O1 Os3 P1 Sn1 Zr3"
_cell_length_a       1.0497058831304558
_cell_length_b       7.355672597890661
_cell_length_c       7.608067035675049
_cell_angle_alpha    123.12062419886443
_cell_angle_beta     41.41824747497612
_cell_angle_gamma    86.33533065009483

_space_group_name_H-M_alt    "P 1"
_space_group_IT_number       1

loop_
  _space_group_symop_operation_xyz
  'x, y, z'

loop_
  _atom_site_type_symbol
  _atom_site_label
  _atom_site_symmetry_multiplicity
  _atom_site_fract_x
  _atom_site_fract_y
  _atom_site_fract_z
  _atom_site_occupancy
  O   O1        1.0  0.15213544666767065  0.7412279248237611  0.9163494706153871  1.0000
  Os  Os1       1.0  0.6413814425468445  0.15063174068927765  0.06986884027719498  1.0000
  Os  Os2       1.0  0.6410619020462036  0.4226065278053285  0.7607797384262086  1.0000
  Os  Os3       1.0  0.6399363279342646  0.7973126769065858  0.8501770496368409  1.0000
  P   P1        1.0  0.14507421851158142  0.19834290444850922  0.7910593748092651  1.0000
  Sn  Sn1       1.0  0.14417129755020142  0.12098827213048936  0.1789468228816986  1.0000
  Zr  Zr1       1.0  0.14052453637123108  0.5851948261260987  0.9422720074653627  1.0000
  Zr  Zr2       1.0  0.6440637707710266  0.23524199426174172  0.31959658861160284  1.0000
  Zr  Zr3       1.0  0.14369012415409033  0.8569633364677429  0.17527912557125097  1.0000
