data_image0
_chemical_formula_structural       NaOs4Zr4
_chemical_formula_sum              "Na1 Os4 Zr4"
_cell_length_a       4.100782571740246
_cell_length_b       7.12400608754304
_cell_length_c       7.197072982788086
_cell_angle_alpha    122.86316136290745
_cell_angle_beta     87.29571292421295
_cell_angle_gamma    90.19984253165269

_space_group_name_H-M_alt    "P 1"
_space_group_IT_number       1

loop_
  _space_group_symop_operation_xyz
  'x, y, z'

loop_
  _atom_site_type_symbol
  _atom_site_label
  _atom_site_symmetry_multiplicity
  _atom_site_fract_x
  _atom_site_fract_y
  _atom_site_fract_z
  _atom_site_occupancy
  Na  Na1       1.0  0.7707048654556274  0.8185574412345886  0.6313449740409851  1.0000
  Os  Os1       1.0  0.7642797827720642  0.5334016680717468  0.8257219791412354  1.0000
  Os  Os2       1.0  0.2627083659172058  0.7112461924552917  0.9079232215881348  1.0000
  Os  Os3       1.0  0.7709839940071106  0.887951135635376  0.3380587697029114  1.0000
  Os  Os4       1.0  0.7607580423355103  0.3938635289669037  0.10651328414678574  1.0000
  Zr  Zr1       1.0  0.2671624720096588  0.14247938990592957  0.4195491373538971  1.0000
  Zr  Zr2       1.0  0.2689718008041382  0.9018732309341431  0.42247167229652405  1.0000
  Zr  Zr3       1.0  0.7645896077156067  0.3986645042896271  0.007573472335934639  1.0000
  Zr  Zr4       1.0  0.26586925983428955  0.13922588527202606  0.12532198429107666  1.0000
