data_image0
_chemical_formula_structural       Os6Zr3
_chemical_formula_sum              "Os6 Zr3"
_cell_length_a       3.413504732943858
_cell_length_b       8.191043423632063
_cell_length_c       7.259931564331055
_cell_angle_alpha    130.36126706274192
_cell_angle_beta     88.89354529210664
_cell_angle_gamma    83.09295396613254

_space_group_name_H-M_alt    "P 1"
_space_group_IT_number       1

loop_
  _space_group_symop_operation_xyz
  'x, y, z'

loop_
  _atom_site_type_symbol
  _atom_site_label
  _atom_site_symmetry_multiplicity
  _atom_site_fract_x
  _atom_site_fract_y
  _atom_site_fract_z
  _atom_site_occupancy
  Os  Os1       1.0  0.749130129814148  0.353648841381073  0.8751050233840942  1.0000
  Os  Os2       1.0  0.2541538178920746  0.869935929775238  0.7999683022499084  1.0000
  Os  Os3       1.0  0.24494026601314545  0.748033881187439  0.44385781884193426  1.0000
  Os  Os4       1.0  0.25428611040115356  0.9485015869140625  0.060960002243518954  1.0000
  Os  Os5       1.0  0.25311240553855896  0.5050948262214661  0.29741084575653076  1.0000
  Os  Os6       1.0  0.7569215893745422  0.12930329144001007  0.27441394329071045  1.0000
  Zr  Zr1       1.0  0.24263620376586914  0.39169877767562866  0.7992252707481384  1.0000
  Zr  Zr2       1.0  0.7528424859046936  0.4469206631183624  0.33868896961212164  1.0000
  Zr  Zr3       1.0  0.7345147132873535  0.8639612197875977  0.8412740826606752  1.0000
