data_image0
_chemical_formula_structural       Os6Zr3
_chemical_formula_sum              "Os6 Zr3"
_cell_length_a       3.2312012912462946
_cell_length_b       7.289386462205003
_cell_length_c       6.705194473266602
_cell_angle_alpha    132.69602771747526
_cell_angle_beta     76.34326575030443
_cell_angle_gamma    90.91899538190383

_space_group_name_H-M_alt    "P 1"
_space_group_IT_number       1

loop_
  _space_group_symop_operation_xyz
  'x, y, z'

loop_
  _atom_site_type_symbol
  _atom_site_label
  _atom_site_symmetry_multiplicity
  _atom_site_fract_x
  _atom_site_fract_y
  _atom_site_fract_z
  _atom_site_occupancy
  Os  Os1       1.0  0.24245902895927438  0.9836094975471495  0.8978486657142638  1.0000
  Os  Os2       1.0  0.25094693899154663  0.57856285572052  0.7424206137657166  1.0000
  Os  Os3       1.0  0.24978125095367432  0.3185904324054718  0.7950503230094909  1.0000
  Os  Os4       1.0  0.7533602118492126  0.5337861180305481  0.6254251599311829  1.0000
  Os  Os5       1.0  0.7391071319580078  0.8167756795883179  0.9032443165779113  1.0000
  Os  Os6       1.0  0.238037571310997  0.36955973505973816  0.13566125929355616  1.0000
  Zr  Zr1       1.0  0.7393497228622437  0.03863484039902687  0.9554903507232665  1.0000
  Zr  Zr2       1.0  0.2372065931558609  0.7786480784416199  0.43813613057136525  1.0000
  Zr  Zr3       1.0  0.7502647638320923  0.3408041000366211  0.16772609949111933  1.0000
