data_image0
_chemical_formula_structural       OOs4Zr4
_chemical_formula_sum              "O1 Os4 Zr4"
_cell_length_a       3.73493594583491
_cell_length_b       7.066275454001556
_cell_length_c       6.76084566116333
_cell_angle_alpha    127.16219798723485
_cell_angle_beta     91.79005420774178
_cell_angle_gamma    88.05349138925298

_space_group_name_H-M_alt    "P 1"
_space_group_IT_number       1

loop_
  _space_group_symop_operation_xyz
  'x, y, z'

loop_
  _atom_site_type_symbol
  _atom_site_label
  _atom_site_symmetry_multiplicity
  _atom_site_fract_x
  _atom_site_fract_y
  _atom_site_fract_z
  _atom_site_occupancy
  O   O1        1.0  0.8659487366676332  0.20983289182186124  0.8737390637397766  1.0000
  Os  Os1       1.0  0.36529073119163513  0.9501527547836303  0.4293973147869109  1.0000
  Os  Os2       1.0  0.3658159673213959  0.856994867324829  0.5304983854293822  1.0000
  Os  Os3       1.0  0.3643226623535156  0.36627548933029175  0.1471413969993591  1.0000
  Os  Os4       1.0  0.36086711287498474  0.5544354915618896  0.15679733455181116  1.0000
  Zr  Zr1       1.0  0.8681016564369202  0.6181407570838928  0.09573658555746072  1.0000
  Zr  Zr2       1.0  0.3639981150627136  0.21972993016242978  0.010351594537496551  1.0000
  Zr  Zr3       1.0  0.8670840859413147  0.3732365667819977  0.7475870251655579  1.0000
  Zr  Zr4       1.0  0.8644652366638184  0.8619657158851622  0.33692687749862665  1.0000
