data_image0
_chemical_formula_structural       CaCo2GeINiPt2ScSi
_chemical_formula_sum              "Ca1 Co2 Ge1 I1 Ni1 Pt2 Sc1 Si1"
_cell_length_a       5.413606037372755
_cell_length_b       5.855932311251162
_cell_length_c       7.551347732543945
_cell_angle_alpha    89.23015642750784
_cell_angle_beta     89.97947464584607
_cell_angle_gamma    89.47419861669024

_space_group_name_H-M_alt    "P 1"
_space_group_IT_number       1

loop_
  _space_group_symop_operation_xyz
  'x, y, z'

loop_
  _atom_site_type_symbol
  _atom_site_label
  _atom_site_symmetry_multiplicity
  _atom_site_fract_x
  _atom_site_fract_y
  _atom_site_fract_z
  _atom_site_occupancy
  Ca  Ca1       1.0  0.14352846145629883  0.5411812663078308  0.889202654361725  1.0000
  Co  Co1       1.0  0.6453204154968262  0.5683220028877258  0.5216115713119507  1.0000
  Co  Co2       1.0  0.6646479964256287  0.560899019241333  0.35474061965942383  1.0000
  Ge  Ge1       1.0  0.6466240882873535  0.6653553247451782  0.9808531999588014  1.0000
  I   I1        1.0  0.6565755009651184  0.1430424004793167  0.9880490899086  1.0000
  Ni  Ni1       1.0  0.6602141857147217  0.8336108922958374  0.3577571213245392  1.0000
  Pt  Pt1       1.0  0.6453295350074768  0.2845010459423065  0.7577623128890991  1.0000
  Pt  Pt2       1.0  0.14838464558124542  0.497609168291092  0.49280387163162237  1.0000
  Sc  Sc1       1.0  0.15132591128349304  0.565129816532135  0.37216100096702576  1.0000
  Si  Si1       1.0  0.25673720240592957  0.5904766321182251  0.7935314774513245  1.0000
