data_image0
_chemical_formula_structural       Co3FGeILuPtSi2
_chemical_formula_sum              "Co3 F1 Ge1 I1 Lu1 Pt1 Si2"
_cell_length_a       5.6095033260683484
_cell_length_b       6.113333006500411
_cell_length_c       7.563530445098877
_cell_angle_alpha    89.39056272878354
_cell_angle_beta     90.15332078096905
_cell_angle_gamma    100.52354518428514

_space_group_name_H-M_alt    "P 1"
_space_group_IT_number       1

loop_
  _space_group_symop_operation_xyz
  'x, y, z'

loop_
  _atom_site_type_symbol
  _atom_site_label
  _atom_site_symmetry_multiplicity
  _atom_site_fract_x
  _atom_site_fract_y
  _atom_site_fract_z
  _atom_site_occupancy
  Co  Co1       1.0  0.49438154697418213  0.03435472771525383  0.19877129793167114  1.0000
  Co  Co2       1.0  0.8876911401748657  0.21813032031059265  0.8192143440246582  1.0000
  Co  Co3       1.0  0.45406076312065125  0.24898551404476166  0.15017731487751007  1.0000
  F   F1        1.0  0.9755061268806458  0.8365613222122192  0.5075508952140808  1.0000
  Ge  Ge1       1.0  0.9575758576393127  0.4484899342060089  0.734346330165863  1.0000
  I   I1        1.0  0.2662513256072998  0.7124171257019043  0.555305004119873  1.0000
  Lu  Lu1       1.0  0.9723384976387024  0.023342633619904518  0.330516517162323  1.0000
  Pt  Pt1       1.0  0.24079099297523499  0.7845666408538818  0.15441322326660156  1.0000
  Si  Si1       1.0  0.2563161849975586  0.00824377965182066  0.9533839821815491  1.0000
  Si  Si2       1.0  0.7567680478096008  0.017298482358455658  0.10345085710287094  1.0000
