data_image0
_chemical_formula_structural       Co4OSi3Y2
_chemical_formula_sum              "Co4 O1 Si3 Y2"
_cell_length_a       3.8818480502097548
_cell_length_b       2.833036886844497
_cell_length_c       4.256884574890137
_cell_angle_alpha    74.0120678998387
_cell_angle_beta     79.56997864392885
_cell_angle_gamma    72.5442447825198

_space_group_name_H-M_alt    "P 1"
_space_group_IT_number       1

loop_
  _space_group_symop_operation_xyz
  'x, y, z'

loop_
  _atom_site_type_symbol
  _atom_site_label
  _atom_site_symmetry_multiplicity
  _atom_site_fract_x
  _atom_site_fract_y
  _atom_site_fract_z
  _atom_site_occupancy
  Co  Co1       1.0  0.5151466727256775  0.9038298726081848  0.2519010007381439  1.0000
  Co  Co2       1.0  0.8594115972518922  0.947928786277771  0.5371885895729065  1.0000
  Co  Co3       1.0  0.4535117447376252  0.5254313349723816  0.35651588439941406  1.0000
  Co  Co4       1.0  0.804369628429413  0.6859938502311707  0.7809961438179016  1.0000
  O   O1        1.0  0.579276978969574  0.6448967456817627  0.38558444380760193  1.0000
  Si  Si1       1.0  0.05745068192481995  0.6265943646430969  0.16899237036705017  1.0000
  Si  Si2       1.0  0.39066347479820257  0.874076783657074  0.5776832699775696  1.0000
  Si  Si3       1.0  0.05371291190385819  0.48264020681381226  0.09551010280847548  1.0000
  Y   Y1        1.0  0.07278449833393097  0.8667303919792175  0.8878507018089294  1.0000
  Y   Y2        1.0  0.031187273561954502  0.8552488088607788  0.7980999946594237  1.0000
