data_image0
_chemical_formula_structural       Co4GePt2Si2Sn
_chemical_formula_sum              "Co4 Ge1 Pt2 Si2 Sn1"
_cell_length_a       5.558647792454252
_cell_length_b       5.562009862980006
_cell_length_c       6.68656587600708
_cell_angle_alpha    88.41601086698068
_cell_angle_beta     90.15802025989431
_cell_angle_gamma    90.09894599764351

_space_group_name_H-M_alt    "P 1"
_space_group_IT_number       1

loop_
  _space_group_symop_operation_xyz
  'x, y, z'

loop_
  _atom_site_type_symbol
  _atom_site_label
  _atom_site_symmetry_multiplicity
  _atom_site_fract_x
  _atom_site_fract_y
  _atom_site_fract_z
  _atom_site_occupancy
  Co  Co1       1.0  0.7257648706436157  0.39409497380256653  0.42532628774642944  1.0000
  Co  Co2       1.0  0.7917376160621643  0.8969441652297974  0.33366137742996216  1.0000
  Co  Co3       1.0  0.24472317099571228  0.24019087851047516  0.6186736822128296  1.0000
  Co  Co4       1.0  0.7491174340248108  0.270129531621933  0.16349782049655914  1.0000
  Ge  Ge1       1.0  0.23975101113319397  0.8715654611587524  0.5383564829826355  1.0000
  Pt  Pt1       1.0  0.2993495762348175  0.6927237510681152  0.1990281343460083  1.0000
  Pt  Pt2       1.0  0.7820041179656982  0.27522188425064087  0.698434591293335  1.0000
  Si  Si1       1.0  0.7557608485221863  0.9225274920463562  0.21211905777454376  1.0000
  Si  Si2       1.0  0.5779256820678711  0.6940245032310486  0.621590256690979  1.0000
  Sn  Sn1       1.0  0.24321581423282623  0.40361741185188293  0.8316053152084351  1.0000
