data_image0
_chemical_formula_structural       Co3FPbPtScSi2Y
_chemical_formula_sum              "Co3 F1 Pb1 Pt1 Sc1 Si2 Y1"
_cell_length_a       4.9290735002271555
_cell_length_b       4.731385717201443
_cell_length_c       5.355079650878906
_cell_angle_alpha    90.59501706078856
_cell_angle_beta     91.72478392168571
_cell_angle_gamma    87.54164641610166

_space_group_name_H-M_alt    "P 1"
_space_group_IT_number       1

loop_
  _space_group_symop_operation_xyz
  'x, y, z'

loop_
  _atom_site_type_symbol
  _atom_site_label
  _atom_site_symmetry_multiplicity
  _atom_site_fract_x
  _atom_site_fract_y
  _atom_site_fract_z
  _atom_site_occupancy
  Co  Co1       1.0  0.18217533826828003  0.6464870572090149  0.5242988467216492  1.0000
  Co  Co2       1.0  0.6758604645729065  0.26608791947364807  0.43394365906715393  1.0000
  Co  Co3       1.0  0.16510361433029175  0.8381212949752808  0.6859779357910156  1.0000
  F   F1        1.0  0.17413611710071564  0.790097713470459  0.2634695768356323  1.0000
  Pb  Pb1       1.0  0.23613522946834564  0.09901097416877747  0.6983076333999634  1.0000
  Pt  Pt1       1.0  0.6983687877655029  0.7525689601898193  0.5757028460502625  1.0000
  Sc  Sc1       1.0  0.48032090067863464  0.032012686133384705  0.07277310639619827  1.0000
  Si  Si1       1.0  0.6977105736732483  0.6041104197502136  0.11788131296634674  1.0000
  Si  Si2       1.0  0.6781116724014282  0.011846533045172691  0.7322435975074768  1.0000
  Y   Y1        1.0  0.21360211074352264  0.854019820690155  0.608467698097229  1.0000
