data_image0
_chemical_formula_structural       Co4Si4Y2
_chemical_formula_sum              "Co4 Si4 Y2"
_cell_length_a       4.888986867397556
_cell_length_b       4.965412555864333
_cell_length_c       5.337436199188232
_cell_angle_alpha    68.08765528187914
_cell_angle_beta     67.08237677020001
_cell_angle_gamma    69.40324366657511

_space_group_name_H-M_alt    "P 1"
_space_group_IT_number       1

loop_
  _space_group_symop_operation_xyz
  'x, y, z'

loop_
  _atom_site_type_symbol
  _atom_site_label
  _atom_site_symmetry_multiplicity
  _atom_site_fract_x
  _atom_site_fract_y
  _atom_site_fract_z
  _atom_site_occupancy
  Co  Co1       1.0  0.1115863025188446  0.13160699605941772  0.36103299260139465  1.0000
  Co  Co2       1.0  0.3674306571483612  0.960845947265625  0.03869745880365372  1.0000
  Co  Co3       1.0  0.6044304370880127  0.41390854120254517  0.8420938253402711  1.0000
  Co  Co4       1.0  0.8087871670722961  0.7002120018005371  0.46786519885063177  1.0000
  Si  Si1       1.0  0.36838391423225403  0.1338350474834442  0.7478558421134949  1.0000
  Si  Si2       1.0  0.7479226589202881  0.08461416512727737  0.6597049236297607  1.0000
  Si  Si3       1.0  0.31694528460502625  0.19413314759731293  0.5929500460624695  1.0000
  Si  Si4       1.0  0.8487979173660278  0.31584247946739197  0.600274920463562  1.0000
  Y   Y1        1.0  0.8329973220825195  0.6271113157272339  0.7410436868667603  1.0000
  Y   Y2        1.0  0.11214881390333176  0.09998437017202377  0.7686399817466736  1.0000
