data_image0
_chemical_formula_structural       ILaPPtSSb5
_chemical_formula_sum              "I1 La1 P1 Pt1 S1 Sb5"
_cell_length_a       6.356404893790519
_cell_length_b       7.141534028747619
_cell_length_c       7.702141761779785
_cell_angle_alpha    114.03443401521807
_cell_angle_beta     103.24021701391675
_cell_angle_gamma    101.50551803610611

_space_group_name_H-M_alt    "P 1"
_space_group_IT_number       1

loop_
  _space_group_symop_operation_xyz
  'x, y, z'

loop_
  _atom_site_type_symbol
  _atom_site_label
  _atom_site_symmetry_multiplicity
  _atom_site_fract_x
  _atom_site_fract_y
  _atom_site_fract_z
  _atom_site_occupancy
  I   I1        1.0  0.8164511322975159  0.3704252243041992  0.7615064978599548  1.0000
  La  La1       1.0  0.02646084688603878  0.3900598883628845  0.3837149143218994  1.0000
  P   P1        1.0  0.3169931173324585  0.7280433177947998  0.7714718580245972  1.0000
  Pt  Pt1       1.0  0.3138633072376251  0.13635823130607605  0.13193774223327637  1.0000
  S   S1        1.0  0.2768236994743347  0.1893327832221985  0.4693253040313721  1.0000
  Sb  Sb1       1.0  0.810650646686554  0.2897990345954895  0.16870033740997314  1.0000
  Sb  Sb2       1.0  0.2853112518787384  0.38538599014282227  0.08374036848545074  1.0000
  Sb  Sb3       1.0  0.5046557784080505  0.42045044898986816  0.451633632183075  1.0000
  Sb  Sb4       1.0  0.8057361245155334  0.21826398372650146  0.5699360370635986  1.0000
  Sb  Sb5       1.0  0.52562415599823  0.8644599914550781  0.7400121688842773  1.0000
