data_image0
_chemical_formula_structural       GaPSSb5ThV
_chemical_formula_sum              "Ga1 P1 S1 Sb5 Th1 V1"
_cell_length_a       6.165490590018131
_cell_length_b       6.92885176873917
_cell_length_c       7.646269798278809
_cell_angle_alpha    109.56085618712594
_cell_angle_beta     89.50634282292512
_cell_angle_gamma    90.81171385338327

_space_group_name_H-M_alt    "P 1"
_space_group_IT_number       1

loop_
  _space_group_symop_operation_xyz
  'x, y, z'

loop_
  _atom_site_type_symbol
  _atom_site_label
  _atom_site_symmetry_multiplicity
  _atom_site_fract_x
  _atom_site_fract_y
  _atom_site_fract_z
  _atom_site_occupancy
  Ga  Ga1       1.0  0.4042345881462097  0.4186490476131439  0.12944310903549197  1.0000
  P   P1        1.0  0.9029508829116821  0.4920392334461212  0.751103699207306  1.0000
  S   S1        1.0  0.8901865482330322  0.23003849387168884  0.24146710336208346  1.0000
  Sb  Sb1       1.0  0.40828031301498413  0.5152817964553833  0.15965171158313754  1.0000
  Sb  Sb2       1.0  0.9020721912384033  0.19683441519737244  0.4847776591777802  1.0000
  Sb  Sb3       1.0  0.3960108458995819  0.6283696889877319  0.17773753404617312  1.0000
  Sb  Sb4       1.0  0.39368826150894165  0.15877947211265564  0.15977303683757785  1.0000
  Sb  Sb5       1.0  0.8768091797828674  0.19437475502490997  0.5640334486961366  1.0000
  Th  Th1       1.0  0.4036104083061218  0.9956786632537842  0.13260787725448608  1.0000
  V   V1        1.0  0.15844368934631348  0.738899290561676  0.16832184791564944  1.0000
