data_image0
_chemical_formula_structural       SSb5Tl4
_chemical_formula_sum              "S1 Sb5 Tl4"
_cell_length_a       6.55288514630187
_cell_length_b       6.740878100400902
_cell_length_c       6.5396223068237305
_cell_angle_alpha    111.13722878503219
_cell_angle_beta     112.72805119109947
_cell_angle_gamma    114.12211920962915

_space_group_name_H-M_alt    "P 1"
_space_group_IT_number       1

loop_
  _space_group_symop_operation_xyz
  'x, y, z'

loop_
  _atom_site_type_symbol
  _atom_site_label
  _atom_site_symmetry_multiplicity
  _atom_site_fract_x
  _atom_site_fract_y
  _atom_site_fract_z
  _atom_site_occupancy
  S   S1        1.0  0.7608692049980164  0.7612816095352173  0.6889705657958984  1.0000
  Sb  Sb1       1.0  0.47739437222480774  0.4024990200996399  0.5669616460800171  1.0000
  Sb  Sb2       1.0  0.27734339237213135  0.06975103169679642  0.6634805798530579  1.0000
  Sb  Sb3       1.0  0.22670705616474152  0.38033756613731384  0.12924568355083466  1.0000
  Sb  Sb4       1.0  0.77586430311203  0.3591509759426117  0.601041853427887  1.0000
  Sb  Sb5       1.0  0.22494176030158997  0.009139210917055607  0.163148432970047  1.0000
  Tl  Tl1       1.0  0.5503975749015808  0.040492720901966095  0.11343515664339063  1.0000
  Tl  Tl2       1.0  0.9705368876457214  0.28775840997695923  0.03638103976845741  1.0000
  Tl  Tl3       1.0  0.7628737688064575  0.6857752799987793  0.9622199535369873  1.0000
  Tl  Tl4       1.0  0.8837746977806091  0.609887957572937  0.980203688144684  1.0000
