data_image0
_chemical_formula_structural       S2Sb4Tl4
_chemical_formula_sum              "S2 Sb4 Tl4"
_cell_length_a       5.778299776792539
_cell_length_b       5.7910322373531065
_cell_length_c       5.596880912780762
_cell_angle_alpha    127.909285570002
_cell_angle_beta     119.37551098813972
_cell_angle_gamma    104.1268403385311

_space_group_name_H-M_alt    "P 1"
_space_group_IT_number       1

loop_
  _space_group_symop_operation_xyz
  'x, y, z'

loop_
  _atom_site_type_symbol
  _atom_site_label
  _atom_site_symmetry_multiplicity
  _atom_site_fract_x
  _atom_site_fract_y
  _atom_site_fract_z
  _atom_site_occupancy
  S   S1        1.0  0.6199395656585694  0.7885552048683168  0.3262629210948945  1.0000
  S   S2        1.0  0.02604008466005334  0.7326571941375734  0.4225252568721772  1.0000
  Sb  Sb1       1.0  0.5484786033630371  0.48594063520431524  0.6019552350044252  1.0000
  Sb  Sb2       1.0  0.5103482604026796  0.34180384874343883  0.7998234033584596  1.0000
  Sb  Sb3       1.0  0.00225067138671875  0.7449730038642883  0.2535390257835389  1.0000
  Sb  Sb4       1.0  0.08343153446912766  0.08149931579828262  0.07445433735847475  1.0000
  Tl  Tl1       1.0  0.03434765711426744  0.5357548594474794  0.9136607050895692  1.0000
  Tl  Tl2       1.0  0.589923918247223  0.39517372846603405  0.9970478415489198  1.0000
  Tl  Tl3       1.0  0.9168513417243958  0.510876476764679  0.38378292322158825  1.0000
  Tl  Tl4       1.0  0.5802320241928101  0.18468984961509707  0.5434384346008302  1.0000
