data_image0
_chemical_formula_structural       BPSSb6V
_chemical_formula_sum              "B1 P1 S1 Sb6 V1"
_cell_length_a       5.184779181666905
_cell_length_b       5.49421318816349
_cell_length_c       5.651369571685791
_cell_angle_alpha    98.58719069448101
_cell_angle_beta     111.92918509763643
_cell_angle_gamma    101.25911066108911

_space_group_name_H-M_alt    "P 1"
_space_group_IT_number       1

loop_
  _space_group_symop_operation_xyz
  'x, y, z'

loop_
  _atom_site_type_symbol
  _atom_site_label
  _atom_site_symmetry_multiplicity
  _atom_site_fract_x
  _atom_site_fract_y
  _atom_site_fract_z
  _atom_site_occupancy
  B   B1        1.0  0.5385021567344666  0.19518084824085236  0.8970544338226318  1.0000
  P   P1        1.0  0.7639201879501343  0.9148136377334594  0.8693944811820984  1.0000
  S   S1        1.0  0.15482528507709503  0.6250196099281311  0.928286075592041  1.0000
  Sb  Sb1       1.0  0.14181628823280334  0.3073183298110962  0.8345646858215332  1.0000
  Sb  Sb2       1.0  0.666896402835846  0.5636439323425293  0.6324566602706909  1.0000
  Sb  Sb3       1.0  0.15275944769382474  0.40940248966217035  0.9702481627464294  1.0000
  Sb  Sb4       1.0  0.45230746269226074  0.4521476328372955  0.5022398233413696  1.0000
  Sb  Sb5       1.0  0.7720874547958374  0.2792627215385437  0.3895657956600189  1.0000
  Sb  Sb6       1.0  0.5640348792076111  0.34838083386421204  0.33609601855278015  1.0000
  V   V1        1.0  0.47844237089157104  0.7801843285560608  0.4616006314754486  1.0000
