data_image0
_chemical_formula_structural       BrLiSSb6Tb
_chemical_formula_sum              "Br1 Li1 S1 Sb6 Tb1"
_cell_length_a       6.7597066141537905
_cell_length_b       7.061922484542281
_cell_length_c       8.004796981811523
_cell_angle_alpha    91.26271406685493
_cell_angle_beta     91.97289389113682
_cell_angle_gamma    96.26883593824108

_space_group_name_H-M_alt    "P 1"
_space_group_IT_number       1

loop_
  _space_group_symop_operation_xyz
  'x, y, z'

loop_
  _atom_site_type_symbol
  _atom_site_label
  _atom_site_symmetry_multiplicity
  _atom_site_fract_x
  _atom_site_fract_y
  _atom_site_fract_z
  _atom_site_occupancy
  Br  Br1       1.0  0.1963689774274826  0.12009401619434357  0.6397145986557007  1.0000
  Li  Li1       1.0  0.6096183061599731  0.043932750821113586  0.09912212193012238  1.0000
  S   S1        1.0  0.28007441759109497  0.7293825149536133  0.6396516561508179  1.0000
  Sb  Sb1       1.0  0.9531832933425903  0.7677399516105652  0.2851986885070801  1.0000
  Sb  Sb2       1.0  0.6266757249832153  0.592094898223877  0.45448046922683716  1.0000
  Sb  Sb3       1.0  0.761989951133728  0.9499527215957642  0.771648108959198  1.0000
  Sb  Sb4       1.0  0.11630992591381073  0.5255823135375977  0.06708793342113495  1.0000
  Sb  Sb5       1.0  0.10339721292257309  0.007241812534630299  0.11769277602434158  1.0000
  Sb  Sb6       1.0  0.11559861153364182  0.7731744050979614  0.42372435331344604  1.0000
  Tb  Tb1       1.0  0.6231000423431396  0.5853065252304077  0.5193280577659607  1.0000
