data_image0
_chemical_formula_structural       Hg4O4Pt2
_chemical_formula_sum              "Hg4 O4 Pt2"
_cell_length_a       5.782667840863671
_cell_length_b       6.162219756419621
_cell_length_c       7.699589729309082
_cell_angle_alpha    114.0155966794945
_cell_angle_beta     108.24370811532711
_cell_angle_gamma    89.58180784929219

_space_group_name_H-M_alt    "P 1"
_space_group_IT_number       1

loop_
  _space_group_symop_operation_xyz
  'x, y, z'

loop_
  _atom_site_type_symbol
  _atom_site_label
  _atom_site_symmetry_multiplicity
  _atom_site_fract_x
  _atom_site_fract_y
  _atom_site_fract_z
  _atom_site_occupancy
  Hg  Hg1       1.0  0.7937772870063782  0.16165561974048615  0.8470858335494995  1.0000
  Hg  Hg2       1.0  0.7541947364807129  0.23498414456844327  0.41865867376327515  1.0000
  Hg  Hg3       1.0  0.47262609004974365  0.9948025345802306  0.8393194079399109  1.0000
  Hg  Hg4       1.0  0.7706627249717712  0.6037792563438416  0.4127190113067627  1.0000
  O   O1        1.0  0.057956278324127176  0.9005056023597716  0.049334026873111725  1.0000
  O   O2        1.0  0.2581894099712372  0.5127302408218384  0.2530202865600586  1.0000
  O   O3        1.0  0.28415679931640625  0.6659613251686096  0.3429836332798004  1.0000
  O   O4        1.0  0.2972731292247772  0.6493463516235352  0.5831236839294434  1.0000
  Pt  Pt1       1.0  0.06584009528160092  0.9748823642730712  0.0375475138425827  1.0000
  Pt  Pt2       1.0  0.5011873841285706  0.6151211857795715  0.9398743510246277  1.0000
