data_image0
_chemical_formula_structural       Hg4O4Pt2
_chemical_formula_sum              "Hg4 O4 Pt2"
_cell_length_a       6.217420303211334
_cell_length_b       6.412080215990345
_cell_length_c       7.169946193695068
_cell_angle_alpha    107.86094412244712
_cell_angle_beta     107.73585736829092
_cell_angle_gamma    111.05046852642816

_space_group_name_H-M_alt    "P 1"
_space_group_IT_number       1

loop_
  _space_group_symop_operation_xyz
  'x, y, z'

loop_
  _atom_site_type_symbol
  _atom_site_label
  _atom_site_symmetry_multiplicity
  _atom_site_fract_x
  _atom_site_fract_y
  _atom_site_fract_z
  _atom_site_occupancy
  Hg  Hg1       1.0  0.9438464045524597  0.5751361846923828  0.6873595118522644  1.0000
  Hg  Hg2       1.0  0.7319833636283875  0.9431544542312621  0.3539826273918152  1.0000
  Hg  Hg3       1.0  0.6954315304756165  0.7219918966293335  0.09841376543045044  1.0000
  Hg  Hg4       1.0  0.3011302053928374  0.9464024305343627  0.8983163237571716  1.0000
  O   O1        1.0  0.2571093440055846  0.9611920714378356  0.5883930921554565  1.0000
  O   O2        1.0  0.1896462589502334  0.4475508332252502  0.16058656573295593  1.0000
  O   O3        1.0  0.9371117949485779  0.4583842456340789  0.6831806898117065  1.0000
  O   O4        1.0  0.9275262355804443  0.2503606081008911  0.7431898713111877  1.0000
  Pt  Pt1       1.0  0.1639216989278793  0.2204628139734268  0.9532356858253479  1.0000
  Pt  Pt2       1.0  0.053123846650123596  0.7159629464149475  0.715153157711029  1.0000
