data_image0
_chemical_formula_structural       Br4Hg2O3Pb
_chemical_formula_sum              "Br4 Hg2 O3 Pb1"
_cell_length_a       6.6809451334025605
_cell_length_b       7.869702046038875
_cell_length_c       8.253462791442871
_cell_angle_alpha    108.11554410071365
_cell_angle_beta     96.67734419105356
_cell_angle_gamma    113.15189810205494

_space_group_name_H-M_alt    "P 1"
_space_group_IT_number       1

loop_
  _space_group_symop_operation_xyz
  'x, y, z'

loop_
  _atom_site_type_symbol
  _atom_site_label
  _atom_site_symmetry_multiplicity
  _atom_site_fract_x
  _atom_site_fract_y
  _atom_site_fract_z
  _atom_site_occupancy
  Br  Br1       1.0  0.5362966060638428  0.38740214705467224  0.5153365731239319  1.0000
  Br  Br2       1.0  0.2990952730178833  0.1225590705871582  0.05483107641339302  1.0000
  Br  Br3       1.0  0.7173656225204468  0.919213056564331  0.8027817010879517  1.0000
  Br  Br4       1.0  0.20587079226970673  0.5413023829460144  0.7949909567832947  1.0000
  Hg  Hg1       1.0  0.32169947028160095  0.9986485242843628  0.29363080859184265  1.0000
  Hg  Hg2       1.0  0.8255069851875305  0.18774284422397614  0.7121715545654297  1.0000
  O   O1        1.0  0.9579727053642273  0.0498867966234684  0.7897994518280029  1.0000
  O   O2        1.0  0.500482976436615  0.6239628195762634  0.5823869109153748  1.0000
  O   O3        1.0  0.7740522027015686  0.13640746474266052  0.9960404634475708  1.0000
  Pb  Pb1       1.0  0.518109142780304  0.13208447396755219  0.7688082456588745  1.0000
