data_image0
_chemical_formula_structural       Hg5O4Pt
_chemical_formula_sum              "Hg5 O4 Pt1"
_cell_length_a       6.645048404160313
_cell_length_b       7.234278769338228
_cell_length_c       7.229527473449707
_cell_angle_alpha    110.42697132330245
_cell_angle_beta     103.41886333443198
_cell_angle_gamma    110.88936862279586

_space_group_name_H-M_alt    "P 1"
_space_group_IT_number       1

loop_
  _space_group_symop_operation_xyz
  'x, y, z'

loop_
  _atom_site_type_symbol
  _atom_site_label
  _atom_site_symmetry_multiplicity
  _atom_site_fract_x
  _atom_site_fract_y
  _atom_site_fract_z
  _atom_site_occupancy
  Hg  Hg1       1.0  0.5002784132957458  0.3765784502029419  0.6380919218063354  1.0000
  Hg  Hg2       1.0  0.9885101914405823  0.3488193452358246  0.7012580633163452  1.0000
  Hg  Hg3       1.0  0.48388850688934326  0.38424885272979736  0.9123943448066711  1.0000
  Hg  Hg4       1.0  0.0012723319232463837  0.8609433770179749  0.8229193091392517  1.0000
  Hg  Hg5       1.0  0.3456162214279175  0.8630717396736145  0.2738077044486999  1.0000
  O   O1        1.0  0.010065237991511822  0.8394981622695923  0.10983902215957642  1.0000
  O   O2        1.0  0.8355560898780823  0.5512768626213074  0.821887731552124  1.0000
  O   O3        1.0  0.9967583417892456  0.37204721570014954  0.42952772974967957  1.0000
  O   O4        1.0  0.3549760580062866  0.8600330948829651  0.7316428422927856  1.0000
  Pt  Pt1       1.0  0.610267162322998  0.14250269532203674  0.69263756275177  1.0000
