data_image0
_chemical_formula_structural       Hg3O5Pt2
_chemical_formula_sum              "Hg3 O5 Pt2"
_cell_length_a       6.523684016769654
_cell_length_b       6.772669131061
_cell_length_c       7.259834289550781
_cell_angle_alpha    108.23674918894808
_cell_angle_beta     108.8287910561131
_cell_angle_gamma    110.5918187997243

_space_group_name_H-M_alt    "P 1"
_space_group_IT_number       1

loop_
  _space_group_symop_operation_xyz
  'x, y, z'

loop_
  _atom_site_type_symbol
  _atom_site_label
  _atom_site_symmetry_multiplicity
  _atom_site_fract_x
  _atom_site_fract_y
  _atom_site_fract_z
  _atom_site_occupancy
  Hg  Hg1       1.0  0.37060889601707453  0.8428314328193665  0.01312235649675137  1.0000
  Hg  Hg2       1.0  0.6196326613426208  0.26378193497657776  0.13190574944019318  1.0000
  Hg  Hg3       1.0  0.2030815780162811  0.3383379280567169  0.7750108242034912  1.0000
  O   O1        1.0  0.5010814666748047  0.09086786955595016  0.7830977439880371  1.0000
  O   O2        1.0  0.22730013728141782  0.8382248878479004  0.2833912074565888  1.0000
  O   O3        1.0  0.8618122935295104  0.5204612016677856  0.09367409348487854  1.0000
  O   O4        1.0  0.0037868521176278587  0.5923048257827759  0.14376772940158847  1.0000
  O   O5        1.0  0.5004364252090454  0.5928518772125244  0.6226166486740112  1.0000
  Pt  Pt1       1.0  0.8812314271926879  0.8398345112800598  0.4487400352954865  1.0000
  Pt  Pt2       1.0  0.6343765258789062  0.32154011726379395  0.8946273326873779  1.0000
