data_image0
_chemical_formula_structural       Br3Hg3O4
_chemical_formula_sum              "Br3 Hg3 O4"
_cell_length_a       6.20727617710692
_cell_length_b       7.324867827457569
_cell_length_c       7.055568695068359
_cell_angle_alpha    109.21624786924738
_cell_angle_beta     108.00576584795414
_cell_angle_gamma    103.15410497758258

_space_group_name_H-M_alt    "P 1"
_space_group_IT_number       1

loop_
  _space_group_symop_operation_xyz
  'x, y, z'

loop_
  _atom_site_type_symbol
  _atom_site_label
  _atom_site_symmetry_multiplicity
  _atom_site_fract_x
  _atom_site_fract_y
  _atom_site_fract_z
  _atom_site_occupancy
  Br  Br1       1.0  0.06472823023796088  0.9270149469375611  0.016172442585229874  1.0000
  Br  Br2       1.0  0.7228828072547913  0.9956565499305726  0.5263631939888  1.0000
  Br  Br3       1.0  0.06725290417671204  0.7233853340148926  0.5046578049659729  1.0000
  Hg  Hg1       1.0  0.5662226676940918  0.2820354104042053  0.36239564418792725  1.0000
  Hg  Hg2       1.0  0.942682683467865  0.6646365523338318  0.3240100145339966  1.0000
  Hg  Hg3       1.0  0.6872965097427368  0.4805844128131867  0.02507372386753559  1.0000
  O   O1        1.0  0.9866350889205933  0.16143806278705597  0.8247774243354797  1.0000
  O   O2        1.0  0.19827155768871307  0.5990695953369141  0.5269116759300232  1.0000
  O   O3        1.0  0.4421603977680207  0.9720552563667298  0.2479429841041565  1.0000
  O   O4        1.0  0.028847528621554413  0.4119780063629151  0.8286622762680054  1.0000
