data_image0
_chemical_formula_structural       AlNb3Re2SbTbTi
_chemical_formula_sum              "Al1 Nb3 Re2 Sb1 Tb1 Ti1"
_cell_length_a       5.675682173594302
_cell_length_b       6.13042672641182
_cell_length_c       6.10831356048584
_cell_angle_alpha    68.77511463570586
_cell_angle_beta     63.52290942356735
_cell_angle_gamma    61.39758409974513

_space_group_name_H-M_alt    "P 1"
_space_group_IT_number       1

loop_
  _space_group_symop_operation_xyz
  'x, y, z'

loop_
  _atom_site_type_symbol
  _atom_site_label
  _atom_site_symmetry_multiplicity
  _atom_site_fract_x
  _atom_site_fract_y
  _atom_site_fract_z
  _atom_site_occupancy
  Al  Al1       1.0  0.8013271689414978  0.7214072346687317  0.6786049604415894  1.0000
  Nb  Nb1       1.0  0.7942707538604736  0.3801138997077942  0.8659639358520508  1.0000
  Nb  Nb2       1.0  0.29888948798179626  0.030198819935321808  0.1574462205171585  1.0000
  Nb  Nb3       1.0  0.3039920926094055  0.39212244749069214  0.8829700946807861  1.0000
  Re  Re1       1.0  0.2924916446208954  0.28241991996765137  0.7621619701385498  1.0000
  Re  Re2       1.0  0.7978242635726929  0.9821601510047913  0.6762537956237793  1.0000
  Sb  Sb1       1.0  0.7809317111968994  0.7209808230400085  0.3705063164234161  1.0000
  Tb  Tb1       1.0  0.2979466915130615  0.22101432085037231  0.41363948583602905  1.0000
  Ti  Ti1       1.0  0.8207036256790161  0.9213413000106812  0.6592389345169067  1.0000
