data_image0
_chemical_formula_structural       CdNb4Tb2Ti2
_chemical_formula_sum              "Cd1 Nb4 Tb2 Ti2"
_cell_length_a       6.119583898570705
_cell_length_b       6.1373707551876455
_cell_length_c       6.599271774291992
_cell_angle_alpha    62.238063970838155
_cell_angle_beta     61.915999565441105
_cell_angle_gamma    60.83094669044284

_space_group_name_H-M_alt    "P 1"
_space_group_IT_number       1

loop_
  _space_group_symop_operation_xyz
  'x, y, z'

loop_
  _atom_site_type_symbol
  _atom_site_label
  _atom_site_symmetry_multiplicity
  _atom_site_fract_x
  _atom_site_fract_y
  _atom_site_fract_z
  _atom_site_occupancy
  Cd  Cd1       1.0  0.9361245036125183  0.026264552026987076  0.2085931152105331  1.0000
  Nb  Nb1       1.0  0.955694854259491  0.2606638967990875  0.7966904640197755  1.0000
  Nb  Nb2       1.0  0.9587788581848145  0.5257560014724731  0.1283673495054245  1.0000
  Nb  Nb3       1.0  0.459367573261261  0.7608392834663391  0.8494734764099122  1.0000
  Nb  Nb4       1.0  0.9594574570655823  0.013650411739945412  0.8026996850967405  1.0000
  Tb  Tb1       1.0  0.4635718762874603  0.7608922123908997  0.6047104597091675  1.0000
  Tb  Tb2       1.0  0.24640804529190063  0.5480664372444153  0.13374075293540955  1.0000
  Ti  Ti1       1.0  0.9674038887023926  0.25354260206222534  0.32000038027763367  1.0000
  Ti  Ti2       1.0  0.4996747672557831  0.2635711133480072  0.11396659910678865  1.0000
