data_image0
_chemical_formula_structural       Cd2Re6Te
_chemical_formula_sum              "Cd2 Re6 Te1"
_cell_length_a       6.059770497686337
_cell_length_b       6.530371447630892
_cell_length_c       6.17119026184082
_cell_angle_alpha    61.80626606310549
_cell_angle_beta     61.51156550286406
_cell_angle_gamma    55.82614104268598

_space_group_name_H-M_alt    "P 1"
_space_group_IT_number       1

loop_
  _space_group_symop_operation_xyz
  'x, y, z'

loop_
  _atom_site_type_symbol
  _atom_site_label
  _atom_site_symmetry_multiplicity
  _atom_site_fract_x
  _atom_site_fract_y
  _atom_site_fract_z
  _atom_site_occupancy
  Cd  Cd1       1.0  0.5536994934082031  0.15046578645706177  0.25654658675193787  1.0000
  Cd  Cd2       1.0  0.46640634536743164  0.13557852804660797  0.9027732014656067  1.0000
  Re  Re1       1.0  0.786010205745697  0.39500677585601807  0.755591094493866  1.0000
  Re  Re2       1.0  0.5320963263511658  0.6372639536857605  0.6228645443916321  1.0000
  Re  Re3       1.0  0.26301321387290955  0.8623693585395813  0.5921329259872437  1.0000
  Re  Re4       1.0  0.008369450457394123  0.8979939222335815  0.3856787383556367  1.0000
  Re  Re5       1.0  0.29856324195861816  0.885665774345398  0.911914050579071  1.0000
  Re  Re6       1.0  0.4912939965724945  0.14953207969665527  0.9234967827796936  1.0000
  Te  Te1       1.0  0.9912448525428772  0.6123509407043457  0.9069246053695679  1.0000
