data_image0
_chemical_formula_structural       BCd3Re2Te3
_chemical_formula_sum              "B1 Cd3 Re2 Te3"
_cell_length_a       5.350457818726971
_cell_length_b       7.127159059886485
_cell_length_c       6.3178205490112305
_cell_angle_alpha    122.78979191362943
_cell_angle_beta     86.07991286165401
_cell_angle_gamma    90.04201269456443

_space_group_name_H-M_alt    "P 1"
_space_group_IT_number       1

loop_
  _space_group_symop_operation_xyz
  'x, y, z'

loop_
  _atom_site_type_symbol
  _atom_site_label
  _atom_site_symmetry_multiplicity
  _atom_site_fract_x
  _atom_site_fract_y
  _atom_site_fract_z
  _atom_site_occupancy
  B   B1        1.0  0.9787511229515076  0.6201570630073547  0.8744815587997435  1.0000
  Cd  Cd1       1.0  0.975109875202179  0.8001000881195068  0.2014741748571396  1.0000
  Cd  Cd2       1.0  0.47298765182495117  0.25754037499427795  0.6172277927398682  1.0000
  Cd  Cd3       1.0  0.46091440320014954  0.43158069252967834  0.11481501907110213  1.0000
  Re  Re1       1.0  0.48154953122138977  0.9195398092269897  0.13428451120853424  1.0000
  Re  Re2       1.0  0.9625378251075745  0.08689618855714798  0.7553703784942627  1.0000
  Te  Te1       1.0  0.9739814400672913  0.3217848241329193  0.5181244611740112  1.0000
  Te  Te2       1.0  0.48747748136520386  0.423240065574646  0.5631972551345825  1.0000
  Te  Te3       1.0  0.465570867061615  0.09875531494617462  0.7919119596481323  1.0000
