data_image0
_chemical_formula_structural       AlNb2Re5Si
_chemical_formula_sum              "Al1 Nb2 Re5 Si1"
_cell_length_a       5.872703460412017
_cell_length_b       6.086156444641867
_cell_length_c       6.415791988372803
_cell_angle_alpha    74.66511008969177
_cell_angle_beta     67.72139985200572
_cell_angle_gamma    61.643941211035205

_space_group_name_H-M_alt    "P 1"
_space_group_IT_number       1

loop_
  _space_group_symop_operation_xyz
  'x, y, z'

loop_
  _atom_site_type_symbol
  _atom_site_label
  _atom_site_symmetry_multiplicity
  _atom_site_fract_x
  _atom_site_fract_y
  _atom_site_fract_z
  _atom_site_occupancy
  Al  Al1       1.0  0.4077659547328949  0.9664410948753357  0.12614946067333221  1.0000
  Nb  Nb1       1.0  0.8672268986701965  0.8208215236663818  0.4340694844722748  1.0000
  Nb  Nb2       1.0  0.40737655758857727  0.47655606269836426  0.03179273009300232  1.0000
  Re  Re1       1.0  0.04948268085718155  0.5043495893478394  0.9967041015624999  1.0000
  Re  Re2       1.0  0.7361171841621399  0.27133849263191223  0.7734511494636536  1.0000
  Re  Re3       1.0  0.3867642283439636  0.9882373213768005  0.14856071770191193  1.0000
  Re  Re4       1.0  0.9066578149795532  0.5131465196609497  0.7823506593704224  1.0000
  Re  Re5       1.0  0.40372171998023987  0.9969955086708069  0.5382667779922485  1.0000
  Si  Si1       1.0  0.35030198097229004  0.8683457374572754  0.3862842917442322  1.0000
