data_image0
_chemical_formula_structural       AlNaNb2Re3Tb2
_chemical_formula_sum              "Al1 Na1 Nb2 Re3 Tb2"
_cell_length_a       6.097440641519063
_cell_length_b       6.231202570042489
_cell_length_c       6.588328838348389
_cell_angle_alpha    62.40870563832673
_cell_angle_beta     62.7248005389016
_cell_angle_gamma    58.79357933776461

_space_group_name_H-M_alt    "P 1"
_space_group_IT_number       1

loop_
  _space_group_symop_operation_xyz
  'x, y, z'

loop_
  _atom_site_type_symbol
  _atom_site_label
  _atom_site_symmetry_multiplicity
  _atom_site_fract_x
  _atom_site_fract_y
  _atom_site_fract_z
  _atom_site_occupancy
  Al  Al1       1.0  0.9681028723716737  0.2602519989013672  0.767769455909729  1.0000
  Na  Na1       1.0  0.004090499132871628  0.7650229334831238  0.30023783445358276  1.0000
  Nb  Nb1       1.0  0.9959819316864015  0.26328539848327637  0.9640408754348755  1.0000
  Nb  Nb2       1.0  0.6820592880249023  0.6122871041297913  0.6612727046012878  1.0000
  Re  Re1       1.0  0.4961369335651398  0.24957336485385895  0.8958695530891418  1.0000
  Re  Re2       1.0  0.5104933977127075  0.2447478175163269  0.8572834730148315  1.0000
  Re  Re3       1.0  0.18384476006031036  0.23503097891807556  0.7758162617683411  1.0000
  Tb  Tb1       1.0  0.6812435388565063  0.5950074195861816  0.08063242584466934  1.0000
  Tb  Tb2       1.0  0.9976719021797181  0.7719892859458923  0.5846369862556458  1.0000
