data_image0
_chemical_formula_structural       Ca6FI3O3Zn
_chemical_formula_sum              "Ca6 F1 I3 O3 Zn1"
_cell_length_a       7.487155099891778
_cell_length_b       7.043239223562248
_cell_length_c       8.148332595825195
_cell_angle_alpha    62.941585103121966
_cell_angle_beta     64.9037878950381
_cell_angle_gamma    61.60134042855068

_space_group_name_H-M_alt    "P 1"
_space_group_IT_number       1

loop_
  _space_group_symop_operation_xyz
  'x, y, z'

loop_
  _atom_site_type_symbol
  _atom_site_label
  _atom_site_symmetry_multiplicity
  _atom_site_fract_x
  _atom_site_fract_y
  _atom_site_fract_z
  _atom_site_occupancy
  Ca  Ca1       1.0  0.03651267662644386  0.3524000644683838  0.06922592967748642  1.0000
  Ca  Ca2       1.0  0.24871626496315002  0.9652423858642578  0.8533085584640503  1.0000
  Ca  Ca3       1.0  0.7519374489784241  0.7679778337478638  0.40893667936325073  1.0000
  Ca  Ca4       1.0  0.2600182890892029  0.2069985419511795  0.07965496182441711  1.0000
  Ca  Ca5       1.0  0.5695755481719971  0.09348084032535553  0.1514415740966797  1.0000
  Ca  Ca6       1.0  0.25493183732032776  0.6321151852607727  0.7347837686538696  1.0000
  F   F1        1.0  0.12307338416576385  0.41952741146087646  0.2536824345588684  1.0000
  I   I1        1.0  0.26432564854621887  0.17229433357715607  0.11771178990602493  1.0000
  I   I2        1.0  0.003718412946909666  0.8681756854057312  0.025805236771702766  1.0000
  I   I3        1.0  0.04680827260017395  0.36882731318473816  0.7950944304466248  1.0000
  O   O1        1.0  0.7349004745483398  0.46601948142051697  0.7107712030410767  1.0000
  O   O2        1.0  0.7476590871810913  0.007580607198178768  0.8800213932991028  1.0000
  O   O3        1.0  0.0125132380053401  0.05236892029643059  0.5718734860420226  1.0000
  Zn  Zn1       1.0  0.2548576891422272  0.9345492720603943  0.005927700549364035  1.0000
