data_image0
_chemical_formula_structural       Ca4FI5O2ScTb
_chemical_formula_sum              "Ca4 F1 I5 O2 Sc1 Tb1"
_cell_length_a       7.198637801545009
_cell_length_b       6.215565742147835
_cell_length_c       8.36351203918457
_cell_angle_alpha    81.30924432921361
_cell_angle_beta     68.27737005931517
_cell_angle_gamma    54.26984872197728

_space_group_name_H-M_alt    "P 1"
_space_group_IT_number       1

loop_
  _space_group_symop_operation_xyz
  'x, y, z'

loop_
  _atom_site_type_symbol
  _atom_site_label
  _atom_site_symmetry_multiplicity
  _atom_site_fract_x
  _atom_site_fract_y
  _atom_site_fract_z
  _atom_site_occupancy
  Ca  Ca1       1.0  0.10282853990793228  0.43631434440612793  0.6169684529304504  1.0000
  Ca  Ca2       1.0  0.6190589666366577  0.8692774772644043  0.764640212059021  1.0000
  Ca  Ca3       1.0  0.12062234431505203  0.8816231489181519  0.3557418882846832  1.0000
  Ca  Ca4       1.0  0.6001560091972351  0.2683371603488922  0.6047016978263855  1.0000
  F   F1        1.0  0.5595121383666992  0.2482384741306305  0.8499711751937866  1.0000
  I   I1        1.0  0.6179183125495911  0.8707558512687683  0.32705774903297424  1.0000
  I   I2        1.0  0.3665613830089569  0.4157472848892212  0.5318775177001953  1.0000
  I   I3        1.0  0.02744165249168873  0.26836222410202026  0.015406964346766472  1.0000
  I   I4        1.0  0.6101837754249573  0.8168327212333679  0.5875329375267029  1.0000
  I   I5        1.0  0.9218376278877258  0.20615366101264954  0.3467153310775757  1.0000
  O   O1        1.0  0.12353427708148956  0.9472887516021729  0.31461071968078613  1.0000
  O   O2        1.0  0.3596295714378357  0.46199268102645874  0.6832036972045898  1.0000
  Sc  Sc1       1.0  0.9563697576522827  0.289518803358078  0.6195660829544067  1.0000
  Tb  Tb1       1.0  0.633213460445404  0.6384792327880859  0.748988687992096  1.0000
