data_image0
_chemical_formula_structural       Ca7O7
_chemical_formula_sum              "Ca7 O7"
_cell_length_a       6.1537710833474835
_cell_length_b       6.50835653060683
_cell_length_c       7.422929763793945
_cell_angle_alpha    81.78343330528926
_cell_angle_beta     63.61231834550129
_cell_angle_gamma    65.26745979540428

_space_group_name_H-M_alt    "P 1"
_space_group_IT_number       1

loop_
  _space_group_symop_operation_xyz
  'x, y, z'

loop_
  _atom_site_type_symbol
  _atom_site_label
  _atom_site_symmetry_multiplicity
  _atom_site_fract_x
  _atom_site_fract_y
  _atom_site_fract_z
  _atom_site_occupancy
  Ca  Ca1       1.0  0.8905614018440247  0.36732712388038635  0.7426691651344299  1.0000
  Ca  Ca2       1.0  0.8913423418998718  0.6953310966491699  0.6682484745979309  1.0000
  Ca  Ca3       1.0  0.8923332691192627  0.40996602177619934  0.9703845381736755  1.0000
  Ca  Ca4       1.0  0.39622429013252247  0.9896122813224794  0.8646892309188843  1.0000
  Ca  Ca5       1.0  0.39662081003189087  0.9195241928100586  0.6011316180229187  1.0000
  Ca  Ca6       1.0  0.39054903388023376  0.03722549229860306  0.783883810043335  1.0000
  Ca  Ca7       1.0  0.8904334306716919  0.7655889987945557  0.7884677648544312  1.0000
  O   O1        1.0  0.8612022995948792  0.28097400069236755  0.2809470593929291  1.0000
  O   O2        1.0  0.22757591307163239  0.1633419394493103  0.1962062269449234  1.0000
  O   O3        1.0  0.36037567257881165  0.047566499561071396  0.2074462026357651  1.0000
  O   O4        1.0  0.8768214583396912  0.2866782546043396  0.0694115087389946  1.0000
  O   O5        1.0  0.3659062087535858  0.6373922228813171  0.9184330701828003  1.0000
  O   O6        1.0  0.27294594049453735  0.5067925453186035  0.7954272031784058  1.0000
  O   O7        1.0  0.6544535160064697  0.12141618877649309  0.7887924313545227  1.0000
