data_image0
_chemical_formula_structural       Ca8Cu2O4
_chemical_formula_sum              "Ca8 Cu2 O4"
_cell_length_a       7.151031546741549
_cell_length_b       5.766760065574553
_cell_length_c       6.3046393394470215
_cell_angle_alpha    71.2219136971308
_cell_angle_beta     54.97767576500909
_cell_angle_gamma    46.56641995755502

_space_group_name_H-M_alt    "P 1"
_space_group_IT_number       1

loop_
  _space_group_symop_operation_xyz
  'x, y, z'

loop_
  _atom_site_type_symbol
  _atom_site_label
  _atom_site_symmetry_multiplicity
  _atom_site_fract_x
  _atom_site_fract_y
  _atom_site_fract_z
  _atom_site_occupancy
  Ca  Ca1       1.0  0.01608162745833397  0.02077050693333149  0.07460600882768631  1.0000
  Ca  Ca2       1.0  0.5180623531341553  0.5748977065086365  0.8075041770935059  1.0000
  Ca  Ca3       1.0  0.522045910358429  0.30399009585380554  0.2438964545726776  1.0000
  Ca  Ca4       1.0  0.5203609466552734  0.1091131642460823  0.2755085229873657  1.0000
  Ca  Ca5       1.0  0.516861617565155  0.6827471256256104  0.8209971785545349  1.0000
  Ca  Ca6       1.0  0.5168994665145874  0.30893445014953613  0.1852812021970749  1.0000
  Ca  Ca7       1.0  0.017590051516890526  0.5325464606285095  0.7857059836387634  1.0000
  Ca  Ca8       1.0  0.009891629219055176  0.020337261259555817  0.9896736145019531  1.0000
  Cu  Cu1       1.0  0.7972241640090942  0.14376240968704224  0.2022850662469864  1.0000
  Cu  Cu2       1.0  0.26382726430892944  0.8236075639724731  0.20871540904045105  1.0000
  O   O1        1.0  0.5116398930549622  0.6401435732841492  0.4647923409938812  1.0000
  O   O2        1.0  0.026935981586575508  0.26976659893989563  0.6766697764396667  1.0000
  O   O3        1.0  0.5120519995689392  0.05982622876763344  0.46999529004096985  1.0000
  O   O4        1.0  0.5014207363128662  0.2651303708553314  0.0637442022562027  1.0000
