data_image0
_chemical_formula_structural       Ca4FInNO3Pb2SiZn
_chemical_formula_sum              "Ca4 F1 In1 N1 O3 Pb2 Si1 Zn1"
_cell_length_a       6.434552568128712
_cell_length_b       5.829152242255379
_cell_length_c       5.6900315284729
_cell_angle_alpha    3.656421397641891
_cell_angle_beta     50.74539558010208
_cell_angle_gamma    54.31447828819545

_space_group_name_H-M_alt    "P 1"
_space_group_IT_number       1

loop_
  _space_group_symop_operation_xyz
  'x, y, z'

loop_
  _atom_site_type_symbol
  _atom_site_label
  _atom_site_symmetry_multiplicity
  _atom_site_fract_x
  _atom_site_fract_y
  _atom_site_fract_z
  _atom_site_occupancy
  Ca  Ca1       1.0  0.9073439836502075  0.13211719691753385  0.581946849822998  1.0000
  Ca  Ca2       1.0  0.23323382437229156  0.4863630831241607  0.25070023536682123  1.0000
  Ca  Ca3       1.0  0.8541286587715149  0.8854456543922424  0.45578816533088684  1.0000
  Ca  Ca4       1.0  0.4759880602359772  0.12184123694896698  0.04962211847305301  1.0000
  F   F1        1.0  0.4556867778301239  0.9801214933395388  0.40906837582588174  1.0000
  In  In1       1.0  0.8515017628669739  0.28501331806182867  0.729300320148468  1.0000
  N   N1        1.0  0.8672791123390198  0.5427149534225464  0.6246465444564819  1.0000
  O   O1        1.0  0.03532103449106217  0.15800023078918465  0.35733947157859797  1.0000
  O   O2        1.0  0.09523234516382217  0.40793585777282715  0.002337784739211162  1.0000
  O   O3        1.0  0.6145793795585632  0.1146077886223793  0.5436971783638  1.0000
  Pb  Pb1       1.0  0.32951706647872925  0.3032767474651337  0.8923410773277283  1.0000
  Pb  Pb2       1.0  0.6877874732017517  0.4909736812114716  0.6042883992195128  1.0000
  Si  Si1       1.0  0.5431244373321533  0.7361175417900087  0.508251667022705  1.0000
  Zn  Zn1       1.0  0.3471757769584656  0.4567950069904327  0.6348658800125122  1.0000
