data_image0
_chemical_formula_structural       Ca3CoH2I3InO3Zn
_chemical_formula_sum              "Ca3 Co1 H2 I3 In1 O3 Zn1"
_cell_length_a       7.3495249726721825
_cell_length_b       7.1855070364980005
_cell_length_c       7.0532732009887695
_cell_angle_alpha    54.64017589990372
_cell_angle_beta     51.67623721813953
_cell_angle_gamma    55.2455147691979

_space_group_name_H-M_alt    "P 1"
_space_group_IT_number       1

loop_
  _space_group_symop_operation_xyz
  'x, y, z'

loop_
  _atom_site_type_symbol
  _atom_site_label
  _atom_site_symmetry_multiplicity
  _atom_site_fract_x
  _atom_site_fract_y
  _atom_site_fract_z
  _atom_site_occupancy
  Ca  Ca1       1.0  0.6887648701667786  0.01689865067601204  0.16004459559917456  1.0000
  Ca  Ca2       1.0  0.1496601700782776  0.08409754931926727  0.2574060261249542  1.0000
  Ca  Ca3       1.0  0.7065358757972717  0.3787009119987488  0.6563327312469482  1.0000
  Co  Co1       1.0  0.7760141491889954  0.27047011256217957  0.30727481842041016  1.0000
  H   H1        1.0  0.9024271368980408  0.3872555196285248  0.22848489880561842  1.0000
  H   H2        1.0  0.449618399143219  0.1872492879629135  0.7718270421028137  1.0000
  I   I1        1.0  0.6845197677612305  0.03165220841765404  0.1697615683078766  1.0000
  I   I2        1.0  0.6960758566856384  0.5873623490333557  0.9083286523818971  1.0000
  I   I3        1.0  0.36271554231643677  0.04837288334965706  0.39353400468826294  1.0000
  In  In1       1.0  0.7095590233802795  0.5774268507957458  0.6002381443977356  1.0000
  O   O1        1.0  0.6499208211898804  0.3982063233852386  0.5280269384384155  1.0000
  O   O2        1.0  0.7189458608627319  0.4735285937786102  0.5642646551132202  1.0000
  O   O3        1.0  0.32753133773803716  0.832486867904663  0.4467284083366394  1.0000
  Zn  Zn1       1.0  0.1770576536655426  0.13453499972820282  0.789780855178833  1.0000
