data_image0
_chemical_formula_structural       Fe4Tc2
_chemical_formula_sum              "Fe4 Tc2"
_cell_length_a       3.7370924513252968
_cell_length_b       3.771852665405352
_cell_length_c       5.727272033691406
_cell_angle_alpha    95.4768178661904
_cell_angle_beta     109.70572211379249
_cell_angle_gamma    90.0524166654488

_space_group_name_H-M_alt    "P 1"
_space_group_IT_number       1

loop_
  _space_group_symop_operation_xyz
  'x, y, z'

loop_
  _atom_site_type_symbol
  _atom_site_label
  _atom_site_symmetry_multiplicity
  _atom_site_fract_x
  _atom_site_fract_y
  _atom_site_fract_z
  _atom_site_occupancy
  Fe  Fe1       1.0  0.22541137039661407  0.5047975778579712  0.013793584890663629  1.0000
  Fe  Fe2       1.0  0.07796326279640198  0.9961875677108765  0.710189163684845  1.0000
  Fe  Fe3       1.0  0.579160213470459  0.49973899126052856  0.7120339870452881  1.0000
  Fe  Fe4       1.0  0.7288597822189331  0.9990838170051575  0.013653981499373932  1.0000
  Tc  Tc1       1.0  0.9200329780578613  0.5018734335899353  0.37001273036003113  1.0000
  Tc  Tc2       1.0  0.41300225257873535  0.9976832270622253  0.3705981373786926  1.0000
