data_image0
_chemical_formula_structural       Fe3Tc3
_chemical_formula_sum              "Fe3 Tc3"
_cell_length_a       4.140450614999105
_cell_length_b       4.155210013862119
_cell_length_c       5.387827396392822
_cell_angle_alpha    90.35332058211806
_cell_angle_beta     90.04986254844108
_cell_angle_gamma    120.40841023351585

_space_group_name_H-M_alt    "P 1"
_space_group_IT_number       1

loop_
  _space_group_symop_operation_xyz
  'x, y, z'

loop_
  _atom_site_type_symbol
  _atom_site_label
  _atom_site_symmetry_multiplicity
  _atom_site_fract_x
  _atom_site_fract_y
  _atom_site_fract_z
  _atom_site_occupancy
  Fe  Fe1       1.0  0.5202367901802063  0.40025025606155396  0.2581075131893158  1.0000
  Fe  Fe2       1.0  0.1859193593263626  0.7338435649871826  0.6013482213020324  1.0000
  Fe  Fe3       1.0  0.8565388321876526  0.06645027548074722  0.9268935322761536  1.0000
  Tc  Tc1       1.0  0.5185644626617432  0.40140849351882935  0.755492091178894  1.0000
  Tc  Tc2       1.0  0.8544513583183289  0.06732513755559921  0.4281946122646332  1.0000
  Tc  Tc3       1.0  0.18857619166374207  0.7341618537902832  0.10006025433540344  1.0000
