data_image0
_chemical_formula_structural       CuErFeGeHgTa
_chemical_formula_sum              "Cu1 Er1 Fe1 Ge1 Hg1 Ta1"
_cell_length_a       4.5340089828802626
_cell_length_b       4.527699016580368
_cell_length_c       6.078546047210693
_cell_angle_alpha    90.08928834746102
_cell_angle_beta     89.9978871138597
_cell_angle_gamma    119.89395726982428

_space_group_name_H-M_alt    "P 1"
_space_group_IT_number       1

loop_
  _space_group_symop_operation_xyz
  'x, y, z'

loop_
  _atom_site_type_symbol
  _atom_site_label
  _atom_site_symmetry_multiplicity
  _atom_site_fract_x
  _atom_site_fract_y
  _atom_site_fract_z
  _atom_site_occupancy
  Cu  Cu1       1.0  0.8346100449562073  0.00032766442745923996  0.8859947323799132  1.0000
  Er  Er1       1.0  0.8338930010795593  0.0008205217309296131  0.35643118619918823  1.0000
  Fe  Fe1       1.0  0.1666412502527237  0.6581902503967285  0.05527553334832191  1.0000
  Ge  Ge1       1.0  0.501798152923584  0.3369726240634918  0.1543363630771637  1.0000
  Hg  Hg1       1.0  0.16564372181892395  0.6643332242965698  0.6003166437149048  1.0000
  Ta  Ta1       1.0  0.5054380297660828  0.3304064869880676  0.7213941812515259  1.0000
