data_image0
_chemical_formula_structural       O2P2Pb2
_chemical_formula_sum              "O2 P2 Pb2"
_cell_length_a       4.816563950668266
_cell_length_b       5.668024942411425
_cell_length_c       5.981234073638916
_cell_angle_alpha    120.57266405690265
_cell_angle_beta     89.77668648246454
_cell_angle_gamma    88.54677322159735

_space_group_name_H-M_alt    "P 1"
_space_group_IT_number       1

loop_
  _space_group_symop_operation_xyz
  'x, y, z'

loop_
  _atom_site_type_symbol
  _atom_site_label
  _atom_site_symmetry_multiplicity
  _atom_site_fract_x
  _atom_site_fract_y
  _atom_site_fract_z
  _atom_site_occupancy
  O   O1        1.0  0.6445896029472351  0.36723223328590393  0.12962660193443298  1.0000
  O   O2        1.0  0.14894692599773407  0.14974495768547058  0.6250717043876648  1.0000
  P   P1        1.0  0.9027671217918396  0.9732739329338074  0.3286866545677185  1.0000
  P   P2        1.0  0.9025347232818604  0.6330108642578125  0.802399754524231  1.0000
  Pb  Pb1       1.0  0.40470707416534424  0.6092958450317383  0.32687583565711975  1.0000
  Pb  Pb2       1.0  0.39960384368896484  0.12656249105930328  0.9807316064834594  1.0000
