data_image0
_chemical_formula_structural       Eu5GeSeUVZn2
_chemical_formula_sum              "Eu5 Ge1 Se1 U1 V1 Zn2"
_cell_length_a       4.461977542519541
_cell_length_b       5.411508576225139
_cell_length_c       10.148650169372559
_cell_angle_alpha    90.72374718155679
_cell_angle_beta     91.28441730136092
_cell_angle_gamma    97.9845470332788

_space_group_name_H-M_alt    "P 1"
_space_group_IT_number       1

loop_
  _space_group_symop_operation_xyz
  'x, y, z'

loop_
  _atom_site_type_symbol
  _atom_site_label
  _atom_site_symmetry_multiplicity
  _atom_site_fract_x
  _atom_site_fract_y
  _atom_site_fract_z
  _atom_site_occupancy
  Eu  Eu1       1.0  0.11775608360767365  0.7408040761947632  0.2495035082101822  1.0000
  Eu  Eu2       1.0  0.11534541100263596  0.4690244197845459  0.19229915738105774  1.0000
  Eu  Eu3       1.0  0.6252341866493225  0.09395977109670639  0.5887932777404785  1.0000
  Eu  Eu4       1.0  0.1205015629529953  0.5570494532585144  0.9669216275215149  1.0000
  Eu  Eu5       1.0  0.11891427636146545  0.8177884817123413  0.1585771143436432  1.0000
  Ge  Ge1       1.0  0.6249886155128479  0.37059447169303894  0.46330952644348145  1.0000
  Se  Se1       1.0  0.6233378052711487  0.6079705357551575  0.2716180384159088  1.0000
  U   U1        1.0  0.6535540819168091  0.7631505727767944  0.9631848931312561  1.0000
  V   V1        1.0  0.623248279094696  0.39225372672080994  0.273931086063385  1.0000
  Zn  Zn1       1.0  0.6221482753753662  0.6750059127807617  0.09094052016735077  1.0000
  Zn  Zn2       1.0  0.6267420649528503  0.23088738322257996  0.31668397784233093  1.0000
