data_image0
_chemical_formula_structural       Eu4GaMgSe2V2Zn
_chemical_formula_sum              "Eu4 Ga1 Mg1 Se2 V2 Zn1"
_cell_length_a       5.3617468617351145
_cell_length_b       6.180214290490369
_cell_length_c       8.275439262390137
_cell_angle_alpha    78.02718298259535
_cell_angle_beta     74.52006205262333
_cell_angle_gamma    70.12960559546515

_space_group_name_H-M_alt    "P 1"
_space_group_IT_number       1

loop_
  _space_group_symop_operation_xyz
  'x, y, z'

loop_
  _atom_site_type_symbol
  _atom_site_label
  _atom_site_symmetry_multiplicity
  _atom_site_fract_x
  _atom_site_fract_y
  _atom_site_fract_z
  _atom_site_occupancy
  Eu  Eu1       1.0  0.9735302925109863  0.4265884459018707  0.2876805067062378  1.0000
  Eu  Eu2       1.0  0.4736005365848541  0.8333714008331299  0.30802634358406067  1.0000
  Eu  Eu3       1.0  0.4444192349910736  0.009743538685142994  0.6053654551506042  1.0000
  Eu  Eu4       1.0  0.8154646158218384  0.590531051158905  0.5788177251815796  1.0000
  Ga  Ga1       1.0  0.007049780339002599  0.2305717766284943  0.10497258603572845  1.0000
  Mg  Mg1       1.0  0.010987890884280205  0.17293883860111237  0.3317281901836395  1.0000
  Se  Se1       1.0  0.024873582646250725  0.7390886545181274  0.3886468708515168  1.0000
  Se  Se2       1.0  0.4871707260608673  0.05444081127643585  0.7592877149581909  1.0000
  V   V1        1.0  0.4965094029903412  0.9152196645736695  0.32639408111572266  1.0000
  V   V2        1.0  0.5604286789894104  0.37196701765060425  0.6740227341651917  1.0000
  Zn  Zn1       1.0  0.4990369975566864  0.6742657423019409  0.745807945728302  1.0000
