data_image0
_chemical_formula_structural       Eu6Se5
_chemical_formula_sum              "Eu6 Se5"
_cell_length_a       6.570543725870567
_cell_length_b       6.697600528206978
_cell_length_c       8.061129570007324
_cell_angle_alpha    110.95451715912753
_cell_angle_beta     89.83824012217518
_cell_angle_gamma    107.53116108082688

_space_group_name_H-M_alt    "P 1"
_space_group_IT_number       1

loop_
  _space_group_symop_operation_xyz
  'x, y, z'

loop_
  _atom_site_type_symbol
  _atom_site_label
  _atom_site_symmetry_multiplicity
  _atom_site_fract_x
  _atom_site_fract_y
  _atom_site_fract_z
  _atom_site_occupancy
  Eu  Eu1       1.0  0.7633479833602905  0.9936150312423706  0.4426671862602234  1.0000
  Eu  Eu2       1.0  0.5099404454231262  0.14781485497951508  0.5454539656639099  1.0000
  Eu  Eu3       1.0  0.02544981986284256  0.8023772835731506  0.36241796612739563  1.0000
  Eu  Eu4       1.0  0.27026045322418213  0.39952367544174194  0.32178378105163574  1.0000
  Eu  Eu5       1.0  0.7626984119415283  0.5892822742462158  0.9639004468917847  1.0000
  Eu  Eu6       1.0  0.7645138502120972  0.024048447608947754  0.14245067536830902  1.0000
  Se  Se1       1.0  0.03979131206870079  0.3640337586402893  0.8395832180976868  1.0000
  Se  Se2       1.0  0.009782243520021439  0.5089933276176453  0.926483392715454  1.0000
  Se  Se3       1.0  0.758513331413269  0.5271679162979126  0.09890573471784592  1.0000
  Se  Se4       1.0  0.48335745930671686  0.43407073616981506  0.4399503767490387  1.0000
  Se  Se5       1.0  0.28529825806617737  0.8950351476669312  0.9778956174850464  1.0000
