data_image0
_chemical_formula_structural       AsCoEu4GaISe2Tb
_chemical_formula_sum              "As1 Co1 Eu4 Ga1 I1 Se2 Tb1"
_cell_length_a       4.613739764645372
_cell_length_b       5.831584445980141
_cell_length_c       8.740900993347168
_cell_angle_alpha    91.15015188734222
_cell_angle_beta     90.78864860272944
_cell_angle_gamma    92.09273502528124

_space_group_name_H-M_alt    "P 1"
_space_group_IT_number       1

loop_
  _space_group_symop_operation_xyz
  'x, y, z'

loop_
  _atom_site_type_symbol
  _atom_site_label
  _atom_site_symmetry_multiplicity
  _atom_site_fract_x
  _atom_site_fract_y
  _atom_site_fract_z
  _atom_site_occupancy
  As  As1       1.0  0.10415638983249664  0.1363029181957245  0.15249893069267273  1.0000
  Co  Co1       1.0  0.597219705581665  0.00915085431188345  0.5310935378074646  1.0000
  Eu  Eu1       1.0  0.5753911137580872  0.7990977764129639  0.0026002160739153624  1.0000
  Eu  Eu2       1.0  0.08137010782957077  0.8852457404136658  0.22940297424793243  1.0000
  Eu  Eu3       1.0  0.0975399762392044  0.07234454900026321  0.6948253512382507  1.0000
  Eu  Eu4       1.0  0.6068366169929504  0.9040191173553467  0.7576307058334351  1.0000
  Ga  Ga1       1.0  0.5806708931922913  0.6509979963302612  0.6771535873413086  1.0000
  I   I1        1.0  0.08827366679906845  0.2678510844707489  0.027089335024356842  1.0000
  Se  Se1       1.0  0.0572553351521492  0.3122626841068268  0.22615428268909454  1.0000
  Se  Se2       1.0  0.5863238573074341  0.10512074083089828  0.10401983559131622  1.0000
  Tb  Tb1       1.0  0.09850630164146423  0.06310418248176575  0.2803494334220886  1.0000
