data_image0
_chemical_formula_structural       Eu4Ga2Se5
_chemical_formula_sum              "Eu4 Ga2 Se5"
_cell_length_a       5.789394662180207
_cell_length_b       5.524944937173199
_cell_length_c       8.798094749450684
_cell_angle_alpha    94.51638320626117
_cell_angle_beta     91.94480997315164
_cell_angle_gamma    97.29208970522255

_space_group_name_H-M_alt    "P 1"
_space_group_IT_number       1

loop_
  _space_group_symop_operation_xyz
  'x, y, z'

loop_
  _atom_site_type_symbol
  _atom_site_label
  _atom_site_symmetry_multiplicity
  _atom_site_fract_x
  _atom_site_fract_y
  _atom_site_fract_z
  _atom_site_occupancy
  Eu  Eu1       1.0  0.7873442769050598  0.5174426436424255  0.48185545206069946  1.0000
  Eu  Eu2       1.0  0.43890494108200073  0.7190360426902771  0.651702344417572  1.0000
  Eu  Eu3       1.0  0.03327007591724396  0.5363438725471497  0.7232727408409119  1.0000
  Eu  Eu4       1.0  0.4059092700481415  0.8505699038505554  0.3579462766647339  1.0000
  Ga  Ga1       1.0  0.38470566272735596  0.32687801122665405  0.31362611055374146  1.0000
  Ga  Ga2       1.0  0.7432835698127747  0.5843991637229919  0.27079737186431885  1.0000
  Se  Se1       1.0  0.9992159008979797  0.5628915429115295  0.36535659432411194  1.0000
  Se  Se2       1.0  0.2470017373561859  0.3899257481098175  0.4581547677516937  1.0000
  Se  Se3       1.0  0.7168912291526794  0.9123440384864807  0.8124625086784363  1.0000
  Se  Se4       1.0  0.6925736665725708  0.9413142204284668  0.5741273164749146  1.0000
  Se  Se5       1.0  0.42766356468200684  0.8073685169219971  0.31352484226226807  1.0000
