data_image0
_chemical_formula_structural       CoEu8ISe
_chemical_formula_sum              "Co1 Eu8 I1 Se1"
_cell_length_a       5.36746376348487
_cell_length_b       5.317405498480851
_cell_length_c       12.722908020019531
_cell_angle_alpha    91.70603335563109
_cell_angle_beta     95.14055462751568
_cell_angle_gamma    96.98203149680775

_space_group_name_H-M_alt    "P 1"
_space_group_IT_number       1

loop_
  _space_group_symop_operation_xyz
  'x, y, z'

loop_
  _atom_site_type_symbol
  _atom_site_label
  _atom_site_symmetry_multiplicity
  _atom_site_fract_x
  _atom_site_fract_y
  _atom_site_fract_z
  _atom_site_occupancy
  Co  Co1       1.0  0.7630974650382996  0.48779675364494324  0.15947182476520538  1.0000
  Eu  Eu1       1.0  0.25863516330718994  0.21650919318199158  0.2622182071208954  1.0000
  Eu  Eu2       1.0  0.16565218567848206  0.16895079612731934  0.963630497455597  1.0000
  Eu  Eu3       1.0  0.7758359909057617  0.36400866508483887  0.9129083156585694  1.0000
  Eu  Eu4       1.0  0.24994415044784543  0.8125049471855164  0.2800268232822418  1.0000
  Eu  Eu5       1.0  0.20306791365146637  0.4542156755924225  0.331917405128479  1.0000
  Eu  Eu6       1.0  0.2571483254432678  0.7324011921882629  0.803954839706421  1.0000
  Eu  Eu7       1.0  0.7546389698982239  0.8279330134391785  0.16256262362003326  1.0000
  Eu  Eu8       1.0  0.7565532922744751  0.3714419901371002  0.14734038710594177  1.0000
  I   I1        1.0  0.05555593967437744  0.03828418627381325  0.3612592816352845  1.0000
  Se  Se1       1.0  0.2990422248840332  0.14300097525119781  0.17991214990615845  1.0000
