data_image0
_chemical_formula_structural       ClCo2Ge4I
_chemical_formula_sum              "Cl1 Co2 Ge4 I1"
_cell_length_a       6.323009622873733
_cell_length_b       6.3550774161065915
_cell_length_c       7.514531135559082
_cell_angle_alpha    90.58122941656933
_cell_angle_beta     91.09448577775085
_cell_angle_gamma    113.04403778744809

_space_group_name_H-M_alt    "P 1"
_space_group_IT_number       1

loop_
  _space_group_symop_operation_xyz
  'x, y, z'

loop_
  _atom_site_type_symbol
  _atom_site_label
  _atom_site_symmetry_multiplicity
  _atom_site_fract_x
  _atom_site_fract_y
  _atom_site_fract_z
  _atom_site_occupancy
  Cl  Cl1       1.0  0.2235935777425766  0.07819585502147675  0.8595832586288452  1.0000
  Co  Co1       1.0  0.835406482219696  0.7975710034370422  0.9531387090682983  1.0000
  Co  Co2       1.0  0.29759132862091064  0.1614782214164734  0.07548859715461731  1.0000
  Ge  Ge1       1.0  0.31039607524871826  0.6059730648994446  0.6313889622688293  1.0000
  Ge  Ge2       1.0  0.8176422119140625  0.5756937861442566  0.47580525279045105  1.0000
  Ge  Ge3       1.0  0.6964156627655029  0.20686058700084686  0.16904878616333008  1.0000
  Ge  Ge4       1.0  0.588081419467926  0.9019129872322083  0.6815584301948547  1.0000
  I   I1        1.0  0.21548910439014435  0.5202115178108215  0.37503960728645325  1.0000
