data_image0
_chemical_formula_structural       B5TcTe2
_chemical_formula_sum              "B5 Tc1 Te2"
_cell_length_a       5.408898495647991
_cell_length_b       5.628429853771578
_cell_length_c       8.159279823303223
_cell_angle_alpha    92.66376410783272
_cell_angle_beta     91.46529799340716
_cell_angle_gamma    107.866605852049

_space_group_name_H-M_alt    "P 1"
_space_group_IT_number       1

loop_
  _space_group_symop_operation_xyz
  'x, y, z'

loop_
  _atom_site_type_symbol
  _atom_site_label
  _atom_site_symmetry_multiplicity
  _atom_site_fract_x
  _atom_site_fract_y
  _atom_site_fract_z
  _atom_site_occupancy
  B   B1        1.0  0.4985650479793549  0.24798265099525452  0.9035887718200684  1.0000
  B   B2        1.0  0.051079314202070236  0.8807187676429749  0.751070499420166  1.0000
  B   B3        1.0  0.7600781321525574  0.47430819272994995  0.9826676845550537  1.0000
  B   B4        1.0  0.7721139788627625  0.6484851241111755  0.5142922401428223  1.0000
  B   B5        1.0  0.500129759311676  0.8174059391021729  0.7747342586517334  1.0000
  Tc  Tc1       1.0  0.4949242472648621  0.5104730725288391  0.6116931438446045  1.0000
  Te  Te1       1.0  0.009789802134037018  0.010172323323786259  0.6191121935844421  1.0000
  Te  Te2       1.0  0.025617368519306183  0.40748921036720276  0.5390939116477966  1.0000
