data_image0
_chemical_formula_structural       B4GeTe3
_chemical_formula_sum              "B4 Ge1 Te3"
_cell_length_a       4.565360247035613
_cell_length_b       4.236201470730099
_cell_length_c       8.81495475769043
_cell_angle_alpha    107.4359766321183
_cell_angle_beta     100.57228129624588
_cell_angle_gamma    97.7127261934085

_space_group_name_H-M_alt    "P 1"
_space_group_IT_number       1

loop_
  _space_group_symop_operation_xyz
  'x, y, z'

loop_
  _atom_site_type_symbol
  _atom_site_label
  _atom_site_symmetry_multiplicity
  _atom_site_fract_x
  _atom_site_fract_y
  _atom_site_fract_z
  _atom_site_occupancy
  B   B1        1.0  0.8972580432891846  0.30348119139671326  0.5927436351776123  1.0000
  B   B2        1.0  0.894563615322113  0.5982466340065002  0.2058488130569458  1.0000
  B   B3        1.0  0.34273263812065125  0.6633958220481873  0.5104544758796692  1.0000
  B   B4        1.0  0.5652427077293396  0.5592794418334961  0.7000548839569092  1.0000
  Ge  Ge1       1.0  0.06897772103548053  0.8302813172340394  0.3705635368824005  1.0000
  Te  Te1       1.0  0.38751256465911865  0.6373732686042786  0.7665090560913086  1.0000
  Te  Te2       1.0  0.3872336447238922  0.05402720347046853  0.7784920930862427  1.0000
  Te  Te3       1.0  0.8672351837158203  0.10050757229328157  0.2648329436779022  1.0000
