data_image0
_chemical_formula_structural       CoFGe5I
_chemical_formula_sum              "Co1 F1 Ge5 I1"
_cell_length_a       4.683649367521048
_cell_length_b       5.48453160953114
_cell_length_c       8.63595962524414
_cell_angle_alpha    88.76346305227248
_cell_angle_beta     89.87166745994683
_cell_angle_gamma    91.22235943106874

_space_group_name_H-M_alt    "P 1"
_space_group_IT_number       1

loop_
  _space_group_symop_operation_xyz
  'x, y, z'

loop_
  _atom_site_type_symbol
  _atom_site_label
  _atom_site_symmetry_multiplicity
  _atom_site_fract_x
  _atom_site_fract_y
  _atom_site_fract_z
  _atom_site_occupancy
  Co  Co1       1.0  0.45405298471450806  0.6917867064476013  0.8378507494926453  1.0000
  F   F1        1.0  0.6713892817497253  0.11956749111413956  0.10339026153087616  1.0000
  Ge  Ge1       1.0  0.17909416556358337  0.6418443918228149  0.7865616083145142  1.0000
  Ge  Ge2       1.0  0.18497413396835327  0.21862967312335968  0.19571088254451752  1.0000
  Ge  Ge3       1.0  0.6892213821411133  0.10701198875904083  0.845581591129303  1.0000
  Ge  Ge4       1.0  0.19866439700126648  0.897758960723877  0.5422040224075317  1.0000
  Ge  Ge5       1.0  0.7036659121513367  0.12102914601564407  0.02288091368973255  1.0000
  I   I1        1.0  0.1857331097126007  0.7338505387306213  0.9133126735687256  1.0000
