data_image0
_chemical_formula_structural       BGe5IU
_chemical_formula_sum              "B1 Ge5 I1 U1"
_cell_length_a       4.871779407976797
_cell_length_b       6.055888031888143
_cell_length_c       6.738203048706055
_cell_angle_alpha    89.00588799346383
_cell_angle_beta     89.97556647590834
_cell_angle_gamma    91.3806969326764

_space_group_name_H-M_alt    "P 1"
_space_group_IT_number       1

loop_
  _space_group_symop_operation_xyz
  'x, y, z'

loop_
  _atom_site_type_symbol
  _atom_site_label
  _atom_site_symmetry_multiplicity
  _atom_site_fract_x
  _atom_site_fract_y
  _atom_site_fract_z
  _atom_site_occupancy
  B   B1        1.0  0.5960391759872437  0.8261368274688721  0.21531757712364197  1.0000
  Ge  Ge1       1.0  0.6004056930541992  0.8253535032272339  0.1802016943693161  1.0000
  Ge  Ge2       1.0  0.10881160199642181  0.17875754833221436  0.2566199004650116  1.0000
  Ge  Ge3       1.0  0.603038489818573  0.7862107753753662  0.2694474756717682  1.0000
  Ge  Ge4       1.0  0.07518667727708817  0.1669873297214508  0.35698044300079346  1.0000
  Ge  Ge5       1.0  0.12218422442674637  0.038851577788591385  0.5458670258522034  1.0000
  I   I1        1.0  0.10131878405809402  0.24804052710533142  0.9369760155677795  1.0000
  U   U1        1.0  0.14014896750450134  0.4215271472930908  0.41054660081863403  1.0000
