data_image0
_chemical_formula_structural       BrP3PbSSr
_chemical_formula_sum              "Br1 P3 Pb1 S1 Sr1"
_cell_length_a       5.23089021592562
_cell_length_b       6.437748207794944
_cell_length_c       7.023135662078857
_cell_angle_alpha    105.25459240328053
_cell_angle_beta     90.08431572187915
_cell_angle_gamma    90.71578159731135

_space_group_name_H-M_alt    "P 1"
_space_group_IT_number       1

loop_
  _space_group_symop_operation_xyz
  'x, y, z'

loop_
  _atom_site_type_symbol
  _atom_site_label
  _atom_site_symmetry_multiplicity
  _atom_site_fract_x
  _atom_site_fract_y
  _atom_site_fract_z
  _atom_site_occupancy
  Br  Br1       1.0  0.13608567416667938  0.22508664429187775  0.29974263906478876  1.0000
  P   P1        1.0  0.6352214813232422  0.9590687155723572  0.26826879382133484  1.0000
  P   P2        1.0  0.05054643005132675  0.7135942578315735  0.9252316951751708  1.0000
  P   P3        1.0  0.889461874961853  0.20714730024337769  0.7407519221305846  1.0000
  Pb  Pb1       1.0  0.12792272865772247  0.4607914984226227  0.35052803158760065  1.0000
  S   S1        1.0  0.8163325786590576  0.07245680689811707  0.6192528605461122  1.0000
  Sr  Sr1       1.0  0.6042115688323975  0.8973819017410278  0.2419886440038681  1.0000
