data_image0
_chemical_formula_structural       P3Pb2STl
_chemical_formula_sum              "P3 Pb2 S1 Tl1"
_cell_length_a       5.782516363244094
_cell_length_b       6.118045251442327
_cell_length_c       6.458319187164307
_cell_angle_alpha    117.37811255884426
_cell_angle_beta     113.34567112283158
_cell_angle_gamma    89.8400062622002

_space_group_name_H-M_alt    "P 1"
_space_group_IT_number       1

loop_
  _space_group_symop_operation_xyz
  'x, y, z'

loop_
  _atom_site_type_symbol
  _atom_site_label
  _atom_site_symmetry_multiplicity
  _atom_site_fract_x
  _atom_site_fract_y
  _atom_site_fract_z
  _atom_site_occupancy
  P   P1        1.0  0.6664125323295593  0.5646159052848816  0.12272406369447708  1.0000
  P   P2        1.0  0.17479899525642395  0.17414239048957825  0.6281682252883911  1.0000
  P   P3        1.0  0.665408730506897  0.8864778876304626  0.6057460308074951  1.0000
  Pb  Pb1       1.0  0.8772220611572266  0.30671119689941406  0.4313678443431854  1.0000
  Pb  Pb2       1.0  0.15449677407741547  0.3453901410102844  0.8697057366371155  1.0000
  S   S1        1.0  0.8864284157752991  0.06496012210845947  0.12900015711784363  1.0000
  Tl  Tl1       1.0  0.3737853467464447  0.6800540089607239  0.11658155173063271  1.0000
