data_image0
_chemical_formula_structural       Cu2GaLu2NbO3Ru3S2Zn
_chemical_formula_sum              "Cu2 Ga1 Lu2 Nb1 O3 Ru3 S2 Zn1"
_cell_length_a       3.911018020460467
_cell_length_b       6.646332589811068
_cell_length_c       8.529930114746094
_cell_angle_alpha    89.4433575901581
_cell_angle_beta     89.802427697283
_cell_angle_gamma    90.7763408844169

_space_group_name_H-M_alt    "P 1"
_space_group_IT_number       1

loop_
  _space_group_symop_operation_xyz
  'x, y, z'

loop_
  _atom_site_type_symbol
  _atom_site_label
  _atom_site_symmetry_multiplicity
  _atom_site_fract_x
  _atom_site_fract_y
  _atom_site_fract_z
  _atom_site_occupancy
  Cu  Cu1       1.0  0.32014080882072443  0.04326547309756279  0.7680471539497375  1.0000
  Cu  Cu2       1.0  0.8225687146186828  0.6769185066223145  0.30919787287712097  1.0000
  Ga  Ga1       1.0  0.309148222208023  0.6802743673324585  0.20288482308387756  1.0000
  Lu  Lu1       1.0  0.8251581788063048  0.9071731567382814  0.34049761295318604  1.0000
  Lu  Lu2       1.0  0.3139691352844238  0.677812933921814  0.6185250282287598  1.0000
  Nb  Nb1       1.0  0.3275171220302581  0.15272125601768494  0.3397078812122345  1.0000
  O   O1        1.0  0.8110852241516112  0.43473950028419495  0.640768826007843  1.0000
  O   O2        1.0  0.30793762207031244  0.04021522030234337  0.1975056231021881  1.0000
  O   O3        1.0  0.29712060093879694  0.6940661072731018  0.3112252354621887  1.0000
  Ru  Ru1       1.0  0.8177133798599242  0.21200838685035706  0.705499529838562  1.0000
  Ru  Ru2       1.0  0.317099779844284  0.9162228107452394  0.7932389378547668  1.0000
  Ru  Ru3       1.0  0.8110576272010802  0.9165438413619996  0.7989664673805237  1.0000
  S   S1        1.0  0.32770067453384394  0.712337851524353  0.13865986466407776  1.0000
  S   S2        1.0  0.8488884568214415  0.6858724355697632  0.2886366844177246  1.0000
  Zn  Zn1       1.0  0.8120004534721373  0.2066047638654709  0.12743307650089264  1.0000
