data_image0
_chemical_formula_structural       Cu3FLuO4Ru3SZn2
_chemical_formula_sum              "Cu3 F1 Lu1 O4 Ru3 S1 Zn2"
_cell_length_a       5.233672023343745
_cell_length_b       6.679494513283917
_cell_length_c       7.032456874847412
_cell_angle_alpha    63.53852080981197
_cell_angle_beta     65.25210643900932
_cell_angle_gamma    66.64844744107982

_space_group_name_H-M_alt    "P 1"
_space_group_IT_number       1

loop_
  _space_group_symop_operation_xyz
  'x, y, z'

loop_
  _atom_site_type_symbol
  _atom_site_label
  _atom_site_symmetry_multiplicity
  _atom_site_fract_x
  _atom_site_fract_y
  _atom_site_fract_z
  _atom_site_occupancy
  Cu  Cu1       1.0  0.4026854932308197  0.3422827124595642  0.16859759390354154  1.0000
  Cu  Cu2       1.0  0.3036010265350342  0.5833608508110046  0.1262781172990799  1.0000
  Cu  Cu3       1.0  0.10778388381004333  0.4017696976661682  0.8191986680030822  1.0000
  F   F1        1.0  0.6460311412811279  0.5803486108779907  0.8512660861015319  1.0000
  Lu  Lu1       1.0  0.8432056307792664  0.7287415266036987  0.2570028603076935  1.0000
  O   O1        1.0  0.13480108976364136  0.398917555809021  0.02912875078618526  1.0000
  O   O2        1.0  0.10999858379364014  0.917547881603241  0.8689531087875365  1.0000
  O   O3        1.0  0.5363212823867798  0.07165466248989105  0.7440125346183776  1.0000
  O   O4        1.0  0.4355562925338745  0.04733996093273163  0.30397576093673706  1.0000
  Ru  Ru1       1.0  0.6281559467315674  0.4164564907550812  0.8739600777626036  1.0000
  Ru  Ru2       1.0  0.6184206604957581  0.413127601146698  0.8562440872192382  1.0000
  Ru  Ru3       1.0  0.13228599727153778  0.42327338457107544  0.5275288224220276  1.0000
  S   S1        1.0  0.9472118020057678  0.9496593475341797  0.5458040833473206  1.0000
  Zn  Zn1       1.0  0.7843809723854065  0.7455180287361145  0.6060629487037659  1.0000
  Zn  Zn2       1.0  0.08887728303670883  0.0925193578004837  0.569017767906189  1.0000
