data_image0
_chemical_formula_structural       CuLa2O4Ru6STl
_chemical_formula_sum              "Cu1 La2 O4 Ru6 S1 Tl1"
_cell_length_a       5.0304018538921
_cell_length_b       6.01380076856841
_cell_length_c       7.793669700622559
_cell_angle_alpha    89.68513233391718
_cell_angle_beta     89.39954793038753
_cell_angle_gamma    89.93690418579168

_space_group_name_H-M_alt    "P 1"
_space_group_IT_number       1

loop_
  _space_group_symop_operation_xyz
  'x, y, z'

loop_
  _atom_site_type_symbol
  _atom_site_label
  _atom_site_symmetry_multiplicity
  _atom_site_fract_x
  _atom_site_fract_y
  _atom_site_fract_z
  _atom_site_occupancy
  Cu  Cu1       1.0  0.663652241230011  0.12206040322780609  0.294890820980072  1.0000
  La  La1       1.0  0.3672984540462494  0.6500160694122314  0.9757627248764038  1.0000
  La  La2       1.0  0.6815188527107239  0.12074172496795654  0.794328510761261  1.0000
  O   O1        1.0  0.6455876231193542  0.9078908562660217  0.9661234617233276  1.0000
  O   O2        1.0  0.6766541004180908  0.8840181827545166  0.29447394609451294  1.0000
  O   O3        1.0  0.6303306818008423  0.7423155307769775  0.7559188008308411  1.0000
  O   O4        1.0  0.15654034912586212  0.09638580679893494  0.9268865585327148  1.0000
  Ru  Ru1       1.0  0.14677943289279938  0.6150960326194763  0.9656450748443604  1.0000
  Ru  Ru2       1.0  0.14592106640338898  0.5980387330055237  0.4166521728038788  1.0000
  Ru  Ru3       1.0  0.6513282656669617  0.3819290101528168  0.8237112760543823  1.0000
  Ru  Ru4       1.0  0.6515600681304932  0.3695859909057617  0.4674217402935028  1.0000
  Ru  Ru5       1.0  0.15548712015151978  0.10257113724946976  0.46435466408729553  1.0000
  Ru  Ru6       1.0  0.6624281406402588  0.8150342106819153  0.7335505485534668  1.0000
  S   S1        1.0  0.6805459260940552  0.7256092429161072  0.20326218008995056  1.0000
  Tl  Tl1       1.0  0.15468370914459229  0.29806458950042725  0.2005520761013031  1.0000
