data_image0
_chemical_formula_structural       CuLu5O3Ru3S2Zn
_chemical_formula_sum              "Cu1 Lu5 O3 Ru3 S2 Zn1"
_cell_length_a       6.037141761092537
_cell_length_b       6.594168080297689
_cell_length_c       6.94774866104126
_cell_angle_alpha    65.04130296960106
_cell_angle_beta     62.95658218175118
_cell_angle_gamma    61.884505919209126

_space_group_name_H-M_alt    "P 1"
_space_group_IT_number       1

loop_
  _space_group_symop_operation_xyz
  'x, y, z'

loop_
  _atom_site_type_symbol
  _atom_site_label
  _atom_site_symmetry_multiplicity
  _atom_site_fract_x
  _atom_site_fract_y
  _atom_site_fract_z
  _atom_site_occupancy
  Cu  Cu1       1.0  0.311912477016449  0.5793428421020508  0.08188419044017792  1.0000
  Lu  Lu1       1.0  0.45437368750572205  0.5820333957672119  0.7462090849876404  1.0000
  Lu  Lu2       1.0  0.3156130909919739  0.8614366054534912  0.5066623687744141  1.0000
  Lu  Lu3       1.0  0.887241005897522  0.9302979707717896  0.07953952997922897  1.0000
  Lu  Lu4       1.0  0.7683581709861755  0.08447728306055069  0.8733927011489868  1.0000
  Lu  Lu5       1.0  0.25917503237724304  0.5839982628822327  0.757503867149353  1.0000
  O   O1        1.0  0.703062891960144  0.8200995326042175  0.8133948445320129  1.0000
  O   O2        1.0  0.3621211647987366  0.8940145373344421  0.3052230179309845  1.0000
  O   O3        1.0  0.724182665348053  0.4074883759021759  0.5118556022644043  1.0000
  Ru  Ru1       1.0  0.06565676629543304  0.3950234353542328  0.3048391342163086  1.0000
  Ru  Ru2       1.0  0.37446534633636475  0.9039755463600159  0.5919463634490967  1.0000
  Ru  Ru3       1.0  0.3659130930900574  0.3900810182094574  0.2679060399532318  1.0000
  S   S1        1.0  0.11984644085168839  0.9088401198387146  0.6041216254234314  1.0000
  S   S2        1.0  0.31896087527275085  0.3500431478023529  0.49526032805442816  1.0000
  Zn  Zn1       1.0  0.8681297302246094  0.38844162225723267  0.33404022455215454  1.0000
