data_image0
_chemical_formula_structural       Ba2ClCuFGaLu2O2Ru4S
_chemical_formula_sum              "Ba2 Cl1 Cu1 F1 Ga1 Lu2 O2 Ru4 S1"
_cell_length_a       6.062072043390478
_cell_length_b       6.722252995536355
_cell_length_c       6.974465370178223
_cell_angle_alpha    64.31919419520145
_cell_angle_beta     62.05436293509261
_cell_angle_gamma    63.12062118782944

_space_group_name_H-M_alt    "P 1"
_space_group_IT_number       1

loop_
  _space_group_symop_operation_xyz
  'x, y, z'

loop_
  _atom_site_type_symbol
  _atom_site_label
  _atom_site_symmetry_multiplicity
  _atom_site_fract_x
  _atom_site_fract_y
  _atom_site_fract_z
  _atom_site_occupancy
  Ba  Ba1       1.0  0.848726749420166  0.20884282886981964  0.4584962725639343  1.0000
  Ba  Ba2       1.0  0.8529189229011536  0.8327108025550842  0.3743751645088196  1.0000
  Cl  Cl1       1.0  0.2196071892976761  0.5578793287277222  0.888187050819397  1.0000
  Cu  Cu1       1.0  0.21772076189517975  0.5500302314758301  0.8782946467399597  1.0000
  F   F1        1.0  0.39043354988098145  0.4570477604866027  0.12833116948604584  1.0000
  Ga  Ga1       1.0  0.14300625026226044  0.7538672089576721  0.6875455379486084  1.0000
  Lu  Lu1       1.0  0.35593560338020325  0.21088619530200958  0.3662688136100769  1.0000
  Lu  Lu2       1.0  0.651140034198761  0.6636636257171631  0.09252869337797165  1.0000
  O   O1        1.0  0.3603975474834442  0.4513890147209167  0.4021792709827423  1.0000
  O   O2        1.0  0.8407325148582458  0.20735961198806763  0.5080974698066711  1.0000
  Ru  Ru1       1.0  0.7176135182380676  0.5287080407142639  0.3917088210582733  1.0000
  Ru  Ru2       1.0  0.21465860307216644  0.053712692111730576  0.9588115215301514  1.0000
  Ru  Ru3       1.0  0.05570993199944496  0.7568278312683105  0.8398604393005372  1.0000
  Ru  Ru4       1.0  0.4459187686443329  0.16412483155727386  0.6146399974822998  1.0000
  S   S1        1.0  0.8570718765258789  0.7000171542167664  0.12214705348014832  1.0000
