data_image0
_chemical_formula_structural       CuGaLaO4Ru6S2
_chemical_formula_sum              "Cu1 Ga1 La1 O4 Ru6 S2"
_cell_length_a       5.18597272711521
_cell_length_b       5.819511405123174
_cell_length_c       7.434511184692383
_cell_angle_alpha    89.7027183496969
_cell_angle_beta     89.99319912493249
_cell_angle_gamma    89.93153082857418

_space_group_name_H-M_alt    "P 1"
_space_group_IT_number       1

loop_
  _space_group_symop_operation_xyz
  'x, y, z'

loop_
  _atom_site_type_symbol
  _atom_site_label
  _atom_site_symmetry_multiplicity
  _atom_site_fract_x
  _atom_site_fract_y
  _atom_site_fract_z
  _atom_site_occupancy
  Cu  Cu1       1.0  0.36113476753234863  0.5481141805648804  0.22326390445232389  1.0000
  Ga  Ga1       1.0  0.37346261739730835  0.31568819284439087  0.17221954464912415  1.0000
  La  La1       1.0  0.9094534516334534  0.011657891795039177  0.638339638710022  1.0000
  O   O1        1.0  0.3567631244659424  0.5603902339935303  0.06774692237377167  1.0000
  O   O2        1.0  0.17163187265396118  0.40802648663520813  0.5082353353500366  1.0000
  O   O3        1.0  0.3595956563949585  0.5184688568115234  0.8504089713096619  1.0000
  O   O4        1.0  0.8542980551719663  0.9792428612709047  0.14626289904117584  1.0000
  Ru  Ru1       1.0  0.853658139705658  0.5473347306251526  0.3518655598163605  1.0000
  Ru  Ru2       1.0  0.8542973399162292  0.9850555658340455  0.7103650569915771  1.0000
  Ru  Ru3       1.0  0.8769315481185913  0.1323927789926529  0.8998692631721495  1.0000
  Ru  Ru4       1.0  0.3586574196815491  0.056165385991334915  0.35533595085144043  1.0000
  Ru  Ru5       1.0  0.8545263409614563  0.5474531650543213  0.00013768672943115234  1.0000
  Ru  Ru6       1.0  0.35833558440208435  0.04467201232910156  0.5530117750167847  1.0000
  S   S1        1.0  0.3458588123321533  0.4812798500061035  0.18950313329696655  1.0000
  S   S2        1.0  0.05248240754008293  0.8160423636436462  0.009597652591764927  1.0000
