data_image0
_chemical_formula_structural       GeHLi7Ni2Sc
_chemical_formula_sum              "Ge1 H1 Li7 Ni2 Sc1"
_cell_length_a       5.628913713245778
_cell_length_b       5.452797054271474
_cell_length_c       5.518024921417236
_cell_angle_alpha    74.8637371240958
_cell_angle_beta     73.89100946124661
_cell_angle_gamma    70.7944412321825

_space_group_name_H-M_alt    "P 1"
_space_group_IT_number       1

loop_
  _space_group_symop_operation_xyz
  'x, y, z'

loop_
  _atom_site_type_symbol
  _atom_site_label
  _atom_site_symmetry_multiplicity
  _atom_site_fract_x
  _atom_site_fract_y
  _atom_site_fract_z
  _atom_site_occupancy
  Ge  Ge1       1.0  0.16429917514324188  0.9191855788230896  0.42625892162323  1.0000
  H   H1        1.0  0.6463174223899841  0.10638228058815002  0.6375534534454346  1.0000
  Li  Li1       1.0  0.13963457942008972  0.9127630591392517  0.12795776128768924  1.0000
  Li  Li2       1.0  0.15286490321159363  0.4216752350330353  0.6449552774429321  1.0000
  Li  Li3       1.0  0.636695146560669  0.3557341396808624  0.7681514620780945  1.0000
  Li  Li4       1.0  0.14081837236881256  0.5142048001289368  0.5639258027076721  1.0000
  Li  Li5       1.0  0.6390336751937866  0.6163570284843445  0.738027036190033  1.0000
  Li  Li6       1.0  0.6401811242103577  0.9018179774284363  0.7554351687431335  1.0000
  Li  Li7       1.0  0.18554499745368958  0.810555100440979  0.3563780188560486  1.0000
  Ni  Ni1       1.0  0.6441516280174255  0.04851018637418747  0.23108235001564026  1.0000
  Ni  Ni2       1.0  0.1599673628807068  0.47253814339637756  0.05360882729291916  1.0000
  Sc  Sc1       1.0  0.6406745910644531  0.13793975114822388  0.12891983985900882  1.0000
