data_image0
_chemical_formula_structural       CoGe2H2Li3P2PbPt
_chemical_formula_sum              "Co1 Ge2 H2 Li3 P2 Pb1 Pt1"
_cell_length_a       5.1033374525200665
_cell_length_b       6.177839855005892
_cell_length_c       6.787799835205078
_cell_angle_alpha    115.57074548251397
_cell_angle_beta     90.47921780839985
_cell_angle_gamma    87.873448223212

_space_group_name_H-M_alt    "P 1"
_space_group_IT_number       1

loop_
  _space_group_symop_operation_xyz
  'x, y, z'

loop_
  _atom_site_type_symbol
  _atom_site_label
  _atom_site_symmetry_multiplicity
  _atom_site_fract_x
  _atom_site_fract_y
  _atom_site_fract_z
  _atom_site_occupancy
  Co  Co1       1.0  0.5016197562217712  0.42545598745346075  0.07437085360288624  1.0000
  Ge  Ge1       1.0  0.5002155303955078  0.8863797783851625  0.4461280405521393  1.0000
  Ge  Ge2       1.0  0.50510573387146  0.06478121876716614  0.7110349535942078  1.0000
  H   H1        1.0  0.5147697329521179  0.5168176293373108  0.6960760354995728  1.0000
  H   H2        1.0  0.0023757219314575187  0.11144058406352998  0.057463258504867554  1.0000
  Li  Li1       1.0  0.5117899775505066  0.719677746295929  0.3438878357410431  1.0000
  Li  Li2       1.0  0.01420743018388748  0.16495509445667267  0.22448566555976868  1.0000
  Li  Li3       1.0  0.010731789283454418  0.1577012687921524  0.4415853023529053  1.0000
  P   P1        1.0  0.006996119860559696  0.9798348546028138  0.14169473946094513  1.0000
  P   P2        1.0  0.5023751258850098  0.5920199751853943  0.05269341170787811  1.0000
  Pb  Pb1       1.0  0.0031672716140747053  0.1884148418903351  0.9483829140663147  1.0000
  Pt  Pt1       1.0  0.003732919692993161  0.42240396142005926  0.3637351989746094  1.0000
