data_image0
_chemical_formula_structural       Ge2H3Li3NiPZnZr
_chemical_formula_sum              "Ge2 H3 Li3 Ni1 P1 Zn1 Zr1"
_cell_length_a       4.739549255620584
_cell_length_b       5.012666583908199
_cell_length_c       5.5621724128723145
_cell_angle_alpha    88.75419056950832
_cell_angle_beta     89.61345346780493
_cell_angle_gamma    89.67370255122263

_space_group_name_H-M_alt    "P 1"
_space_group_IT_number       1

loop_
  _space_group_symop_operation_xyz
  'x, y, z'

loop_
  _atom_site_type_symbol
  _atom_site_label
  _atom_site_symmetry_multiplicity
  _atom_site_fract_x
  _atom_site_fract_y
  _atom_site_fract_z
  _atom_site_occupancy
  Ge  Ge1       1.0  0.3407747447490692  0.8675380349159241  0.34129601716995245  1.0000
  Ge  Ge2       1.0  0.8946846723556519  0.3677961826324463  0.954196333885193  1.0000
  H   H1        1.0  0.03663111478090286  0.5142335891723633  0.06888122111558914  1.0000
  H   H2        1.0  0.8766263127326965  0.08509545773267746  0.9405993223190309  1.0000
  H   H3        1.0  0.37850654125213623  0.9378567337989807  0.7465415000915527  1.0000
  Li  Li1       1.0  0.36824682354927063  0.6210700869560242  0.6330878138542175  1.0000
  Li  Li2       1.0  0.35762178897857666  0.9925653338432312  0.9853931665420533  1.0000
  Li  Li3       1.0  0.8617807030677795  0.07840408384799957  0.5525529980659485  1.0000
  Ni  Ni1       1.0  0.5512188673019409  0.10031116753816605  0.3986487090587616  1.0000
  P   P1        1.0  0.8595142364501953  0.14007334411144257  0.7062593698501587  1.0000
  Zn  Zn1       1.0  0.5523180365562439  0.41552606225013733  0.2680215537548065  1.0000
  Zr  Zr1       1.0  0.5472187995910645  0.8267553448677063  0.42087891697883606  1.0000
