data_image0
_chemical_formula_structural       BCaF2GeH2Li4Ni
_chemical_formula_sum              "B1 Ca1 F2 Ge1 H2 Li4 Ni1"
_cell_length_a       4.860983228722377
_cell_length_b       4.187643877740627
_cell_length_c       4.904384613037109
_cell_angle_alpha    60.47047007026757
_cell_angle_beta     57.86456636257676
_cell_angle_gamma    58.866705012468834

_space_group_name_H-M_alt    "P 1"
_space_group_IT_number       1

loop_
  _space_group_symop_operation_xyz
  'x, y, z'

loop_
  _atom_site_type_symbol
  _atom_site_label
  _atom_site_symmetry_multiplicity
  _atom_site_fract_x
  _atom_site_fract_y
  _atom_site_fract_z
  _atom_site_occupancy
  B   B1        1.0  0.41130176186561584  0.2026786357164383  0.1420096755027771  1.0000
  Ca  Ca1       1.0  0.8717043399810791  0.8436878323554993  0.26759159564971924  1.0000
  F   F1        1.0  0.21553213894367218  0.8080151677131653  0.7431711554527283  1.0000
  F   F2        1.0  0.8074169754981995  0.6530761122703552  0.5848501920700073  1.0000
  Ge  Ge1       1.0  0.49029862880706787  0.814190149307251  0.016338594257831573  1.0000
  H   H1        1.0  0.07764621824026108  0.3193349242210388  0.5184709429740906  1.0000
  H   H2        1.0  0.2381208837032318  0.029652805998921394  0.8763084411621094  1.0000
  Li  Li1       1.0  0.946755588054657  0.32168248295783997  0.9104994535446166  1.0000
  Li  Li2       1.0  0.315187007188797  0.6010647416114807  0.3641393184661865  1.0000
  Li  Li3       1.0  0.7285988926887512  0.720669686794281  0.9259860515594481  1.0000
  Li  Li4       1.0  0.5267651677131653  0.21143314242362976  0.22827982902526858  1.0000
  Ni  Ni1       1.0  0.745885968208313  0.5145497918128967  0.20645932853221893  1.0000
