data_image0
_chemical_formula_structural       B2HLi7Ni2
_chemical_formula_sum              "B2 H1 Li7 Ni2"
_cell_length_a       5.057047513046716
_cell_length_b       4.720469385924484
_cell_length_c       5.128259181976318
_cell_angle_alpha    60.06645711613581
_cell_angle_beta     62.66569768194548
_cell_angle_gamma    56.54325735338574

_space_group_name_H-M_alt    "P 1"
_space_group_IT_number       1

loop_
  _space_group_symop_operation_xyz
  'x, y, z'

loop_
  _atom_site_type_symbol
  _atom_site_label
  _atom_site_symmetry_multiplicity
  _atom_site_fract_x
  _atom_site_fract_y
  _atom_site_fract_z
  _atom_site_occupancy
  B   B1        1.0  0.17219220101833338  0.8956651687622071  0.5669248104095459  1.0000
  B   B2        1.0  0.675892174243927  0.2594318091869354  0.9756792187690735  1.0000
  H   H1        1.0  0.674493670463562  0.4773739874362946  0.5260706543922424  1.0000
  Li  Li1       1.0  0.1432044506072998  0.5404064655303955  0.1389981359243393  1.0000
  Li  Li2       1.0  0.15081553161144254  0.4821751415729523  0.42331624031066895  1.0000
  Li  Li3       1.0  0.1546452939510345  0.9785768985748292  0.13780736923217773  1.0000
  Li  Li4       1.0  0.15323954820632935  0.27074775099754333  0.36632129549980164  1.0000
  Li  Li5       1.0  0.6647107005119324  0.255672812461853  0.5949597954750061  1.0000
  Li  Li6       1.0  0.16126075387001038  0.20070263743400577  0.16320136189460754  1.0000
  Li  Li7       1.0  0.6627336740493774  0.028274899348616604  0.21702627837657928  1.0000
  Ni  Ni1       1.0  0.6626741886138916  0.2299395948648453  0.8411610126495361  1.0000
  Ni  Ni2       1.0  0.6499747037887573  0.0681716725230217  0.0324398465454578  1.0000
