data_image0
_chemical_formula_structural       H2Li6Ni2P2
_chemical_formula_sum              "H2 Li6 Ni2 P2"
_cell_length_a       4.092576838978073
_cell_length_b       4.1675611645011275
_cell_length_c       4.197107315063477
_cell_angle_alpha    102.30353569149759
_cell_angle_beta     101.19974064600328
_cell_angle_gamma    85.55802757670072

_space_group_name_H-M_alt    "P 1"
_space_group_IT_number       1

loop_
  _space_group_symop_operation_xyz
  'x, y, z'

loop_
  _atom_site_type_symbol
  _atom_site_label
  _atom_site_symmetry_multiplicity
  _atom_site_fract_x
  _atom_site_fract_y
  _atom_site_fract_z
  _atom_site_occupancy
  H   H1        1.0  0.926192581653595  0.25057920813560486  0.1615886092185974  1.0000
  H   H2        1.0  0.6041663885116577  0.943318784236908  0.27548179030418396  1.0000
  Li  Li1       1.0  0.08571949601173401  0.7061017751693726  0.7384750247001648  1.0000
  Li  Li2       1.0  0.4255104660987854  0.3013506531715393  0.19989657402038574  1.0000
  Li  Li3       1.0  0.7889060378074646  0.4968612790107727  0.6184266209602356  1.0000
  Li  Li4       1.0  0.825767993927002  0.6176983118057251  0.7944026589393616  1.0000
  Li  Li5       1.0  0.942928671836853  0.6617593765258789  0.4739518165588379  1.0000
  Li  Li6       1.0  0.4223772883415222  0.12066039443016052  0.4956296980381012  1.0000
  Ni  Ni1       1.0  0.5908329486846924  0.4576915502548218  0.37767350673675537  1.0000
  Ni  Ni2       1.0  0.09055157005786896  0.17401424050331116  0.5338671803474426  1.0000
  P   P1        1.0  0.08359305560588837  0.5839139223098755  0.7062670588493347  1.0000
  P   P2        1.0  0.5973923206329346  0.35202887654304504  0.643024206161499  1.0000
