data_image0
_chemical_formula_structural       In3PbV3
_chemical_formula_sum              "In3 Pb1 V3"
_cell_length_a       4.687830490615412
_cell_length_b       4.208210446290044
_cell_length_c       7.58765172958374
_cell_angle_alpha    88.85071149871766
_cell_angle_beta     89.93119326854804
_cell_angle_gamma    128.76490651299486

_space_group_name_H-M_alt    "P 1"
_space_group_IT_number       1

loop_
  _space_group_symop_operation_xyz
  'x, y, z'

loop_
  _atom_site_type_symbol
  _atom_site_label
  _atom_site_symmetry_multiplicity
  _atom_site_fract_x
  _atom_site_fract_y
  _atom_site_fract_z
  _atom_site_occupancy
  In  In1       1.0  0.5681319832801819  0.22025591135025024  0.38789838552474976  1.0000
  In  In2       1.0  0.2802278697490692  0.6306471228599548  0.650198221206665  1.0000
  In  In3       1.0  0.48196056485176086  0.5209730863571167  0.9621250033378601  1.0000
  Pb  Pb1       1.0  0.8041485548019409  0.05128435045480728  0.926410436630249  1.0000
  V   V1        1.0  0.05396399274468422  0.7938053607940674  0.4462936520576477  1.0000
  V   V2        1.0  0.7844902873039246  0.028846818953752518  0.15812955796718597  1.0000
  V   V3        1.0  0.5470284223556519  0.7763165235519409  0.8890241384506226  1.0000
