data_image0
_chemical_formula_structural       In6V
_chemical_formula_sum              "In6 V1"
_cell_length_a       3.8338807318003405
_cell_length_b       4.32365475691916
_cell_length_c       7.854766368865967
_cell_angle_alpha    89.75074656476475
_cell_angle_beta     89.92916544939652
_cell_angle_gamma    121.60225255131478

_space_group_name_H-M_alt    "P 1"
_space_group_IT_number       1

loop_
  _space_group_symop_operation_xyz
  'x, y, z'

loop_
  _atom_site_type_symbol
  _atom_site_label
  _atom_site_symmetry_multiplicity
  _atom_site_fract_x
  _atom_site_fract_y
  _atom_site_fract_z
  _atom_site_occupancy
  In  In1       1.0  0.10622126609087001  0.9964200854301454  0.4688467383384704  1.0000
  In  In2       1.0  0.37192755937576305  0.9168708920478822  0.6557717323303223  1.0000
  In  In3       1.0  0.6061031222343445  0.4185146093368531  0.8534593582153319  1.0000
  In  In4       1.0  0.6124922037124634  0.5000348091125488  0.049628794193267815  1.0000
  In  In5       1.0  0.5506948232650757  0.7521324157714845  0.1629822850227356  1.0000
  In  In6       1.0  0.11493579298257828  0.6098907589912415  0.384920060634613  1.0000
  V   V1        1.0  0.5986682772636414  0.7240217924118042  0.8853125572204589  1.0000
