data_image0
_chemical_formula_structural       P2Pb4Sr
_chemical_formula_sum              "P2 Pb4 Sr1"
_cell_length_a       4.842379027570096
_cell_length_b       5.491798608569476
_cell_length_c       7.715843677520752
_cell_angle_alpha    89.51369518406747
_cell_angle_beta     91.71366710832369
_cell_angle_gamma    90.66269104934157

_space_group_name_H-M_alt    "P 1"
_space_group_IT_number       1

loop_
  _space_group_symop_operation_xyz
  'x, y, z'

loop_
  _atom_site_type_symbol
  _atom_site_label
  _atom_site_symmetry_multiplicity
  _atom_site_fract_x
  _atom_site_fract_y
  _atom_site_fract_z
  _atom_site_occupancy
  P   P1        1.0  0.34467723965644836  0.46809080243110657  0.6481865048408508  1.0000
  P   P2        1.0  0.8487355709075928  0.1758141964673996  0.7200461626052856  1.0000
  Pb  Pb1       1.0  0.858491837978363  0.8813958168029785  0.7851553559303284  1.0000
  Pb  Pb2       1.0  0.33822765946388245  0.30926308035850525  0.8013770580291748  1.0000
  Pb  Pb3       1.0  0.2831595838069916  0.7084425091743469  0.024418629705905914  1.0000
  Pb  Pb4       1.0  0.8395124673843384  0.5734425187110901  0.39224401116371155  1.0000
  Sr  Sr1       1.0  0.8260758519172668  0.3923690915107727  0.7208631038665771  1.0000
