data_image0
_chemical_formula_structural       HO3V2
_chemical_formula_sum              "H1 O3 V2"
_cell_length_a       3.97949534232421
_cell_length_b       2.718374910738002
_cell_length_c       5.197423934936523
_cell_angle_alpha    121.62302904633779
_cell_angle_beta     111.27144251185602
_cell_angle_gamma    102.16083185870455

_space_group_name_H-M_alt    "P 1"
_space_group_IT_number       1

loop_
  _space_group_symop_operation_xyz
  'x, y, z'

loop_
  _atom_site_type_symbol
  _atom_site_label
  _atom_site_symmetry_multiplicity
  _atom_site_fract_x
  _atom_site_fract_y
  _atom_site_fract_z
  _atom_site_occupancy
  H   H1        1.0  0.5490313172340393  0.9725802540779114  0.7946654558181763  1.0000
  O   O1        1.0  0.18852625787258148  0.3829168379306793  0.7941281199455261  1.0000
  O   O2        1.0  0.9338286519050599  0.7152960300445557  0.16199474036693573  1.0000
  O   O3        1.0  0.08403892815113068  0.9753097295761108  0.8454753160476685  1.0000
  V   V1        1.0  0.8363636136054994  0.012505456805229187  0.2976973652839661  1.0000
  V   V2        1.0  0.8859894871711732  0.3969448208808899  0.07759533077478413  1.0000
