data_image0
_chemical_formula_structural       O2V4
_chemical_formula_sum              "O2 V4"
_cell_length_a       3.0626457128863267
_cell_length_b       4.509446399068798
_cell_length_c       4.956789016723633
_cell_angle_alpha    119.33450165287401
_cell_angle_beta     84.93478923813976
_cell_angle_gamma    88.32901858945047

_space_group_name_H-M_alt    "P 1"
_space_group_IT_number       1

loop_
  _space_group_symop_operation_xyz
  'x, y, z'

loop_
  _atom_site_type_symbol
  _atom_site_label
  _atom_site_symmetry_multiplicity
  _atom_site_fract_x
  _atom_site_fract_y
  _atom_site_fract_z
  _atom_site_occupancy
  O   O1        1.0  0.7627590894699097  0.7240133285522462  0.029573772102594466  1.0000
  O   O2        1.0  0.3022133409976959  0.13249003887176514  0.9013329744338989  1.0000
  V   V1        1.0  0.2685635983943939  0.22584956884384158  0.026657471433281933  1.0000
  V   V2        1.0  0.7702903151512146  0.717253863811493  0.692109525203705  1.0000
  V   V3        1.0  0.7809503674507141  0.09922045469284059  0.08457746356725694  1.0000
  V   V4        1.0  0.2831139862537384  0.12670943140983582  0.21623846888542175  1.0000
