data_image0
_chemical_formula_structural       GaHIn6NPtZn
_chemical_formula_sum              "Ga1 H1 In6 N1 Pt1 Zn1"
_cell_length_a       5.59097487322757
_cell_length_b       5.243415816570613
_cell_length_c       9.106595039367676
_cell_angle_alpha    91.67947779981533
_cell_angle_beta     89.75968151091969
_cell_angle_gamma    129.19605502897306

_space_group_name_H-M_alt    "P 1"
_space_group_IT_number       1

loop_
  _space_group_symop_operation_xyz
  'x, y, z'

loop_
  _atom_site_type_symbol
  _atom_site_label
  _atom_site_symmetry_multiplicity
  _atom_site_fract_x
  _atom_site_fract_y
  _atom_site_fract_z
  _atom_site_occupancy
  Ga  Ga1       1.0  0.7217022776603699  0.4455651640892029  0.6628081798553467  1.0000
  H   H1        1.0  0.24963760375976562  0.9675536751747131  0.09200911968946457  1.0000
  In  In1       1.0  0.8129715919494629  0.16294988989830017  0.24762111902236938  1.0000
  In  In2       1.0  0.2454034984111786  0.004786137491464615  0.8707273602485657  1.0000
  In  In3       1.0  0.5011876225471497  0.8927772045135498  0.31743478775024414  1.0000
  In  In4       1.0  0.026559140533208847  0.9298307299613953  0.6834413409233093  1.0000
  In  In5       1.0  0.3025084435939789  0.03071407787501812  0.7606417536735535  1.0000
  In  In6       1.0  0.7757731080055237  0.13077129423618317  0.9847321510314941  1.0000
  N   N1        1.0  0.9778632521629333  0.5812184810638428  0.332635223865509  1.0000
  Pt  Pt1       1.0  0.45421046018600464  0.8623579144477844  0.9700283408164978  1.0000
  Zn  Zn1       1.0  0.2569095492362976  0.003426436334848404  0.36103540658950806  1.0000
