data_image0
_chemical_formula_structural       FIn9Zr
_chemical_formula_sum              "F1 In9 Zr1"
_cell_length_a       5.0028337399744895
_cell_length_b       5.152141253217196
_cell_length_c       10.077220916748047
_cell_angle_alpha    80.87276491501622
_cell_angle_beta     80.39547006686486
_cell_angle_gamma    76.16920192655448

_space_group_name_H-M_alt    "P 1"
_space_group_IT_number       1

loop_
  _space_group_symop_operation_xyz
  'x, y, z'

loop_
  _atom_site_type_symbol
  _atom_site_label
  _atom_site_symmetry_multiplicity
  _atom_site_fract_x
  _atom_site_fract_y
  _atom_site_fract_z
  _atom_site_occupancy
  F   F1        1.0  0.7243900299072266  0.8325017094612122  0.977993369102478  1.0000
  In  In1       1.0  0.9672985672950745  0.11279323697090149  0.5370093584060669  1.0000
  In  In2       1.0  0.4841241240501404  0.8944982886314392  0.4093807339668274  1.0000
  In  In3       1.0  0.7325303554534912  0.8134574890136719  0.8913323283195496  1.0000
  In  In4       1.0  0.22973431646823883  0.8848992586135864  0.6743576526641846  1.0000
  In  In5       1.0  0.2335803508758545  0.2341701090335846  0.9577251076698303  1.0000
  In  In6       1.0  0.48428797721862793  0.7889023423194885  0.6525586247444153  1.0000
  In  In7       1.0  0.21895456314086914  0.7577225565910339  0.057930126786231995  1.0000
  In  In8       1.0  0.48804256319999695  0.8877792954444885  0.5684159994125366  1.0000
  In  In9       1.0  0.9745710492134094  0.691156268119812  0.3153088092803955  1.0000
  Zr  Zr1       1.0  0.7609308362007141  0.1949761062860489  0.09571350365877151  1.0000
