data_image0
_chemical_formula_structural       In8NdPd2
_chemical_formula_sum              "In8 Nd1 Pd2"
_cell_length_a       4.253971360494528
_cell_length_b       5.4792560364416145
_cell_length_c       7.311841011047363
_cell_angle_alpha    70.09978780503006
_cell_angle_beta     71.97873541903866
_cell_angle_gamma    74.42433282142353

_space_group_name_H-M_alt    "P 1"
_space_group_IT_number       1

loop_
  _space_group_symop_operation_xyz
  'x, y, z'

loop_
  _atom_site_type_symbol
  _atom_site_label
  _atom_site_symmetry_multiplicity
  _atom_site_fract_x
  _atom_site_fract_y
  _atom_site_fract_z
  _atom_site_occupancy
  In  In1       1.0  0.5083175301551819  0.9076547622680664  0.45529770851135254  1.0000
  In  In2       1.0  0.1162424087524414  0.9130918979644775  0.07776594907045367  1.0000
  In  In3       1.0  0.8393000960350037  0.9771695137023926  0.8710787892341614  1.0000
  In  In4       1.0  0.8780664801597595  0.9799532890319824  0.7677001357078552  1.0000
  In  In5       1.0  0.8376672863960266  0.4173680543899536  0.06024540960788723  1.0000
  In  In6       1.0  0.6154553294181824  0.6569437384605408  0.48525866866111755  1.0000
  In  In7       1.0  0.096246637403965  0.44686615467071533  0.03794479742646217  1.0000
  In  In8       1.0  0.09488222002983093  0.7545816898345947  0.46528762578964233  1.0000
  Nd  Nd1       1.0  0.09949854016304016  0.6261740326881409  0.4084147810935974  1.0000
  Pd  Pd1       1.0  0.16561676561832428  0.32207274436950684  0.8731540441513062  1.0000
  Pd  Pd2       1.0  0.6104397773742676  0.5421302318572998  0.9715873599052429  1.0000
