data_image0
_chemical_formula_structural       In11
_chemical_formula_sum              "In11"
_cell_length_a       5.122406671524217
_cell_length_b       5.504074720089892
_cell_length_c       8.706418991088867
_cell_angle_alpha    89.05395577082842
_cell_angle_beta     88.89481964325024
_cell_angle_gamma    112.06708832742822

_space_group_name_H-M_alt    "P 1"
_space_group_IT_number       1

loop_
  _space_group_symop_operation_xyz
  'x, y, z'

loop_
  _atom_site_type_symbol
  _atom_site_label
  _atom_site_symmetry_multiplicity
  _atom_site_fract_x
  _atom_site_fract_y
  _atom_site_fract_z
  _atom_site_occupancy
  In  In1       1.0  0.4324491620063782  0.5700535774230957  0.5626009106636047  1.0000
  In  In2       1.0  0.41359806060791016  0.13410316407680511  0.13565154373645782  1.0000
  In  In3       1.0  0.9237927794456482  0.927184820175171  0.6057077646255493  1.0000
  In  In4       1.0  0.4260529577732086  0.7322818040847778  0.8166499137878418  1.0000
  In  In5       1.0  0.4322608411312103  0.5616936087608337  0.3919268846511841  1.0000
  In  In6       1.0  0.9320852160453796  0.8740464448928834  0.7628645300865173  1.0000
  In  In7       1.0  0.40851181745529175  0.2619950771331787  0.6165218353271484  1.0000
  In  In8       1.0  0.9048738479614258  0.7387707233428955  0.44035208225250244  1.0000
  In  In9       1.0  0.9129520058631897  0.6858127117156982  0.48640045523643494  1.0000
  In  In10      1.0  0.4254688322544098  0.7203026413917542  0.25912201404571533  1.0000
  In  In11      1.0  0.9109598398208618  0.22244599461555484  0.6715893149375916  1.0000
