data_image0
_chemical_formula_structural       GaHIn9
_chemical_formula_sum              "Ga1 H1 In9"
_cell_length_a       4.348259325359388
_cell_length_b       5.263869885692808
_cell_length_c       7.368668079376221
_cell_angle_alpha    88.68486470515079
_cell_angle_beta     89.15242573734925
_cell_angle_gamma    105.53230275238055

_space_group_name_H-M_alt    "P 1"
_space_group_IT_number       1

loop_
  _space_group_symop_operation_xyz
  'x, y, z'

loop_
  _atom_site_type_symbol
  _atom_site_label
  _atom_site_symmetry_multiplicity
  _atom_site_fract_x
  _atom_site_fract_y
  _atom_site_fract_z
  _atom_site_occupancy
  Ga  Ga1       1.0  0.590878427028656  0.22756682336330414  0.11478635668754578  1.0000
  H   H1        1.0  0.6360757350921631  0.9140194654464722  0.8255257606506348  1.0000
  In  In1       1.0  0.5948656797409058  0.24664455652236938  0.6359378695487976  1.0000
  In  In2       1.0  0.1033119261264801  0.3138970732688904  0.6090565323829651  1.0000
  In  In3       1.0  0.6012851595878601  0.8237089514732361  0.23932698369026184  1.0000
  In  In4       1.0  0.07625233381986618  0.988610565662384  0.2629714608192444  1.0000
  In  In5       1.0  0.08931174129247665  0.2236732542514801  0.71656334400177  1.0000
  In  In6       1.0  0.08631512522697449  0.8237711191177368  0.49592849612236023  1.0000
  In  In7       1.0  0.0919916182756424  0.07611870020627975  0.8052281737327576  1.0000
  In  In8       1.0  0.5887088775634766  0.7329005002975464  0.12376675009727478  1.0000
  In  In9       1.0  0.5765351057052612  0.3943764567375183  0.6218764781951904  1.0000
