data_image0
_chemical_formula_structural       In10Nd
_chemical_formula_sum              "In10 Nd1"
_cell_length_a       5.525701930687593
_cell_length_b       6.457854369160598
_cell_length_c       7.227046012878418
_cell_angle_alpha    67.45526014835475
_cell_angle_beta     66.76275205813728
_cell_angle_gamma    68.14599981537515

_space_group_name_H-M_alt    "P 1"
_space_group_IT_number       1

loop_
  _space_group_symop_operation_xyz
  'x, y, z'

loop_
  _atom_site_type_symbol
  _atom_site_label
  _atom_site_symmetry_multiplicity
  _atom_site_fract_x
  _atom_site_fract_y
  _atom_site_fract_z
  _atom_site_occupancy
  In  In1       1.0  0.3141344487667084  0.6696162223815918  0.20517353713512423  1.0000
  In  In2       1.0  0.9711484313011169  0.4889923334121704  0.8082451820373536  1.0000
  In  In3       1.0  0.0018707134295254946  0.7310509085655212  0.04794108122587201  1.0000
  In  In4       1.0  0.9813002943992615  0.34438109397888184  0.3245459198951721  1.0000
  In  In5       1.0  0.8535248637199402  0.82291579246521  0.47456580400466924  1.0000
  In  In6       1.0  0.5083892941474915  0.7499521970748901  0.5887837409973145  1.0000
  In  In7       1.0  0.5118051767349243  0.16166901588439941  0.47690623998641973  1.0000
  In  In8       1.0  0.5384489297866821  0.07990632206201553  0.19798423349857333  1.0000
  In  In9       1.0  0.4732014536857605  0.4998723268508911  0.3126353621482849  1.0000
  In  In10      1.0  0.01600678451359272  0.2163582146167755  0.04089691862463951  1.0000
  Nd  Nd1       1.0  0.502265453338623  0.7839076519012451  0.3365267813205719  1.0000
