data_image0
_chemical_formula_structural       F2Fe2GeK2MoO5
_chemical_formula_sum              "F2 Fe2 Ge1 K2 Mo1 O5"
_cell_length_a       5.832368945613326
_cell_length_b       4.35510192144547
_cell_length_c       8.231513023376465
_cell_angle_alpha    119.54517454157354
_cell_angle_beta     107.65482442097904
_cell_angle_gamma    127.5527707774547

_space_group_name_H-M_alt    "P 1"
_space_group_IT_number       1

loop_
  _space_group_symop_operation_xyz
  'x, y, z'

loop_
  _atom_site_type_symbol
  _atom_site_label
  _atom_site_symmetry_multiplicity
  _atom_site_fract_x
  _atom_site_fract_y
  _atom_site_fract_z
  _atom_site_occupancy
  F   F1        1.0  0.3315720260143279  0.39714381098747237  0.24553164839744565  1.0000
  F   F2        1.0  0.08067100495100013  0.06797007471323001  0.3726011514663696  1.0000
  Fe  Fe1       1.0  0.8234035968780515  0.3737521469593046  0.5007181167602538  1.0000
  Fe  Fe2       1.0  0.3972352445125579  0.7455552220344542  0.0677719637751579  1.0000
  Ge  Ge1       1.0  0.7473894953727722  0.3229039907455443  0.95358008146286  1.0000
  K   K1        1.0  0.38328400254249556  0.41664963960647566  0.855250597000122  1.0000
  K   K2        1.0  0.8759803175926206  0.09038860350847215  0.64017915725708  1.0000
  Mo  Mo1       1.0  0.7470756769180295  0.9188457131385798  0.9741835594177245  1.0000
  O   O1        1.0  0.9032735228538513  0.6096749901771544  0.7243582606315612  1.0000
  O   O2        1.0  0.540317118167877  0.7458205223083494  0.7410170435905455  1.0000
  O   O3        1.0  0.9475229382514954  0.3376157879829407  0.07598131150007244  1.0000
  O   O4        1.0  0.9128029942512512  0.6230726242065429  0.3769384920597076  1.0000
  O   O5        1.0  0.041179526597261304  0.5217065811157224  0.7562719583511351  1.0000
