data_image0
_chemical_formula_structural       F2Ga2KO8
_chemical_formula_sum              "F2 Ga2 K1 O8"
_cell_length_a       5.170044048992541
_cell_length_b       6.018457475277054
_cell_length_c       6.517890453338623
_cell_angle_alpha    100.81039349638564
_cell_angle_beta     111.01990884529657
_cell_angle_gamma    116.62714540590135

_space_group_name_H-M_alt    "P 1"
_space_group_IT_number       1

loop_
  _space_group_symop_operation_xyz
  'x, y, z'

loop_
  _atom_site_type_symbol
  _atom_site_label
  _atom_site_symmetry_multiplicity
  _atom_site_fract_x
  _atom_site_fract_y
  _atom_site_fract_z
  _atom_site_occupancy
  F   F1        1.0  0.01649700291454792  0.2052801549434662  0.787593424320221  1.0000
  F   F2        1.0  0.07861243933439255  0.4877365231513977  0.4668121039867401  1.0000
  Ga  Ga1       1.0  0.919687807559967  0.06217629462480545  0.4178584814071655  1.0000
  Ga  Ga2       1.0  0.9520702362060547  0.36757805943489075  0.7741137146949768  1.0000
  K   K1        1.0  0.5899791717529297  0.1163482666015625  0.5382812023162842  1.0000
  O   O1        1.0  0.23959818482398987  0.46025753021240234  0.010018908418715  1.0000
  O   O2        1.0  0.42607223987579346  0.02984962984919548  0.4958985149860382  1.0000
  O   O3        1.0  0.8858337998390198  0.9337358474731445  0.1023043841123581  1.0000
  O   O4        1.0  0.3489907681941986  0.8366445899009705  0.8371462821960449  1.0000
  O   O5        1.0  0.23564937710762024  0.42644044756889343  0.031165769323706627  1.0000
  O   O6        1.0  0.5315301418304443  0.3428579568862915  0.27536672353744507  1.0000
  O   O7        1.0  0.9767003059387207  0.1171371266245842  0.21252705156803134  1.0000
  O   O8        1.0  0.2768838405609131  0.8227484226226807  0.9030965566635132  1.0000
