data_image0
_chemical_formula_structural       Fe2Mo7O4
_chemical_formula_sum              "Fe2 Mo7 O4"
_cell_length_a       6.066827630070261
_cell_length_b       4.5281878512425315
_cell_length_c       6.448419094085693
_cell_angle_alpha    116.06088212673012
_cell_angle_beta     112.22283335053767
_cell_angle_gamma    128.72698442930604

_space_group_name_H-M_alt    "P 1"
_space_group_IT_number       1

loop_
  _space_group_symop_operation_xyz
  'x, y, z'

loop_
  _atom_site_type_symbol
  _atom_site_label
  _atom_site_symmetry_multiplicity
  _atom_site_fract_x
  _atom_site_fract_y
  _atom_site_fract_z
  _atom_site_occupancy
  Fe  Fe1       1.0  0.28519719839096097  0.9756135940551761  0.815329670906067  1.0000
  Fe  Fe2       1.0  0.011299267411231995  0.8820410370826721  0.18957412242889404  1.0000
  Mo  Mo1       1.0  0.835710883140564  0.3796481490135193  0.08138965815305711  1.0000
  Mo  Mo2       1.0  0.5648787021636963  0.026226921007037204  0.6521673798561096  1.0000
  Mo  Mo3       1.0  0.5631985664367676  0.24458038806915286  0.08487983793020248  1.0000
  Mo  Mo4       1.0  0.37462058663368225  0.32712242007255554  0.20258116722106934  1.0000
  Mo  Mo5       1.0  0.6342098116874695  0.6729564666748047  0.758395254611969  1.0000
  Mo  Mo6       1.0  0.5555529594421387  0.2173883616924286  0.014109853655099853  1.0000
  Mo  Mo7       1.0  0.11533571779727944  0.6410978436470033  0.04102684557437894  1.0000
  O   O1        1.0  0.7005026936531069  0.2543011605739596  0.7347710728645326  1.0000
  O   O2        1.0  0.5709599852561951  0.18476784229278564  0.14880630373954773  1.0000
  O   O3        1.0  0.37376928329467773  0.876880407333374  0.4502650797367096  1.0000
  O   O4        1.0  0.3580234646797182  0.23859418928623224  0.8138182163238527  1.0000
