data_image0
_chemical_formula_structural       F3FeGaIMoO6
_chemical_formula_sum              "F3 Fe1 Ga1 I1 Mo1 O6"
_cell_length_a       5.896598863671435
_cell_length_b       5.061068890448473
_cell_length_c       7.4210309982299805
_cell_angle_alpha    90.22500849723008
_cell_angle_beta     88.68312003210434
_cell_angle_gamma    98.99162011613579

_space_group_name_H-M_alt    "P 1"
_space_group_IT_number       1

loop_
  _space_group_symop_operation_xyz
  'x, y, z'

loop_
  _atom_site_type_symbol
  _atom_site_label
  _atom_site_symmetry_multiplicity
  _atom_site_fract_x
  _atom_site_fract_y
  _atom_site_fract_z
  _atom_site_occupancy
  F   F1        1.0  0.9202539324760437  0.7411199808120728  0.3859042227268219  1.0000
  F   F2        1.0  0.8283437490463257  0.15813657641410828  0.012473200447857376  1.0000
  F   F3        1.0  0.4225568175315857  0.7556358575820923  0.3355257511138916  1.0000
  Fe  Fe1       1.0  0.5321414470672607  0.20282678306102753  0.4572685062885284  1.0000
  Ga  Ga1       1.0  0.19127298891544342  0.28315892815589905  0.9926339983940123  1.0000
  I   I1        1.0  0.12540745735168457  0.3497324287891388  0.3318668007850647  1.0000
  Mo  Mo1       1.0  0.8142340183258057  0.3759003281593323  0.500802755355835  1.0000
  O   O1        1.0  0.6985266208648682  0.9315344095230103  0.21893601119518277  1.0000
  O   O2        1.0  0.16625753045082092  0.9966206550598145  0.2492115795612335  1.0000
  O   O3        1.0  0.11968383938074112  0.010470936074852943  0.16121438145637512  1.0000
  O   O4        1.0  0.6693026423454285  0.8024912476539612  0.8309461474418639  1.0000
  O   O5        1.0  0.6892812848091125  0.6076395511627197  0.2691260278224945  1.0000
  O   O6        1.0  0.14903034269809723  0.6907182931900024  0.37711670994758606  1.0000
