data_image0
_chemical_formula_structural       Fe2Mo9O2
_chemical_formula_sum              "Fe2 Mo9 O2"
_cell_length_a       5.793406369465375
_cell_length_b       5.212674034547685
_cell_length_c       6.818871974945068
_cell_angle_alpha    120.27279392386053
_cell_angle_beta     113.3618891753007
_cell_angle_gamma    119.63398207567843

_space_group_name_H-M_alt    "P 1"
_space_group_IT_number       1

loop_
  _space_group_symop_operation_xyz
  'x, y, z'

loop_
  _atom_site_type_symbol
  _atom_site_label
  _atom_site_symmetry_multiplicity
  _atom_site_fract_x
  _atom_site_fract_y
  _atom_site_fract_z
  _atom_site_occupancy
  Fe  Fe1       1.0  0.49933797121047974  0.4514923393726349  0.040501467883586884  1.0000
  Fe  Fe2       1.0  0.699731171131134  0.9520183801651001  0.30435273051261896  1.0000
  Mo  Mo1       1.0  0.2986210584640503  0.7037616968154907  0.3011312186717987  1.0000
  Mo  Mo2       1.0  0.6085969209671022  0.8790787458419801  0.7609668374061584  1.0000
  Mo  Mo3       1.0  0.9047791957855225  0.8226850032806398  0.853485107421875  1.0000
  Mo  Mo4       1.0  0.9916467070579529  0.45585250854492193  0.28744861483573914  1.0000
  Mo  Mo5       1.0  0.6528765559196473  0.93904447555542  0.9607009291648866  1.0000
  Mo  Mo6       1.0  0.10335110872983932  0.9070977568626404  0.2950260639190674  1.0000
  Mo  Mo7       1.0  0.3540903925895691  0.7854606509208679  0.9663528800010681  1.0000
  Mo  Mo8       1.0  0.13007400929927826  0.4905623197555542  0.2799314856529236  1.0000
  Mo  Mo9       1.0  0.9260435104370117  0.24330376088619238  0.9953407049179077  1.0000
  O   O1        1.0  0.013849392533302307  0.6481397747993469  0.6832584738731384  1.0000
  O   O2        1.0  0.9846137166023254  0.6066689491271973  0.18524618446826935  1.0000
