data_image0
_chemical_formula_structural       F3GaGeI3MoO3Pb
_chemical_formula_sum              "F3 Ga1 Ge1 I3 Mo1 O3 Pb1"
_cell_length_a       5.826847385926918
_cell_length_b       5.659309941349797
_cell_length_c       8.66208267211914
_cell_angle_alpha    88.02140268865304
_cell_angle_beta     88.2053933884682
_cell_angle_gamma    85.82945608736574

_space_group_name_H-M_alt    "P 1"
_space_group_IT_number       1

loop_
  _space_group_symop_operation_xyz
  'x, y, z'

loop_
  _atom_site_type_symbol
  _atom_site_label
  _atom_site_symmetry_multiplicity
  _atom_site_fract_x
  _atom_site_fract_y
  _atom_site_fract_z
  _atom_site_occupancy
  F   F1        1.0  0.6305791735649109  0.2852875590324402  0.47625452280044556  1.0000
  F   F2        1.0  0.11065211147069931  0.11108801513910294  0.7403892874717712  1.0000
  F   F3        1.0  0.27129125595092773  0.2190297693014145  0.9566535949707031  1.0000
  Ga  Ga1       1.0  0.7487547397613525  0.5239571928977966  0.8106266260147095  1.0000
  Ge  Ge1       1.0  0.23315978050231934  0.13381430506706238  0.1863345056772232  1.0000
  I   I1        1.0  0.752907395362854  0.3975799083709717  0.2715209126472473  1.0000
  I   I2        1.0  0.742074191570282  0.37682440876960754  0.2883012294769287  1.0000
  I   I3        1.0  0.7228619456291199  0.16072280704975128  0.6207360625267029  1.0000
  Mo  Mo1       1.0  0.4474606513977051  0.5909507870674133  0.2714981436729431  1.0000
  O   O1        1.0  0.2719370126724243  0.16088396310806274  0.6156803369522095  1.0000
  O   O2        1.0  0.7832099795341492  0.3834340572357178  0.918758749961853  1.0000
  O   O3        1.0  0.9181479811668396  0.9386265873908997  0.9807472229003906  1.0000
  Pb  Pb1       1.0  0.9007090330123901  0.3605072796344757  0.9676315188407898  1.0000
