data_image0
_chemical_formula_structural       P3PdPtYb2Zr3
_chemical_formula_sum              "P3 Pd1 Pt1 Yb2 Zr3"
_cell_length_a       5.088714741217706
_cell_length_b       6.136527961879349
_cell_length_c       7.1522674560546875
_cell_angle_alpha    89.52611843509511
_cell_angle_beta     90.02824777821372
_cell_angle_gamma    105.74340463845701

_space_group_name_H-M_alt    "P 1"
_space_group_IT_number       1

loop_
  _space_group_symop_operation_xyz
  'x, y, z'

loop_
  _atom_site_type_symbol
  _atom_site_label
  _atom_site_symmetry_multiplicity
  _atom_site_fract_x
  _atom_site_fract_y
  _atom_site_fract_z
  _atom_site_occupancy
  P   P1        1.0  0.48169293999671936  0.020197048783302307  0.8953925967216493  1.0000
  P   P2        1.0  0.7064234018325806  0.22207553684711456  0.5979098081588745  1.0000
  P   P3        1.0  0.7444659471511841  0.9043183922767639  0.774599850177765  1.0000
  Pd  Pd1       1.0  0.8092387914657593  0.7743033170700073  0.8202202320098878  1.0000
  Pt  Pt1       1.0  0.30402088165283203  0.9108551740646362  0.6515203714370728  1.0000
  Yb  Yb1       1.0  0.2391010969877243  0.21581538021564484  0.26070019602775574  1.0000
  Yb  Yb2       1.0  0.8063281178474426  0.9602319002151489  0.6990286111831666  1.0000
  Zr  Zr1       1.0  0.7965937256813049  0.6910446286201477  0.8944738507270814  1.0000
  Zr  Zr2       1.0  0.27911806106567383  0.006425377447158098  0.4827731847763062  1.0000
  Zr  Zr3       1.0  0.7970105409622192  0.9758818745613098  0.07046724110841751  1.0000
