data_image0
_chemical_formula_structural       Pb5S5
_chemical_formula_sum              "Pb5 S5"
_cell_length_a       6.560492566310639
_cell_length_b       6.328376250900692
_cell_length_c       6.72482967376709
_cell_angle_alpha    64.98861016560483
_cell_angle_beta     68.25083153039915
_cell_angle_gamma    67.00052276415902

_space_group_name_H-M_alt    "P 1"
_space_group_IT_number       1

loop_
  _space_group_symop_operation_xyz
  'x, y, z'

loop_
  _atom_site_type_symbol
  _atom_site_label
  _atom_site_symmetry_multiplicity
  _atom_site_fract_x
  _atom_site_fract_y
  _atom_site_fract_z
  _atom_site_occupancy
  Pb  Pb1       1.0  0.07829832285642624  0.9505746364593506  0.9197459816932679  1.0000
  Pb  Pb2       1.0  0.5808426737785339  0.20925907790660858  0.6425225138664247  1.0000
  Pb  Pb3       1.0  0.576933741569519  0.42263081669807434  0.25624948740005493  1.0000
  Pb  Pb4       1.0  0.5783387422561646  0.5161311626434326  0.6566517353057862  1.0000
  Pb  Pb5       1.0  0.5780306458473206  0.4301372766494751  0.9828006029129029  1.0000
  S   S1        1.0  0.0833866149187088  0.22838488221168518  0.0281701572239399  1.0000
  S   S2        1.0  0.07712473720312119  0.7568371891975403  0.9658408761024476  1.0000
  S   S3        1.0  0.577122688293457  0.4177193343639374  0.894675374031067  1.0000
  S   S4        1.0  0.07751265168190002  0.9242690801620483  0.5285812616348267  1.0000
  S   S5        1.0  0.07722216844558716  0.49884122610092163  0.4612668454647065  1.0000
