data_image0
_chemical_formula_structural       Pb5S5
_chemical_formula_sum              "Pb5 S5"
_cell_length_a       6.475784051184361
_cell_length_b       6.313582526865148
_cell_length_c       6.344027519226074
_cell_angle_alpha    58.150272201364125
_cell_angle_beta     62.460846088564324
_cell_angle_gamma    58.200113201204516

_space_group_name_H-M_alt    "P 1"
_space_group_IT_number       1

loop_
  _space_group_symop_operation_xyz
  'x, y, z'

loop_
  _atom_site_type_symbol
  _atom_site_label
  _atom_site_symmetry_multiplicity
  _atom_site_fract_x
  _atom_site_fract_y
  _atom_site_fract_z
  _atom_site_occupancy
  Pb  Pb1       1.0  0.17825359106063843  0.8415413498878479  0.368159681558609  1.0000
  Pb  Pb2       1.0  0.8935543298721313  0.8972193598747253  0.8453177809715271  1.0000
  Pb  Pb3       1.0  0.6830779314041138  0.35609155893325806  0.9777935147285461  1.0000
  Pb  Pb4       1.0  0.5154868960380554  0.5543384552001953  0.7546999454498291  1.0000
  Pb  Pb5       1.0  0.5441370606422424  0.6029114723205566  0.5986624360084534  1.0000
  S   S1        1.0  0.06693150103092194  0.2395741194486618  0.20424844324588776  1.0000
  S   S2        1.0  0.03151271492242813  0.13153104484081268  0.43075016140937805  1.0000
  S   S3        1.0  0.5380207300186157  0.12162528187036514  0.9813161492347717  1.0000
  S   S4        1.0  0.2312709391117096  0.9638843536376953  0.6045070886611938  1.0000
  S   S5        1.0  0.04009438678622246  0.12872350215911865  0.7350563406944275  1.0000
