data_image0
_chemical_formula_structural       GeNiP2PbS2SbZr2
_chemical_formula_sum              "Ge1 Ni1 P2 Pb1 S2 Sb1 Zr2"
_cell_length_a       6.131615794668759
_cell_length_b       4.892581994372101
_cell_length_c       5.301264762878418
_cell_angle_alpha    11.785852439087606
_cell_angle_beta     55.097174481314205
_cell_angle_gamma    58.49841464836434

_space_group_name_H-M_alt    "P 1"
_space_group_IT_number       1

loop_
  _space_group_symop_operation_xyz
  'x, y, z'

loop_
  _atom_site_type_symbol
  _atom_site_label
  _atom_site_symmetry_multiplicity
  _atom_site_fract_x
  _atom_site_fract_y
  _atom_site_fract_z
  _atom_site_occupancy
  Ge  Ge1       1.0  0.22164027392864227  0.9421970844268798  0.8387857079505923  1.0000
  Ni  Ni1       1.0  0.36103153228759766  0.5589070320129395  0.41849249601364136  1.0000
  P   P1        1.0  0.7313982248306274  0.4156217277050016  0.8085595965385438  1.0000
  P   P2        1.0  0.3643884062767029  0.2762612700462341  0.7345696091651918  1.0000
  Pb  Pb1       1.0  0.007242939900606871  0.25582632422447205  0.04792093485593795  1.0000
  S   S1        1.0  0.6894264221191406  0.05504220724105841  0.7870027422904967  1.0000
  S   S2        1.0  0.3964621126651764  0.7443192601203918  0.09575730562210082  1.0000
  Sb  Sb1       1.0  0.9229826927185059  0.9442598223686217  0.24085609614849102  1.0000
  Zr  Zr1       1.0  0.42810654640197754  0.9669194221496581  0.8367139697074891  1.0000
  Zr  Zr2       1.0  0.25777941942214966  0.6086472868919371  0.951667070388794  1.0000
