data_image0
_chemical_formula_structural       AsGePPb2S3SiZr
_chemical_formula_sum              "As1 Ge1 P1 Pb2 S3 Si1 Zr1"
_cell_length_a       6.186732474900735
_cell_length_b       6.758292298043964
_cell_length_c       7.86594820022583
_cell_angle_alpha    67.2366084955108
_cell_angle_beta     68.31401830798895
_cell_angle_gamma    65.6161539808988

_space_group_name_H-M_alt    "P 1"
_space_group_IT_number       1

loop_
  _space_group_symop_operation_xyz
  'x, y, z'

loop_
  _atom_site_type_symbol
  _atom_site_label
  _atom_site_symmetry_multiplicity
  _atom_site_fract_x
  _atom_site_fract_y
  _atom_site_fract_z
  _atom_site_occupancy
  As  As1       1.0  0.4918460547924041  0.0335412472486496  0.5421488285064697  1.0000
  Ge  Ge1       1.0  0.9914559125900267  0.700955331325531  0.4709717035293579  1.0000
  P   P1        1.0  0.45190635323524475  0.014700877480208874  0.5895943641662598  1.0000
  Pb  Pb1       1.0  0.17216183245182037  0.5412163138389587  0.0808209627866745  1.0000
  Pb  Pb2       1.0  0.9705910682678222  0.012219821102917194  0.010623010806739386  1.0000
  S   S1        1.0  0.451587051153183  0.9012793302536011  0.8649017214775085  1.0000
  S   S2        1.0  0.17047476768493652  0.8746951818466187  0.6650142073631287  1.0000
  S   S3        1.0  0.43767136335372925  0.8512254357337952  0.11359994113445282  1.0000
  Si  Si1       1.0  0.9688273072242736  0.9469496607780457  0.08192344754934311  1.0000
  Zr  Zr1       1.0  0.9324251413345337  0.5668975114822388  0.6557953953742981  1.0000
