data_image0
_chemical_formula_structural       LiNb5PbVZn
_chemical_formula_sum              "Li1 Nb5 Pb1 V1 Zn1"
_cell_length_a       5.056563903685475
_cell_length_b       5.041513869416773
_cell_length_c       6.314752578735352
_cell_angle_alpha    90.48777678911563
_cell_angle_beta     91.49322424543763
_cell_angle_gamma    88.319552000044

_space_group_name_H-M_alt    "P 1"
_space_group_IT_number       1

loop_
  _space_group_symop_operation_xyz
  'x, y, z'

loop_
  _atom_site_type_symbol
  _atom_site_label
  _atom_site_symmetry_multiplicity
  _atom_site_fract_x
  _atom_site_fract_y
  _atom_site_fract_z
  _atom_site_occupancy
  Li  Li1       1.0  0.0728696659207344  0.958224892616272  0.5508583188056946  1.0000
  Nb  Nb1       1.0  0.061046846210956573  0.3772136867046356  0.8134739398956299  1.0000
  Nb  Nb2       1.0  0.5644686222076416  0.28639793395996094  0.7348801493644714  1.0000
  Nb  Nb3       1.0  0.5641353130340576  0.327288419008255  0.7495538592338562  1.0000
  Nb  Nb4       1.0  0.5621060132980347  0.05755489319562912  0.674205482006073  1.0000
  Nb  Nb5       1.0  0.5616269707679749  0.06161255016922951  0.2235463559627533  1.0000
  Pb  Pb1       1.0  0.06903630495071411  0.5944558382034302  0.4313693642616272  1.0000
  V   V1        1.0  0.057093072682619095  0.5004900097846985  0.0931648463010788  1.0000
  Zn  Zn1       1.0  0.0620737187564373  0.728588879108429  0.28200265765190125  1.0000
