data_image0
_chemical_formula_structural       AuNb7Ni
_chemical_formula_sum              "Au1 Nb7 Ni1"
_cell_length_a       5.570700159853303
_cell_length_b       5.457612330646225
_cell_length_c       5.462124347686768
_cell_angle_alpha    113.10167106443049
_cell_angle_beta     119.65591991437533
_cell_angle_gamma    116.93489837877071

_space_group_name_H-M_alt    "P 1"
_space_group_IT_number       1

loop_
  _space_group_symop_operation_xyz
  'x, y, z'

loop_
  _atom_site_type_symbol
  _atom_site_label
  _atom_site_symmetry_multiplicity
  _atom_site_fract_x
  _atom_site_fract_y
  _atom_site_fract_z
  _atom_site_occupancy
  Au  Au1       1.0  0.16780355572700484  0.05547995865344982  0.9887731075286864  1.0000
  Nb  Nb1       1.0  0.05808993428945529  0.07482302188873276  0.7761679291725158  1.0000
  Nb  Nb2       1.0  0.5686412453651428  0.7972970008850098  0.34687110781669617  1.0000
  Nb  Nb3       1.0  0.08214785158634162  0.08989262580871553  0.8073308467864989  1.0000
  Nb  Nb4       1.0  0.6183587908744812  0.29984927177429194  0.6885524392127991  1.0000
  Nb  Nb5       1.0  0.5656937956809998  0.7566725015640259  0.08222826570272451  1.0000
  Nb  Nb6       1.0  0.06909646838903423  0.4012522399425506  0.6497760415077208  1.0000
  Nb  Nb7       1.0  0.44823816418647766  0.5659631490707397  0.5379393696784973  1.0000
  Ni  Ni1       1.0  0.6038020253181458  0.8596305251121521  0.08778856694698335  1.0000
