data_image0
_chemical_formula_structural       AuGeInNb5Ni
_chemical_formula_sum              "Au1 Ge1 In1 Nb5 Ni1"
_cell_length_a       5.020699893857416
_cell_length_b       4.946309034691672
_cell_length_c       8.182284355163574
_cell_angle_alpha    89.45807358135129
_cell_angle_beta     89.4651092451013
_cell_angle_gamma    112.33644281209385

_space_group_name_H-M_alt    "P 1"
_space_group_IT_number       1

loop_
  _space_group_symop_operation_xyz
  'x, y, z'

loop_
  _atom_site_type_symbol
  _atom_site_label
  _atom_site_symmetry_multiplicity
  _atom_site_fract_x
  _atom_site_fract_y
  _atom_site_fract_z
  _atom_site_occupancy
  Au  Au1       1.0  0.6490540504455566  0.6877063512802124  0.4866990149021148  1.0000
  Ge  Ge1       1.0  0.15116551518440247  0.2164970487356186  0.8671559691429138  1.0000
  In  In1       1.0  0.14590094983577728  0.7050209045410156  0.7219038605690002  1.0000
  Nb  Nb1       1.0  0.6544456481933594  0.37347838282585144  0.6553520560264587  1.0000
  Nb  Nb2       1.0  0.15845347940921783  0.2439311742782593  0.14824442565441132  1.0000
  Nb  Nb3       1.0  0.15474681556224823  0.6046142578125  0.8359600305557251  1.0000
  Nb  Nb4       1.0  0.6561926603317261  0.773681640625  0.43350163102149963  1.0000
  Nb  Nb5       1.0  0.16488602757453918  0.0006797079113312066  0.29142099618911743  1.0000
  Ni  Ni1       1.0  0.6484130620956421  0.13147056102752686  0.9514104723930359  1.0000
