data_image0
_chemical_formula_structural       BiCa4I4PPb
_chemical_formula_sum              "Bi1 Ca4 I4 P1 Pb1"
_cell_length_a       7.313561382473479
_cell_length_b       7.561634433793081
_cell_length_c       8.770155906677246
_cell_angle_alpha    65.27984097839494
_cell_angle_beta     64.7896707404762
_cell_angle_gamma    63.8748627569196

_space_group_name_H-M_alt    "P 1"
_space_group_IT_number       1

loop_
  _space_group_symop_operation_xyz
  'x, y, z'

loop_
  _atom_site_type_symbol
  _atom_site_label
  _atom_site_symmetry_multiplicity
  _atom_site_fract_x
  _atom_site_fract_y
  _atom_site_fract_z
  _atom_site_occupancy
  Bi  Bi1       1.0  0.07152903079986572  0.02621486224234104  0.5740771889686584  1.0000
  Ca  Ca1       1.0  0.7173440456390381  0.4647897481918335  0.4452948272228241  1.0000
  Ca  Ca2       1.0  0.05321388691663742  0.6429935693740845  0.7482010722160339  1.0000
  Ca  Ca3       1.0  0.045927178114652634  0.8342983722686768  0.7769408226013182  1.0000
  Ca  Ca4       1.0  0.562206506729126  0.09556843340396881  0.12590067088603973  1.0000
  I   I1        1.0  0.05657069385051727  0.28285983204841614  0.4758089482784271  1.0000
  I   I2        1.0  0.4722517430782318  0.3337298631668091  0.8818018436431885  1.0000
  I   I3        1.0  0.06486981362104416  0.4910924732685089  0.3600198030471802  1.0000
  I   I4        1.0  0.6857907772064209  0.44886577129364014  0.4555705189704895  1.0000
  P   P1        1.0  0.5543438792228699  0.4626177251338959  0.2123786211013794  1.0000
  Pb  Pb1       1.0  0.6936383843421936  0.25947320461273193  0.45263105630874634  1.0000
