data_image0
_chemical_formula_structural       Ca4I4LiPZn
_chemical_formula_sum              "Ca4 I4 Li1 P1 Zn1"
_cell_length_a       5.51774450785156
_cell_length_b       5.904246230914986
_cell_length_c       9.97387409210205
_cell_angle_alpha    90.10323155734197
_cell_angle_beta     90.51581909824931
_cell_angle_gamma    98.60117880473392

_space_group_name_H-M_alt    "P 1"
_space_group_IT_number       1

loop_
  _space_group_symop_operation_xyz
  'x, y, z'

loop_
  _atom_site_type_symbol
  _atom_site_label
  _atom_site_symmetry_multiplicity
  _atom_site_fract_x
  _atom_site_fract_y
  _atom_site_fract_z
  _atom_site_occupancy
  Ca  Ca1       1.0  0.739073634147644  0.047494739294052124  0.8535450100898742  1.0000
  Ca  Ca2       1.0  0.23956619203090668  0.8234015107154846  0.6694567799568176  1.0000
  Ca  Ca3       1.0  0.24055325984954834  0.31489890813827515  0.9736691713333129  1.0000
  Ca  Ca4       1.0  0.7406648993492126  0.25280725955963135  0.9547921419143676  1.0000
  I   I1        1.0  0.235835462808609  0.6827678680419922  0.4782217442989349  1.0000
  I   I2        1.0  0.2365608513355255  0.02769274078309536  0.42917355895042414  1.0000
  I   I3        1.0  0.7373548150062561  0.5776714086532593  0.853790521621704  1.0000
  I   I4        1.0  0.7402340769767761  0.3073214888572693  0.1867581009864807  1.0000
  Li  Li1       1.0  0.23983201384544373  0.12018571048974992  0.39622044563293457  1.0000
  P   P1        1.0  0.5214580297470093  0.6630673408508301  0.2893628180027008  1.0000
  Zn  Zn1       1.0  0.7421495318412781  0.007917081005871296  0.6168928742408752  1.0000
