data_image0
_chemical_formula_structural       BiCa5Mn5
_chemical_formula_sum              "Bi1 Ca5 Mn5"
_cell_length_a       4.723147025072746
_cell_length_b       4.359766473953826
_cell_length_c       11.701244354248047
_cell_angle_alpha    94.87044922739534
_cell_angle_beta     92.62127954615119
_cell_angle_gamma    116.50791377488652

_space_group_name_H-M_alt    "P 1"
_space_group_IT_number       1

loop_
  _space_group_symop_operation_xyz
  'x, y, z'

loop_
  _atom_site_type_symbol
  _atom_site_label
  _atom_site_symmetry_multiplicity
  _atom_site_fract_x
  _atom_site_fract_y
  _atom_site_fract_z
  _atom_site_occupancy
  Bi  Bi1       1.0  0.05404754355549812  0.021462352946400642  0.7979229688644409  1.0000
  Ca  Ca1       1.0  0.626128613948822  0.6944350004196167  0.46123114228248596  1.0000
  Ca  Ca2       1.0  0.3334570527076721  0.7430733442306519  0.6444866061210632  1.0000
  Ca  Ca3       1.0  0.5731737017631531  0.40074053406715393  0.6008465886116028  1.0000
  Ca  Ca4       1.0  0.6536756753921509  0.3211434483528137  0.3985738158226013  1.0000
  Ca  Ca5       1.0  0.2049856036901474  0.6042470335960388  0.03928103670477867  1.0000
  Mn  Mn1       1.0  0.15198706090450287  0.09264995902776718  0.8098374009132385  1.0000
  Mn  Mn2       1.0  0.9558351039886475  0.7078003287315369  0.9639574289321899  1.0000
  Mn  Mn3       1.0  0.6801860332489014  0.6725118160247803  0.7259266376495361  1.0000
  Mn  Mn4       1.0  0.578764021396637  0.260425865650177  0.42044544219970703  1.0000
  Mn  Mn5       1.0  0.06583301723003387  0.3019484281539917  0.7184708118438721  1.0000
