data_image0
_chemical_formula_structural       BiCa6HgMn3
_chemical_formula_sum              "Bi1 Ca6 Hg1 Mn3"
_cell_length_a       6.0702145536180705
_cell_length_b       5.819848472898894
_cell_length_c       10.29699420928955
_cell_angle_alpha    103.56775885462808
_cell_angle_beta     98.20146244724208
_cell_angle_gamma    116.70635101345133

_space_group_name_H-M_alt    "P 1"
_space_group_IT_number       1

loop_
  _space_group_symop_operation_xyz
  'x, y, z'

loop_
  _atom_site_type_symbol
  _atom_site_label
  _atom_site_symmetry_multiplicity
  _atom_site_fract_x
  _atom_site_fract_y
  _atom_site_fract_z
  _atom_site_occupancy
  Bi  Bi1       1.0  0.000542759895324707  0.2143770456314087  0.42061159014701843  1.0000
  Ca  Ca1       1.0  0.5154116749763489  0.8024998903274536  0.604824960231781  1.0000
  Ca  Ca2       1.0  0.5485008955001831  0.8009718060493469  0.17976953089237213  1.0000
  Ca  Ca3       1.0  0.18264615535736084  0.23355557024478912  0.06650019437074661  1.0000
  Ca  Ca4       1.0  0.54731684923172  0.6944456100463867  0.6227608323097229  1.0000
  Ca  Ca5       1.0  0.9254422187805176  0.12118230760097504  0.5061389803886414  1.0000
  Ca  Ca6       1.0  0.4297259449958801  0.9853697419166565  0.321763813495636  1.0000
  Hg  Hg1       1.0  0.05452192202210426  0.45257529616355896  0.6436551809310913  1.0000
  Mn  Mn1       1.0  0.5083472728729248  0.560520350933075  0.3767664134502411  1.0000
  Mn  Mn2       1.0  0.012644045054912567  0.5313947796821594  0.30324503779411316  1.0000
  Mn  Mn3       1.0  0.5877296328544617  0.2638552784919739  0.01808721199631691  1.0000
