data_image0
_chemical_formula_structural       BiCa4I2MnOPbTb
_chemical_formula_sum              "Bi1 Ca4 I2 Mn1 O1 Pb1 Tb1"
_cell_length_a       4.911176114462639
_cell_length_b       4.567323852821767
_cell_length_c       9.598833084106445
_cell_angle_alpha    91.29572093094104
_cell_angle_beta     89.43272190579648
_cell_angle_gamma    147.77597565188657

_space_group_name_H-M_alt    "P 1"
_space_group_IT_number       1

loop_
  _space_group_symop_operation_xyz
  'x, y, z'

loop_
  _atom_site_type_symbol
  _atom_site_label
  _atom_site_symmetry_multiplicity
  _atom_site_fract_x
  _atom_site_fract_y
  _atom_site_fract_z
  _atom_site_occupancy
  Bi  Bi1       1.0  0.008836581371724606  0.23124991357326508  0.22213508188724518  1.0000
  Ca  Ca1       1.0  0.27318742871284485  0.4169946014881134  0.12959474325180054  1.0000
  Ca  Ca2       1.0  0.9954997897148132  0.19633838534355164  0.2394188642501831  1.0000
  Ca  Ca3       1.0  0.4808987081050873  0.609554648399353  0.1079825758934021  1.0000
  Ca  Ca4       1.0  0.992242693901062  0.7800638675689697  0.3337341845035553  1.0000
  I   I1        1.0  0.25891152024269104  0.22064046561717987  0.5213049054145813  1.0000
  I   I2        1.0  0.7359858155250549  0.8312132954597473  0.03406672179698944  1.0000
  Mn  Mn1       1.0  0.7255681157112122  0.17545732855796814  0.6917142271995544  1.0000
  O   O1        1.0  0.7542182803153992  0.03492008149623871  0.9198033213615417  1.0000
  Pb  Pb1       1.0  0.7316411733627319  0.5710158944129944  0.416734516620636  1.0000
  Tb  Tb1       1.0  0.2880098819732666  0.2314465194940567  0.1497902125120163  1.0000
