data_image0
_chemical_formula_structural       BiCa2I2LiO2PPtZn
_chemical_formula_sum              "Bi1 Ca2 I2 Li1 O2 P1 Pt1 Zn1"
_cell_length_a       5.317169832921887
_cell_length_b       5.207707087328035
_cell_length_c       5.8169755935668945
_cell_angle_alpha    137.38194895531407
_cell_angle_beta     96.06607105082009
_cell_angle_gamma    81.10602449178779

_space_group_name_H-M_alt    "P 1"
_space_group_IT_number       1

loop_
  _space_group_symop_operation_xyz
  'x, y, z'

loop_
  _atom_site_type_symbol
  _atom_site_label
  _atom_site_symmetry_multiplicity
  _atom_site_fract_x
  _atom_site_fract_y
  _atom_site_fract_z
  _atom_site_occupancy
  Bi  Bi1       1.0  0.49531099200248707  0.10646564513444902  0.8804393410682678  1.0000
  Ca  Ca1       1.0  0.9872354865074158  0.5523107051849366  0.4028734564781189  1.0000
  Ca  Ca2       1.0  0.9570058584213257  0.5457071661949159  0.3341136574745178  1.0000
  I   I1        1.0  0.34368768334388733  0.19901411235332492  0.1552424132823944  1.0000
  I   I2        1.0  0.019987996667623513  0.40353608131408697  0.538694441318512  1.0000
  Li  Li1       1.0  0.5064277052879333  0.4001683592796326  0.874508798122406  1.0000
  O   O1        1.0  0.020272299647331238  0.3711676597595215  0.5094304084777832  1.0000
  O   O2        1.0  0.021968338638544083  0.9131584167480469  0.03571269288659085  1.0000
  P   P1        1.0  0.5145866274833679  0.38205111026763944  0.8719303011894227  1.0000
  Pt  Pt1       1.0  0.8251997232437134  0.1912034749984741  0.2279410809278488  1.0000
  Zn  Zn1       1.0  0.4728069007396698  0.047699660062789896  0.5547381043434143  1.0000
