data_image0
_chemical_formula_structural       BrCl5Se3
_chemical_formula_sum              "Br1 Cl5 Se3"
_cell_length_a       5.764597010231808
_cell_length_b       6.8952381383516945
_cell_length_c       7.924647331237793
_cell_angle_alpha    74.19571970545408
_cell_angle_beta     69.79761495826467
_cell_angle_gamma    67.16226145197875

_space_group_name_H-M_alt    "P 1"
_space_group_IT_number       1

loop_
  _space_group_symop_operation_xyz
  'x, y, z'

loop_
  _atom_site_type_symbol
  _atom_site_label
  _atom_site_symmetry_multiplicity
  _atom_site_fract_x
  _atom_site_fract_y
  _atom_site_fract_z
  _atom_site_occupancy
  Br  Br1       1.0  0.2788179218769074  0.4828295707702636  0.5009596347808838  1.0000
  Cl  Cl1       1.0  0.31652176380157476  0.9524419307708739  0.6916711330413818  1.0000
  Cl  Cl2       1.0  0.3551555275917053  0.47112819552421564  0.7110927104949951  1.0000
  Cl  Cl3       1.0  0.538391649723053  0.6423724889755249  0.529387891292572  1.0000
  Cl  Cl4       1.0  0.3542221784591675  0.12966324388980865  0.5183538198471069  1.0000
  Cl  Cl5       1.0  0.9329962730407715  0.11898345500230788  0.480370432138443  1.0000
  Se  Se1       1.0  0.17116424441337585  0.6248305439949036  0.1470009982585907  1.0000
  Se  Se2       1.0  0.1753745973110199  0.6287598013877869  0.32670125365257263  1.0000
  Se  Se3       1.0  0.6670066714286804  0.3195090591907501  0.15217015147209167  1.0000
