data_image0
_chemical_formula_structural       Cl5SbSe3
_chemical_formula_sum              "Cl5 Sb1 Se3"
_cell_length_a       6.408531127732473
_cell_length_b       7.010722485532512
_cell_length_c       8.24915885925293
_cell_angle_alpha    70.22454044950574
_cell_angle_beta     65.95085916596106
_cell_angle_gamma    65.25227060868058

_space_group_name_H-M_alt    "P 1"
_space_group_IT_number       1

loop_
  _space_group_symop_operation_xyz
  'x, y, z'

loop_
  _atom_site_type_symbol
  _atom_site_label
  _atom_site_symmetry_multiplicity
  _atom_site_fract_x
  _atom_site_fract_y
  _atom_site_fract_z
  _atom_site_occupancy
  Cl  Cl1       1.0  0.2524906396865845  0.19157038629055026  0.31759676337242126  1.0000
  Cl  Cl2       1.0  0.8303279876708983  0.8929617404937745  0.7546140551567078  1.0000
  Cl  Cl3       1.0  0.9510034322738646  0.8073886036872865  0.10499168187379837  1.0000
  Cl  Cl4       1.0  0.5625283718109131  0.3238157033920288  0.08816646784543991  1.0000
  Cl  Cl5       1.0  0.116955928504467  0.3417113423347473  0.5624151825904846  1.0000
  Sb  Sb1       1.0  0.11758673191070555  0.07905828952789307  0.38534313440322876  1.0000
  Se  Se1       1.0  0.8791396021842955  0.6544565558433533  0.5863956212997437  1.0000
  Se  Se2       1.0  0.8784125447273253  0.6526604890823364  0.5682728290557861  1.0000
  Se  Se3       1.0  0.25442114472389216  0.4905033111572266  0.8209690451622009  1.0000
