data_image0
_chemical_formula_structural       Cl2PtReSe2Te3
_chemical_formula_sum              "Cl2 Pt1 Re1 Se2 Te3"
_cell_length_a       6.7674627483877545
_cell_length_b       6.668932549760724
_cell_length_c       7.249251842498779
_cell_angle_alpha    59.711832584328214
_cell_angle_beta     60.622177370303895
_cell_angle_gamma    59.61339964751918

_space_group_name_H-M_alt    "P 1"
_space_group_IT_number       1

loop_
  _space_group_symop_operation_xyz
  'x, y, z'

loop_
  _atom_site_type_symbol
  _atom_site_label
  _atom_site_symmetry_multiplicity
  _atom_site_fract_x
  _atom_site_fract_y
  _atom_site_fract_z
  _atom_site_occupancy
  Cl  Cl1       1.0  0.1294907182455063  0.0015662966761738062  0.12580654025077823  1.0000
  Cl  Cl2       1.0  0.2757311463356018  0.33618423342704773  0.8682786226272583  1.0000
  Pt  Pt1       1.0  0.20845159888267514  0.09915602952241898  0.10325322300195694  1.0000
  Re  Re1       1.0  0.7186701893806458  0.6585924029350281  0.6680790185928345  1.0000
  Se  Se1       1.0  0.71961909532547  0.31658294796943665  0.5959001779556274  1.0000
  Se  Se2       1.0  0.7605674266815184  0.6498408913612366  0.6165419220924377  1.0000
  Te  Te1       1.0  0.35596171021461487  0.6505170464515686  0.9710090756416321  1.0000
  Te  Te2       1.0  0.09404048323631285  0.7858319282531738  0.8422464728355408  1.0000
  Te  Te3       1.0  0.13135533034801483  0.48453882336616516  0.1332024186849594  1.0000
