data_image0
_chemical_formula_structural       Cl5Se4
_chemical_formula_sum              "Cl5 Se4"
_cell_length_a       4.232579860227216
_cell_length_b       7.263618126803879
_cell_length_c       8.137510299682617
_cell_angle_alpha    78.32364159824326
_cell_angle_beta     71.53379260488316
_cell_angle_gamma    71.28415788956093

_space_group_name_H-M_alt    "P 1"
_space_group_IT_number       1

loop_
  _space_group_symop_operation_xyz
  'x, y, z'

loop_
  _atom_site_type_symbol
  _atom_site_label
  _atom_site_symmetry_multiplicity
  _atom_site_fract_x
  _atom_site_fract_y
  _atom_site_fract_z
  _atom_site_occupancy
  Cl  Cl1       1.0  0.5675176978111267  0.5556118488311768  0.09877944737672806  1.0000
  Cl  Cl2       1.0  0.7809417843818665  0.0382278673350811  0.7171167135238647  1.0000
  Cl  Cl3       1.0  0.1318545937538147  0.3681458532810211  0.09121032804250717  1.0000
  Cl  Cl4       1.0  0.49861791729927063  0.29286321997642517  0.6016164422035217  1.0000
  Cl  Cl5       1.0  0.06947015225887299  0.9069469571113586  0.9108819961547852  1.0000
  Se  Se1       1.0  0.9327023029327393  0.8540923595428467  0.5949983596801758  1.0000
  Se  Se2       1.0  0.4018602967262268  0.6342100501060486  0.8940512537956238  1.0000
  Se  Se3       1.0  0.928601861000061  0.30205994844436646  0.3935544192790985  1.0000
  Se  Se4       1.0  0.43605470657348633  0.09590533375740051  0.5722389221191406  1.0000
