data_image0
_chemical_formula_structural       BNd3Ni6Pr
_chemical_formula_sum              "B1 Nd3 Ni6 Pr1"
_cell_length_a       5.497623109729815
_cell_length_b       6.211660289153635
_cell_length_c       6.958160877227783
_cell_angle_alpha    115.07737231204983
_cell_angle_beta     113.22601362133179
_cell_angle_gamma    91.51568134895935

_space_group_name_H-M_alt    "P 1"
_space_group_IT_number       1

loop_
  _space_group_symop_operation_xyz
  'x, y, z'

loop_
  _atom_site_type_symbol
  _atom_site_label
  _atom_site_symmetry_multiplicity
  _atom_site_fract_x
  _atom_site_fract_y
  _atom_site_fract_z
  _atom_site_occupancy
  B   B1        1.0  0.09061635285615921  0.3071439862251282  0.9044678807258606  1.0000
  Nd  Nd1       1.0  0.8255394101142882  0.3225915729999542  0.19587266445159912  1.0000
  Nd  Nd2       1.0  0.4070837497711181  0.6498624682426453  0.5358477234840393  1.0000
  Nd  Nd3       1.0  0.6723737120628357  0.9810153245925903  0.5856061577796936  1.0000
  Ni  Ni1       1.0  0.17959575355052948  0.9745099544525146  0.12675675749778761  1.0000
  Ni  Ni2       1.0  0.2721594274044037  0.5068386197090149  0.788183867931366  1.0000
  Ni  Ni3       1.0  0.45408290624618525  0.3182291090488434  0.4229118227958679  1.0000
  Ni  Ni4       1.0  0.9140107631683348  0.9057044982910156  0.16535566747188568  1.0000
  Ni  Ni5       1.0  0.3583067059516907  0.8350433111190796  0.19172315299510964  1.0000
  Ni  Ni6       1.0  0.896961212158203  0.6300716400146484  0.5547834038734436  1.0000
  Pr  Pr1       1.0  0.15196581184864044  0.3186204433441162  0.4320070445537567  1.0000
