data_image0
_chemical_formula_structural       Nd5Ni6
_chemical_formula_sum              "Nd5 Ni6"
_cell_length_a       4.460533640496859
_cell_length_b       7.4019638529044585
_cell_length_c       7.674185276031494
_cell_angle_alpha    120.5658573818768
_cell_angle_beta     87.17054453426003
_cell_angle_gamma    89.09430447389566

_space_group_name_H-M_alt    "P 1"
_space_group_IT_number       1

loop_
  _space_group_symop_operation_xyz
  'x, y, z'

loop_
  _atom_site_type_symbol
  _atom_site_label
  _atom_site_symmetry_multiplicity
  _atom_site_fract_x
  _atom_site_fract_y
  _atom_site_fract_z
  _atom_site_occupancy
  Nd  Nd1       1.0  0.092709481716156  0.32847651839256287  0.0439627505838871  1.0000
  Nd  Nd2       1.0  0.11336590349674225  0.5471949577331543  0.5070709586143494  1.0000
  Nd  Nd3       1.0  0.5994718074798584  0.36784812808036804  0.3000122606754303  1.0000
  Nd  Nd4       1.0  0.09456569701433182  0.03367190808057785  0.28308066725730896  1.0000
  Nd  Nd5       1.0  0.5964058041572571  0.40227591991424555  0.003881603246554747  1.0000
  Ni  Ni1       1.0  0.0964740440249443  0.5892536640167236  0.7334832549095154  1.0000
  Ni  Ni2       1.0  0.594656229019165  0.8975611925125121  0.5277178287506104  1.0000
  Ni  Ni3       1.0  0.09661123901605607  0.9142274856567382  0.8384830951690674  1.0000
  Ni  Ni4       1.0  0.09469753503799438  0.12773506343364716  0.05627522990107537  1.0000
  Ni  Ni5       1.0  0.592776358127594  0.5309140086174011  0.17312391102313995  1.0000
  Ni  Ni6       1.0  0.5991755723953247  0.10753448307514189  0.6207318902015686  1.0000
