data_image0
_chemical_formula_structural       Nd8Ni3
_chemical_formula_sum              "Nd8 Ni3"
_cell_length_a       4.305067905242988
_cell_length_b       6.843950770189622
_cell_length_c       7.337559223175049
_cell_angle_alpha    94.03539582314731
_cell_angle_beta     91.03842506631982
_cell_angle_gamma    87.95883331152923

_space_group_name_H-M_alt    "P 1"
_space_group_IT_number       1

loop_
  _space_group_symop_operation_xyz
  'x, y, z'

loop_
  _atom_site_type_symbol
  _atom_site_label
  _atom_site_symmetry_multiplicity
  _atom_site_fract_x
  _atom_site_fract_y
  _atom_site_fract_z
  _atom_site_occupancy
  Nd  Nd1       1.0  0.9330468773841858  0.3939762711524963  0.5819285511970519  1.0000
  Nd  Nd2       1.0  0.431799054145813  0.6359448432922363  0.9583869576454161  1.0000
  Nd  Nd3       1.0  0.43159717321395874  0.3288109302520752  0.1775938123464584  1.0000
  Nd  Nd4       1.0  0.9284571409225464  0.7553552389144896  0.2860966622829437  1.0000
  Nd  Nd5       1.0  0.43209612369537354  0.512514591217041  0.6174511313438414  1.0000
  Nd  Nd6       1.0  0.9260403513908385  0.08969239145517348  0.1406906396150589  1.0000
  Nd  Nd7       1.0  0.929941713809967  0.08102826774120331  0.6040337085723876  1.0000
  Nd  Nd8       1.0  0.4303174614906311  0.6733849644660949  0.17852392792701718  1.0000
  Ni  Ni1       1.0  0.9319157600402832  0.7617323398590087  0.6081913113594054  1.0000
  Ni  Ni2       1.0  0.9232856631278992  0.24990436434745786  0.36570668220520014  1.0000
  Ni  Ni3       1.0  0.43123263120651245  0.2705008387565613  0.9448938965797423  1.0000
