data_image0
_chemical_formula_structural       Nd8Ni3
_chemical_formula_sum              "Nd8 Ni3"
_cell_length_a       4.554326859646594
_cell_length_b       6.97049807321241
_cell_length_c       7.2316741943359375
_cell_angle_alpha    91.49239205657743
_cell_angle_beta     90.15440630839933
_cell_angle_gamma    88.96782329076281

_space_group_name_H-M_alt    "P 1"
_space_group_IT_number       1

loop_
  _space_group_symop_operation_xyz
  'x, y, z'

loop_
  _atom_site_type_symbol
  _atom_site_label
  _atom_site_symmetry_multiplicity
  _atom_site_fract_x
  _atom_site_fract_y
  _atom_site_fract_z
  _atom_site_occupancy
  Nd  Nd1       1.0  0.7665228247642517  0.4512382447719574  0.5537821650505066  1.0000
  Nd  Nd2       1.0  0.2645781338214874  0.9946834444999695  0.8889527916908264  1.0000
  Nd  Nd3       1.0  0.26047855615615845  0.7051241993904114  0.693045973777771  1.0000
  Nd  Nd4       1.0  0.26416292786598206  0.8256824016571045  0.5854455232620239  1.0000
  Nd  Nd5       1.0  0.7692746520042419  0.29691365361213684  0.6510306596755981  1.0000
  Nd  Nd6       1.0  0.77250075340271  0.5901572704315186  0.30100351572036743  1.0000
  Nd  Nd7       1.0  0.2568879723548889  0.18844391405582428  0.9158644676208496  1.0000
  Nd  Nd8       1.0  0.766607403755188  0.7405058145523071  0.2721472382545471  1.0000
  Ni  Ni1       1.0  0.7607515454292297  0.6982902884483337  0.41400280594825745  1.0000
  Ni  Ni2       1.0  0.2672945261001587  0.10898729413747787  0.9793165922164916  1.0000
  Ni  Ni3       1.0  0.26386356353759766  0.4844014644622803  0.6409358382225037  1.0000
