data_image0
_chemical_formula_structural       INNd4Ni5
_chemical_formula_sum              "I1 N1 Nd4 Ni5"
_cell_length_a       4.5039502265369205
_cell_length_b       7.27649540265
_cell_length_c       7.367352485656738
_cell_angle_alpha    119.32725056632712
_cell_angle_beta     91.94417516798745
_cell_angle_gamma    89.06971414190761

_space_group_name_H-M_alt    "P 1"
_space_group_IT_number       1

loop_
  _space_group_symop_operation_xyz
  'x, y, z'

loop_
  _atom_site_type_symbol
  _atom_site_label
  _atom_site_symmetry_multiplicity
  _atom_site_fract_x
  _atom_site_fract_y
  _atom_site_fract_z
  _atom_site_occupancy
  I   I1        1.0  0.565406322479248  0.15344452857971191  0.05410565063357353  1.0000
  N   N1        1.0  0.576686680316925  0.8896089196205139  0.03945706784725189  1.0000
  Nd  Nd1       1.0  0.07681220769882202  0.583443820476532  0.1429368406534195  1.0000
  Nd  Nd2       1.0  0.07697591930627823  0.14087839424610138  0.30686432123184204  1.0000
  Nd  Nd3       1.0  0.06345677375793457  0.4460519850254059  0.2082720547914505  1.0000
  Nd  Nd4       1.0  0.582460880279541  0.9902621507644653  0.5275068879127502  1.0000
  Ni  Ni1       1.0  0.07166396826505661  0.3533991575241089  0.6011993885040283  1.0000
  Ni  Ni2       1.0  0.05396463721990585  0.6234912872314453  0.9081166982650757  1.0000
  Ni  Ni3       1.0  0.5912183523178101  0.5414513945579529  0.2551240026950836  1.0000
  Ni  Ni4       1.0  0.5896636843681335  0.6276528239250183  0.5462453365325928  1.0000
  Ni  Ni5       1.0  0.06973151862621307  0.8586479425430298  0.31878918409347534  1.0000
