data_image0
_chemical_formula_structural       Nd5Ni6
_chemical_formula_sum              "Nd5 Ni6"
_cell_length_a       4.594786591236548
_cell_length_b       7.333708264492734
_cell_length_c       7.4981160163879395
_cell_angle_alpha    121.34298773137984
_cell_angle_beta     90.2347664720075
_cell_angle_gamma    87.95150579577381

_space_group_name_H-M_alt    "P 1"
_space_group_IT_number       1

loop_
  _space_group_symop_operation_xyz
  'x, y, z'

loop_
  _atom_site_type_symbol
  _atom_site_label
  _atom_site_symmetry_multiplicity
  _atom_site_fract_x
  _atom_site_fract_y
  _atom_site_fract_z
  _atom_site_occupancy
  Nd  Nd1       1.0  0.8514072299003601  0.5690013766288757  0.7147489786148071  1.0000
  Nd  Nd2       1.0  0.8524946570396423  0.0779009684920311  0.631511926651001  1.0000
  Nd  Nd3       1.0  0.34986424446105957  0.1556236743927002  0.7620936632156371  1.0000
  Nd  Nd4       1.0  0.3529868721961975  0.19752365350723267  0.6856775879859924  1.0000
  Nd  Nd5       1.0  0.8509083390235901  0.5687685012817383  0.9031927585601806  1.0000
  Ni  Ni1       1.0  0.35098785161972046  0.20542433857917786  0.5756108164787292  1.0000
  Ni  Ni2       1.0  0.8522895574569702  0.9459438920021057  0.6572310924530029  1.0000
  Ni  Ni3       1.0  0.349291056394577  0.08089068531990051  0.043241288512945175  1.0000
  Ni  Ni4       1.0  0.35144850611686707  0.5677363872528076  0.1318571269512176  1.0000
  Ni  Ni5       1.0  0.8532310128211975  0.5983785390853882  0.6084809899330139  1.0000
  Ni  Ni6       1.0  0.35279911756515503  0.8030860424041748  0.3639332950115203  1.0000
