data_image0
_chemical_formula_structural       F4Li8O4
_chemical_formula_sum              "F4 Li8 O4"
_cell_length_a       6.017755677897275
_cell_length_b       4.345328981237843
_cell_length_c       5.808631896972656
_cell_angle_alpha    57.26281229496292
_cell_angle_beta     58.42398024159761
_cell_angle_gamma    41.2757487454186

_space_group_name_H-M_alt    "P 1"
_space_group_IT_number       1

loop_
  _space_group_symop_operation_xyz
  'x, y, z'

loop_
  _atom_site_type_symbol
  _atom_site_label
  _atom_site_symmetry_multiplicity
  _atom_site_fract_x
  _atom_site_fract_y
  _atom_site_fract_z
  _atom_site_occupancy
  F   F1        1.0  0.7812182307243347  0.5991066694259644  0.8157666921615601  1.0000
  F   F2        1.0  0.7985274791717529  0.06730428338050842  0.7991959452629089  1.0000
  F   F3        1.0  0.5746221542358398  0.40285611152648926  0.7297332882881165  1.0000
  F   F4        1.0  0.9072129726409912  0.758530855178833  0.6861905455589294  1.0000
  Li  Li1       1.0  0.2038193643093109  0.3549961447715759  0.8171781301498413  1.0000
  Li  Li2       1.0  0.7194679975509644  0.3616776764392853  0.2886577844619751  1.0000
  Li  Li3       1.0  0.8547040224075317  0.23738135397434235  0.81879061460495  1.0000
  Li  Li4       1.0  0.7119494080543518  0.37116485834121704  0.33522969484329224  1.0000
  Li  Li5       1.0  0.37269842624664307  0.09994583576917648  0.0578903891146183  1.0000
  Li  Li6       1.0  0.08905554562807083  0.40098804235458374  0.7386525273323059  1.0000
  Li  Li7       1.0  0.6705464124679565  0.7097317576408386  0.4836444556713104  1.0000
  Li  Li8       1.0  0.05307019501924515  0.1989244520664215  0.0959911048412323  1.0000
  O   O1        1.0  0.35671693086624146  0.19555054605007172  0.533662736415863  1.0000
  O   O2        1.0  0.3679371476173401  0.2966161072254181  0.2568889558315277  1.0000
  O   O3        1.0  0.5531318783760071  0.030245346948504448  0.5625278353691102  1.0000
  O   O4        1.0  0.6655470132827759  0.4013838469982147  0.5598832368850708  1.0000
