data_image0
_chemical_formula_structural       F2InLi10O3
_chemical_formula_sum              "F2 In1 Li10 O3"
_cell_length_a       6.353186475155161
_cell_length_b       5.421626315005363
_cell_length_c       7.025390625
_cell_angle_alpha    60.136884263811915
_cell_angle_beta     58.028920078568234
_cell_angle_gamma    53.39314592537755

_space_group_name_H-M_alt    "P 1"
_space_group_IT_number       1

loop_
  _space_group_symop_operation_xyz
  'x, y, z'

loop_
  _atom_site_type_symbol
  _atom_site_label
  _atom_site_symmetry_multiplicity
  _atom_site_fract_x
  _atom_site_fract_y
  _atom_site_fract_z
  _atom_site_occupancy
  F   F1        1.0  0.3925318419933319  0.036077599972486496  0.42631515860557556  1.0000
  F   F2        1.0  0.035506948828697205  0.740131676197052  0.3411049544811249  1.0000
  In  In1       1.0  0.37615612149238586  0.18944963812828064  0.8583751320838928  1.0000
  Li  Li1       1.0  0.7540612816810608  0.42355987429618835  0.005112008191645145  1.0000
  Li  Li2       1.0  0.908868134021759  0.035815127193927765  0.09835758805274963  1.0000
  Li  Li3       1.0  0.3669147193431854  0.7487596273422241  0.7025214433670044  1.0000
  Li  Li4       1.0  0.5651361346244812  0.6108217835426331  0.029543623328208923  1.0000
  Li  Li5       1.0  0.563003420829773  0.7603570818901062  0.3451486825942993  1.0000
  Li  Li6       1.0  0.823087215423584  0.776860773563385  0.32026904821395874  1.0000
  Li  Li7       1.0  0.1410595327615738  0.4347359538078308  0.38219717144966125  1.0000
  Li  Li8       1.0  0.594627857208252  0.28089016675949097  0.41566553711891174  1.0000
  Li  Li9       1.0  0.173086017370224  0.009585353545844555  0.4597267210483551  1.0000
  Li  Li10      1.0  0.18732386827468872  0.20910070836544037  0.8490135669708252  1.0000
  O   O1        1.0  0.6555861830711365  0.09357358515262604  0.07774798572063446  1.0000
  O   O2        1.0  0.1778234988451004  0.42392826080322266  0.10016535222530365  1.0000
  O   O3        1.0  0.9078329205513  0.3592414855957031  0.06704863160848618  1.0000
