data_image0
_chemical_formula_structural       Fe4Li4O6S2
_chemical_formula_sum              "Fe4 Li4 O6 S2"
_cell_length_a       5.698304274949451
_cell_length_b       5.620195087029865
_cell_length_c       5.894351005554199
_cell_angle_alpha    65.66488173309816
_cell_angle_beta     64.73102141926586
_cell_angle_gamma    63.99730367874263

_space_group_name_H-M_alt    "P 1"
_space_group_IT_number       1

loop_
  _space_group_symop_operation_xyz
  'x, y, z'

loop_
  _atom_site_type_symbol
  _atom_site_label
  _atom_site_symmetry_multiplicity
  _atom_site_fract_x
  _atom_site_fract_y
  _atom_site_fract_z
  _atom_site_occupancy
  Fe  Fe1       1.0  0.7726917862892151  0.8861333131790161  0.0833144262433052  1.0000
  Fe  Fe2       1.0  0.0291898250579834  0.9383578300476074  0.527470588684082  1.0000
  Fe  Fe3       1.0  0.7714532017707825  0.3206370174884796  0.7177652716636658  1.0000
  Fe  Fe4       1.0  0.7518465518951416  0.6059012413024902  0.4851706326007843  1.0000
  Li  Li1       1.0  0.26558348536491394  0.2959817349910736  0.36033904552459717  1.0000
  Li  Li2       1.0  0.7855691909790039  0.3889731466770172  0.8249913454055786  1.0000
  Li  Li3       1.0  0.5363813042640686  0.9373313784599304  0.5800269842147827  1.0000
  Li  Li4       1.0  0.07051216810941696  0.3113328218460083  0.5268543362617493  1.0000
  O   O1        1.0  0.7991397976875305  0.13999274373054504  0.4944005012512207  1.0000
  O   O2        1.0  0.5638189315795898  0.05338406562805176  0.24129369854927057  1.0000
  O   O3        1.0  0.5683806538581848  0.05818217992782593  0.17326945066452026  1.0000
  O   O4        1.0  0.018332650884985924  0.9157140851020813  0.22221258282661438  1.0000
  O   O5        1.0  0.4639465808868408  0.6862043142318726  0.5042768120765686  1.0000
  O   O6        1.0  0.02096620388329029  0.27360713481903076  0.7987556457519531  1.0000
  S   S1        1.0  0.2765933573246002  0.23113417625427246  0.37865927815437317  1.0000
  S   S2        1.0  0.29230573773384094  0.755535364151001  0.6465005874633789  1.0000
