data_image0
_chemical_formula_structural       F3ILi6O6
_chemical_formula_sum              "F3 I1 Li6 O6"
_cell_length_a       5.912011335699296
_cell_length_b       5.152261032141001
_cell_length_c       6.458438396453857
_cell_angle_alpha    68.83739360867106
_cell_angle_beta     65.43490766875175
_cell_angle_gamma    61.17819820259901

_space_group_name_H-M_alt    "P 1"
_space_group_IT_number       1

loop_
  _space_group_symop_operation_xyz
  'x, y, z'

loop_
  _atom_site_type_symbol
  _atom_site_label
  _atom_site_symmetry_multiplicity
  _atom_site_fract_x
  _atom_site_fract_y
  _atom_site_fract_z
  _atom_site_occupancy
  F   F1        1.0  0.9688577055931091  0.6557871699333191  0.7850603461265564  1.0000
  F   F2        1.0  0.25718140602111816  0.7968068718910217  0.939254641532898  1.0000
  F   F3        1.0  0.6746339797973633  0.19326822459697723  0.8804433345794678  1.0000
  I   I1        1.0  0.26249590516090393  0.8658881187438965  0.0057961950078606606  1.0000
  Li  Li1       1.0  0.18654921650886536  0.9329694509506226  0.04568559303879738  1.0000
  Li  Li2       1.0  0.5723673701286316  0.09704016894102097  0.20654502511024475  1.0000
  Li  Li3       1.0  0.9583780169487  0.646554172039032  0.3933537006378174  1.0000
  Li  Li4       1.0  0.29201555252075195  0.715338408946991  0.5074835419654846  1.0000
  Li  Li5       1.0  0.5438360571861267  0.3867965042591095  0.022877439856529236  1.0000
  Li  Li6       1.0  0.6844235062599182  0.009164070710539818  0.031985197216272354  1.0000
  O   O1        1.0  0.185038760304451  0.6345550417900085  0.34503600001335144  1.0000
  O   O2        1.0  0.17597389221191406  0.8870851397514343  0.5239694118499756  1.0000
  O   O3        1.0  0.19498875737190247  0.2511410117149353  0.6806949377059937  1.0000
  O   O4        1.0  0.7374520897865295  0.927516520023346  0.1764577031135559  1.0000
  O   O5        1.0  0.23589640855789185  0.837817907333374  0.6525602340698242  1.0000
  O   O6        1.0  0.6917349696159363  0.7596050500869751  0.9874867796897888  1.0000
