data_image0
_chemical_formula_structural       F3Li8O3PZn
_chemical_formula_sum              "F3 Li8 O3 P1 Zn1"
_cell_length_a       7.514041062962986
_cell_length_b       7.281056868787242
_cell_length_c       7.719422340393066
_cell_angle_alpha    59.53516768000698
_cell_angle_beta     60.159231270319324
_cell_angle_gamma    58.253112353231494

_space_group_name_H-M_alt    "P 1"
_space_group_IT_number       1

loop_
  _space_group_symop_operation_xyz
  'x, y, z'

loop_
  _atom_site_type_symbol
  _atom_site_label
  _atom_site_symmetry_multiplicity
  _atom_site_fract_x
  _atom_site_fract_y
  _atom_site_fract_z
  _atom_site_occupancy
  F   F1        1.0  0.5960896611213684  0.09830012917518616  0.0865531340241432  1.0000
  F   F2        1.0  0.979666531085968  0.7153152823448181  0.09551183134317386  1.0000
  F   F3        1.0  0.9759966135025024  0.6075693368911743  0.06860025972127914  1.0000
  Li  Li1       1.0  0.19746220111846924  0.33374303579330444  0.5448300242424011  1.0000
  Li  Li2       1.0  0.6204255223274231  0.6610024571418762  0.0054433909244834796  1.0000
  Li  Li3       1.0  0.6047454476356506  0.09031417965888977  0.19274178147315976  1.0000
  Li  Li4       1.0  0.3432237207889557  0.4325735569000244  0.9235598444938659  1.0000
  Li  Li5       1.0  0.6615817546844482  0.008874861523509026  0.6314288973808286  1.0000
  Li  Li6       1.0  0.29109007120132446  0.8687046766281128  0.12149436026811598  1.0000
  Li  Li7       1.0  0.49795252084732056  0.8403600454330444  0.07193294912576674  1.0000
  Li  Li8       1.0  0.9691492319107056  0.012465447187423706  0.056338213384151396  1.0000
  O   O1        1.0  0.05156424269080162  0.5334229469299316  0.3135624229907989  1.0000
  O   O2        1.0  0.9039156436920166  0.33031991124153137  0.8942999839782714  1.0000
  O   O3        1.0  0.4210713803768158  0.7285895347595215  0.05480409786105155  1.0000
  P   P1        1.0  0.9649547934532166  0.6078129410743713  0.08538267016410826  1.0000
  Zn  Zn1       1.0  0.5707186460494995  0.8158858418464661  0.22740808129310605  1.0000
