data_image0
_chemical_formula_structural       FLi7O6S2
_chemical_formula_sum              "F1 Li7 O6 S2"
_cell_length_a       5.492682516615149
_cell_length_b       5.429923380625325
_cell_length_c       5.803098201751709
_cell_angle_alpha    71.17567492626233
_cell_angle_beta     69.44277123705166
_cell_angle_gamma    64.16855057783253

_space_group_name_H-M_alt    "P 1"
_space_group_IT_number       1

loop_
  _space_group_symop_operation_xyz
  'x, y, z'

loop_
  _atom_site_type_symbol
  _atom_site_label
  _atom_site_symmetry_multiplicity
  _atom_site_fract_x
  _atom_site_fract_y
  _atom_site_fract_z
  _atom_site_occupancy
  F   F1        1.0  0.9577596187591553  0.6557600498199463  0.4244411885738373  1.0000
  Li  Li1       1.0  0.44795534014701843  0.5979939103126526  0.010975846089422703  1.0000
  Li  Li2       1.0  0.9359097480773926  0.1842075139284134  0.7944115996360779  1.0000
  Li  Li3       1.0  0.4482935070991516  0.21319009363651276  0.5083292722702026  1.0000
  Li  Li4       1.0  0.44932839274406433  0.7169411778450012  0.2501046657562256  1.0000
  Li  Li5       1.0  0.6583347320556641  0.4429797828197479  0.8544964790344238  1.0000
  Li  Li6       1.0  0.15923795104026794  0.19278256595134735  0.6304447054862976  1.0000
  Li  Li7       1.0  0.1563788801431656  0.6718214750289917  0.16501781344413757  1.0000
  O   O1        1.0  0.6416072249412537  0.6023114919662476  0.8215159773826599  1.0000
  O   O2        1.0  0.6009305715560913  0.5171977877616882  0.7618817687034607  1.0000
  O   O3        1.0  0.6342993378639221  0.9488693475723267  0.4119017422199249  1.0000
  O   O4        1.0  0.9429522156715393  0.9943363666534424  0.850023627281189  1.0000
  O   O5        1.0  0.11097200959920883  0.8914777636528015  0.7226686477661133  1.0000
  O   O6        1.0  0.08402924239635468  0.8357816934585571  0.9169390201568604  1.0000
  S   S1        1.0  0.44166070222854614  0.17042693495750427  0.10144000500440598  1.0000
  S   S2        1.0  0.944613516330719  0.8459779024124146  0.6887357831001282  1.0000
