data_image0
_chemical_formula_structural       BiCGa2Ge2I2LiLuOPSc
_chemical_formula_sum              "Bi1 C1 Ga2 Ge2 I2 Li1 Lu1 O1 P1 Sc1"
_cell_length_a       6.26328743464778
_cell_length_b       7.814083749267632
_cell_length_c       8.289932250976562
_cell_angle_alpha    62.57326172191357
_cell_angle_beta     66.98403215595091
_cell_angle_gamma    65.39413856659719

_space_group_name_H-M_alt    "P 1"
_space_group_IT_number       1

loop_
  _space_group_symop_operation_xyz
  'x, y, z'

loop_
  _atom_site_type_symbol
  _atom_site_label
  _atom_site_symmetry_multiplicity
  _atom_site_fract_x
  _atom_site_fract_y
  _atom_site_fract_z
  _atom_site_occupancy
  Bi  Bi1       1.0  0.5951546430587769  0.9834539294242859  0.917441189289093  1.0000
  C   C1        1.0  0.13858215510845184  0.47000324726104736  0.9257435202598572  1.0000
  Ga  Ga1       1.0  0.18603821098804474  0.8518248200416565  0.37676987051963806  1.0000
  Ga  Ga2       1.0  0.1359172910451889  0.8864148259162903  0.15874449908733368  1.0000
  Ge  Ge1       1.0  0.10540758818387985  0.4627264738082886  0.908595860004425  1.0000
  Ge  Ge2       1.0  0.13566792011260986  0.6849419474601746  0.8678961992263794  1.0000
  I   I1        1.0  0.08382025361061096  0.9136070609092712  0.8580365777015686  1.0000
  I   I2        1.0  0.9045369625091552  0.06387919187545776  0.17023959755897522  1.0000
  Li  Li1       1.0  0.6107758283615112  0.3566104471683502  0.1688299030065537  1.0000
  Lu  Lu1       1.0  0.8689486384391784  0.33612874150276184  0.0996115580201149  1.0000
  O   O1        1.0  0.2920134663581848  0.29406484961509705  0.6167246103286743  1.0000
  P   P1        1.0  0.1188155636191368  0.5428049564361572  0.5432955026626587  1.0000
  Sc  Sc1       1.0  0.6330540180206299  0.15859545767307281  0.9539894461631775  1.0000
