data_image0
_chemical_formula_structural       AsBiClGe4I2Li2P2
_chemical_formula_sum              "As1 Bi1 Cl1 Ge4 I2 Li2 P2"
_cell_length_a       4.508819091527622
_cell_length_b       6.766693392726088
_cell_length_c       11.115952491760254
_cell_angle_alpha    90.52722267604685
_cell_angle_beta     89.53085694963876
_cell_angle_gamma    90.35099918957009

_space_group_name_H-M_alt    "P 1"
_space_group_IT_number       1

loop_
  _space_group_symop_operation_xyz
  'x, y, z'

loop_
  _atom_site_type_symbol
  _atom_site_label
  _atom_site_symmetry_multiplicity
  _atom_site_fract_x
  _atom_site_fract_y
  _atom_site_fract_z
  _atom_site_occupancy
  As  As1       1.0  0.018356727436184883  0.523777425289154  0.3818981349468231  1.0000
  Bi  Bi1       1.0  0.5256563425064087  0.5061659216880798  0.23608383536338806  1.0000
  Cl  Cl1       1.0  0.028578385710716248  0.797817587852478  0.16624146699905396  1.0000
  Ge  Ge1       1.0  0.015125356614589691  0.7988399267196655  0.7619599103927612  1.0000
  Ge  Ge2       1.0  0.018405044451355934  0.19713053107261658  0.6250040531158447  1.0000
  Ge  Ge3       1.0  0.5225226879119873  0.2652937173843384  0.845988154411316  1.0000
  Ge  Ge4       1.0  0.5173856019973755  0.8946242332458496  0.10675664991140366  1.0000
  I   I1        1.0  0.018368462100625038  0.5716580152511597  0.6503608822822571  1.0000
  I   I2        1.0  0.5199772715568542  0.527794361114502  0.4420046806335449  1.0000
  Li  Li1       1.0  0.5199079513549805  0.03839603811502457  0.26095426082611084  1.0000
  Li  Li2       1.0  0.5289310812950134  0.45885905623435974  0.19341941177845  1.0000
  P   P1        1.0  0.027430396527051926  0.5297852754592896  0.42559683322906494  1.0000
  P   P2        1.0  0.5258846879005432  0.07744216918945312  0.7376915216445924  1.0000
