data_image0
_chemical_formula_structural       BiCCl2Co2GeLaLiPbUYZn
_chemical_formula_sum              "Bi1 C1 Cl2 Co2 Ge1 La1 Li1 Pb1 U1 Y1 Zn1"
_cell_length_a       4.550824537016168
_cell_length_b       6.9267108184857955
_cell_length_c       8.955255508422852
_cell_angle_alpha    90.55161079904278
_cell_angle_beta     92.15020875350501
_cell_angle_gamma    91.42866818283004

_space_group_name_H-M_alt    "P 1"
_space_group_IT_number       1

loop_
  _space_group_symop_operation_xyz
  'x, y, z'

loop_
  _atom_site_type_symbol
  _atom_site_label
  _atom_site_symmetry_multiplicity
  _atom_site_fract_x
  _atom_site_fract_y
  _atom_site_fract_z
  _atom_site_occupancy
  Bi  Bi1       1.0  0.06341943889856339  0.1298375129699707  0.6035799384117126  1.0000
  C   C1        1.0  0.5577316284179688  0.17762985825538638  0.1083621084690094  1.0000
  Cl  Cl1       1.0  0.06367619335651398  0.5882723331451416  0.9363242983818054  1.0000
  Cl  Cl2       1.0  0.0341007262468338  0.5256533622741699  0.6450965404510498  1.0000
  Co  Co1       1.0  0.07728549093008041  0.1916826814413071  0.6736434698104858  1.0000
  Co  Co2       1.0  0.06796158105134964  0.2805148959159851  0.8890511393547058  1.0000
  Ge  Ge1       1.0  0.5626606941223145  0.7023941278457643  0.09063763171434402  1.0000
  La  La1       1.0  0.08033899962902069  0.22922135889530185  0.3973429203033447  1.0000
  Li  Li1       1.0  0.5790637731552124  0.5286120176315308  0.267181932926178  1.0000
  Pb  Pb1       1.0  0.07987841218709946  0.2677043378353119  0.08841830492019653  1.0000
  U   U1        1.0  0.5676891207695007  0.42645817995071417  0.6191861033439636  1.0000
  Y   Y1        1.0  0.5896781086921692  0.4328522086143494  0.34710168838500977  1.0000
  Zn  Zn1       1.0  0.5720033049583435  0.2635059952735901  0.9062397480010986  1.0000
