data_image0
_chemical_formula_structural       Ge4Li4OP2PbY
_chemical_formula_sum              "Ge4 Li4 O1 P2 Pb1 Y1"
_cell_length_a       5.3699693137596425
_cell_length_b       6.004403351720465
_cell_length_c       8.239633560180664
_cell_angle_alpha    90.12913146163265
_cell_angle_beta     90.05858111149664
_cell_angle_gamma    92.00399583824804

_space_group_name_H-M_alt    "P 1"
_space_group_IT_number       1

loop_
  _space_group_symop_operation_xyz
  'x, y, z'

loop_
  _atom_site_type_symbol
  _atom_site_label
  _atom_site_symmetry_multiplicity
  _atom_site_fract_x
  _atom_site_fract_y
  _atom_site_fract_z
  _atom_site_occupancy
  Ge  Ge1       1.0  0.6118559241294861  0.8218259215354919  0.9601709842681885  1.0000
  Ge  Ge2       1.0  0.03620145469903946  0.14758695662021637  0.9248583912849426  1.0000
  Ge  Ge3       1.0  0.46655040979385376  0.9440119862556458  0.44781494140625  1.0000
  Ge  Ge4       1.0  0.7286103963851929  0.4894932210445404  0.36310985684394836  1.0000
  Li  Li1       1.0  0.170822873711586  0.9518055319786072  0.9748399257659912  1.0000
  Li  Li2       1.0  0.1665295511484146  0.4666164517402649  0.21152518689632416  1.0000
  Li  Li3       1.0  0.26754137873649597  0.7951148748397827  0.6531126499176025  1.0000
  Li  Li4       1.0  0.6713212728500366  0.2129538208246231  0.05975041538476944  1.0000
  O   O1        1.0  0.4634582996368408  0.18467415869235992  0.36531031131744385  1.0000
  P   P1        1.0  0.2635842561721802  0.3086017668247223  0.8612658977508545  1.0000
  P   P2        1.0  0.9635605216026306  0.985784113407135  0.9138591885566711  1.0000
  Pb  Pb1       1.0  0.7741760015487671  0.18402709066867828  0.6407296061515808  1.0000
  Y   Y1        1.0  0.6306352615356445  0.8001721501350403  0.836798906326294  1.0000
