data_image0
_chemical_formula_structural       Bi3Cl2O4Y4
_chemical_formula_sum              "Bi3 Cl2 O4 Y4"
_cell_length_a       5.266563385998365
_cell_length_b       5.2316691330058385
_cell_length_c       10.258710861206055
_cell_angle_alpha    89.47807643819075
_cell_angle_beta     90.8668142809723
_cell_angle_gamma    91.34810588820585

_space_group_name_H-M_alt    "P 1"
_space_group_IT_number       1

loop_
  _space_group_symop_operation_xyz
  'x, y, z'

loop_
  _atom_site_type_symbol
  _atom_site_label
  _atom_site_symmetry_multiplicity
  _atom_site_fract_x
  _atom_site_fract_y
  _atom_site_fract_z
  _atom_site_occupancy
  Bi  Bi1       1.0  0.8042490482330324  0.8935659527778627  0.5343368053436279  1.0000
  Bi  Bi2       1.0  0.8082855343818665  0.14432016015052795  0.9632199406623841  1.0000
  Bi  Bi3       1.0  0.2820489704608917  0.6631432175636292  0.36383533477783203  1.0000
  Cl  Cl1       1.0  0.6966736316680908  0.029409345239400867  0.1588924527168274  1.0000
  Cl  Cl2       1.0  0.2981422245502472  0.7973722815513611  0.611379861831665  1.0000
  O   O1        1.0  0.8032518625259399  0.787368655204773  0.5865321755409241  1.0000
  O   O2        1.0  0.8079549074172974  0.03858151286840439  0.2492511570453644  1.0000
  O   O3        1.0  0.8215429186820984  0.3417946994304657  0.5915876030921936  1.0000
  O   O4        1.0  0.05740943178534508  0.2933168411254883  0.11973023414611818  1.0000
  Y   Y1        1.0  0.31913042068481445  0.2876282334327698  0.5384793281555176  1.0000
  Y   Y2        1.0  0.27925190329551697  0.2580433189868927  0.37112921476364136  1.0000
  Y   Y3        1.0  0.8154562711715698  0.2347069084644318  0.6661373376846313  1.0000
  Y   Y4        1.0  0.533909797668457  0.6927670836448669  0.5331329703330994  1.0000
