data_image0
_chemical_formula_structural       Bi2Cl2HgO4Y4
_chemical_formula_sum              "Bi2 Cl2 Hg1 O4 Y4"
_cell_length_a       5.757545492204651
_cell_length_b       5.815277539348359
_cell_length_c       7.351195335388184
_cell_angle_alpha    92.67852679777074
_cell_angle_beta     95.6180862277339
_cell_angle_gamma    100.42512884190866

_space_group_name_H-M_alt    "P 1"
_space_group_IT_number       1

loop_
  _space_group_symop_operation_xyz
  'x, y, z'

loop_
  _atom_site_type_symbol
  _atom_site_label
  _atom_site_symmetry_multiplicity
  _atom_site_fract_x
  _atom_site_fract_y
  _atom_site_fract_z
  _atom_site_occupancy
  Bi  Bi1       1.0  0.244110569357872  0.8184415102005005  0.7388471961021423  1.0000
  Bi  Bi2       1.0  0.9962218403816223  0.6522337198257446  0.01587074249982834  1.0000
  Cl  Cl1       1.0  0.24694254994392395  0.7855049967765808  0.8012406229972839  1.0000
  Cl  Cl2       1.0  0.36236897110939026  0.5879723429679871  0.3405035734176636  1.0000
  Hg  Hg1       1.0  0.7691547870635986  0.001291740802116692  0.6780079007148743  1.0000
  O   O1        1.0  0.22200337052345276  0.029217420145869255  0.25627267360687256  1.0000
  O   O2        1.0  0.7288489937782288  0.38093847036361694  0.39671656489372253  1.0000
  O   O3        1.0  0.7514044046401978  0.3800607919692993  0.46473070979118347  1.0000
  O   O4        1.0  0.24718329310417175  0.5845209956169128  0.22981414198875427  1.0000
  Y   Y1        1.0  0.3937588930130005  0.6705426573753357  0.8086913228034973  1.0000
  Y   Y2        1.0  0.752312183380127  0.9150591492652893  0.5858426094055176  1.0000
  Y   Y3        1.0  0.49546828866004944  0.3545209467411041  0.7769442200660706  1.0000
  Y   Y4        1.0  0.9215162396430969  0.44902893900871277  0.12389945238828659  1.0000
