data_image0
_chemical_formula_structural       F2I2Pt3Zn3
_chemical_formula_sum              "F2 I2 Pt3 Zn3"
_cell_length_a       5.643056185748823
_cell_length_b       5.513451635439348
_cell_length_c       6.941462993621826
_cell_angle_alpha    122.83583419068063
_cell_angle_beta     94.07826707187753
_cell_angle_gamma    88.17184046820056

_space_group_name_H-M_alt    "P 1"
_space_group_IT_number       1

loop_
  _space_group_symop_operation_xyz
  'x, y, z'

loop_
  _atom_site_type_symbol
  _atom_site_label
  _atom_site_symmetry_multiplicity
  _atom_site_fract_x
  _atom_site_fract_y
  _atom_site_fract_z
  _atom_site_occupancy
  F   F1        1.0  0.6402115821838379  0.3098489046096802  0.49375230073928833  1.0000
  F   F2        1.0  0.09236817806959152  0.6555778980255127  0.23407147824764246  1.0000
  I   I1        1.0  0.2931784391403198  0.7485540509223938  0.17198653519153587  1.0000
  I   I2        1.0  0.7782880067825317  0.29370275139808655  0.25061774253845215  1.0000
  Pt  Pt1       1.0  0.2913394272327423  0.6185087561607361  0.8269434571266174  1.0000
  Pt  Pt2       1.0  0.2770098149776459  0.04527927562594414  0.15392763912677765  1.0000
  Pt  Pt3       1.0  0.28832706809043884  0.9171870350837708  0.023049790412187576  1.0000
  Zn  Zn1       1.0  0.29303422570228577  0.1907438039779663  0.8283310532569885  1.0000
  Zn  Zn2       1.0  0.7908236384391785  0.9475811123847961  0.3211871087551117  1.0000
  Zn  Zn3       1.0  0.7555058598518372  0.9361333250999451  0.1930612921714782  1.0000
