data_image0
_chemical_formula_structural       CaCdF3Pt3Zn2
_chemical_formula_sum              "Ca1 Cd1 F3 Pt3 Zn2"
_cell_length_a       6.614393055684727
_cell_length_b       5.651734085173613
_cell_length_c       6.901086330413818
_cell_angle_alpha    57.150650000852536
_cell_angle_beta     57.52236473323918
_cell_angle_gamma    55.07391558818422

_space_group_name_H-M_alt    "P 1"
_space_group_IT_number       1

loop_
  _space_group_symop_operation_xyz
  'x, y, z'

loop_
  _atom_site_type_symbol
  _atom_site_label
  _atom_site_symmetry_multiplicity
  _atom_site_fract_x
  _atom_site_fract_y
  _atom_site_fract_z
  _atom_site_occupancy
  Ca  Ca1       1.0  0.8354153037071229  0.4583483040332794  0.4887527525424956  1.0000
  Cd  Cd1       1.0  0.29746517539024353  0.4901646077632904  0.7845529913902283  1.0000
  F   F1        1.0  0.4887244105339051  0.8304203152656555  0.2713509500026703  1.0000
  F   F2        1.0  0.6368221044540405  0.9069616794586182  0.6187711358070374  1.0000
  F   F3        1.0  0.982618808746338  0.09993741661310196  0.4494288563728332  1.0000
  Pt  Pt1       1.0  0.503986656665802  0.06926114857196808  0.5367826819419861  1.0000
  Pt  Pt2       1.0  0.8268630504608155  0.3187306225299835  0.8917539119720459  1.0000
  Pt  Pt3       1.0  0.5419564247131348  0.785547137260437  0.18208551406860352  1.0000
  Zn  Zn1       1.0  0.019080115482211113  0.7597376704216003  0.30043959617614746  1.0000
  Zn  Zn2       1.0  0.9648702740669252  0.8459457159042358  0.5624165534973145  1.0000
