data_image0
_chemical_formula_structural       F2Na4Ti4
_chemical_formula_sum              "F2 Na4 Ti4"
_cell_length_a       5.345254318420541
_cell_length_b       5.336230388785523
_cell_length_c       5.393979549407959
_cell_angle_alpha    69.55220770908538
_cell_angle_beta     75.88941332326483
_cell_angle_gamma    76.67423898680627

_space_group_name_H-M_alt    "P 1"
_space_group_IT_number       1

loop_
  _space_group_symop_operation_xyz
  'x, y, z'

loop_
  _atom_site_type_symbol
  _atom_site_label
  _atom_site_symmetry_multiplicity
  _atom_site_fract_x
  _atom_site_fract_y
  _atom_site_fract_z
  _atom_site_occupancy
  F   F1        1.0  0.3728203773498535  0.9278835654258728  0.4320359528064727  1.0000
  F   F2        1.0  0.2802054286003113  0.3846968710422516  0.2661125063896179  1.0000
  Na  Na1       1.0  0.9058279395103456  0.6216683387756348  0.39750489592552185  1.0000
  Na  Na2       1.0  0.9047935605049134  0.564245343208313  0.15844027698040009  1.0000
  Na  Na3       1.0  0.903726100921631  0.33964917063713074  0.25212618708610535  1.0000
  Na  Na4       1.0  0.4042073786258698  0.7255077362060547  0.26807108521461487  1.0000
  Ti  Ti1       1.0  0.411277323961258  0.10618060827255249  0.1262814849615097  1.0000
  Ti  Ti2       1.0  0.9039769768714906  0.7450029253959656  0.16957058012485504  1.0000
  Ti  Ti3       1.0  0.2537430226802826  0.2892386019229889  0.6632369756698608  1.0000
  Ti  Ti4       1.0  0.4242593944072724  0.9401252865791321  0.9505038261413574  1.0000
