data_image0
_chemical_formula_structural       FNa4Ti5
_chemical_formula_sum              "F1 Na4 Ti5"
_cell_length_a       5.7285884767367135
_cell_length_b       5.395534055809158
_cell_length_c       5.760587692260742
_cell_angle_alpha    70.72992458321404
_cell_angle_beta     67.55611349555603
_cell_angle_gamma    74.22705900320926

_space_group_name_H-M_alt    "P 1"
_space_group_IT_number       1

loop_
  _space_group_symop_operation_xyz
  'x, y, z'

loop_
  _atom_site_type_symbol
  _atom_site_label
  _atom_site_symmetry_multiplicity
  _atom_site_fract_x
  _atom_site_fract_y
  _atom_site_fract_z
  _atom_site_occupancy
  F   F1        1.0  0.109665647149086  0.7552656531333923  0.8959822058677672  1.0000
  Na  Na1       1.0  0.810669481754303  0.7649508118629456  0.7671455740928649  1.0000
  Na  Na2       1.0  0.814741313457489  0.4719603657722473  0.9706472158432006  1.0000
  Na  Na3       1.0  0.31190726161003113  0.6369473338127136  0.45125931501388544  1.0000
  Na  Na4       1.0  0.8120205998420715  0.7586872577667236  0.20286653935909268  1.0000
  Ti  Ti1       1.0  0.5509976744651794  0.7026419043540955  0.28261038661003113  1.0000
  Ti  Ti2       1.0  0.8127382397651672  0.35153090953826904  0.34056344628334045  1.0000
  Ti  Ti3       1.0  0.0557643361389637  0.2514364719390869  0.2178399562835693  1.0000
  Ti  Ti4       1.0  0.8112852573394775  0.6909000277519226  0.47405663132667536  1.0000
  Ti  Ti5       1.0  0.31916236877441406  0.7822304964065552  0.6875304579734802  1.0000
