data_image0
_chemical_formula_structural       AuF3NaPt2TiZn2
_chemical_formula_sum              "Au1 F3 Na1 Pt2 Ti1 Zn2"
_cell_length_a       4.854380954735228
_cell_length_b       4.721209578317919
_cell_length_c       4.760507106781006
_cell_angle_alpha    91.75353302044165
_cell_angle_beta     92.41631572083824
_cell_angle_gamma    100.31005391736429

_space_group_name_H-M_alt    "P 1"
_space_group_IT_number       1

loop_
  _space_group_symop_operation_xyz
  'x, y, z'

loop_
  _atom_site_type_symbol
  _atom_site_label
  _atom_site_symmetry_multiplicity
  _atom_site_fract_x
  _atom_site_fract_y
  _atom_site_fract_z
  _atom_site_occupancy
  Au  Au1       1.0  0.6483249664306641  0.5262119770050049  0.18809613585472107  1.0000
  F   F1        1.0  0.48802441358566284  0.616570770740509  0.7505505084991455  1.0000
  F   F2        1.0  0.17774701118469238  0.6687065958976746  0.5151745080947876  1.0000
  F   F3        1.0  0.6881842613220215  0.569573700428009  0.34750616550445557  1.0000
  Na  Na1       1.0  0.6607999205589294  0.4998825490474701  0.367882639169693  1.0000
  Pt  Pt1       1.0  0.13558566570281982  0.6666989326477051  0.521666944026947  1.0000
  Pt  Pt2       1.0  0.6657804250717163  0.5830673575401306  0.8738493919372559  1.0000
  Ti  Ti1       1.0  0.26628026366233826  0.26868051290512085  0.3154754340648651  1.0000
  Zn  Zn1       1.0  0.1514083594083786  0.3088567852973938  0.09231219440698624  1.0000
  Zn  Zn2       1.0  0.6504141688346863  0.7955671548843384  0.5898651480674744  1.0000
