data_image0
_chemical_formula_structural       F3IPt3TiZn2
_chemical_formula_sum              "F3 I1 Pt3 Ti1 Zn2"
_cell_length_a       5.968931862623084
_cell_length_b       5.698024293854674
_cell_length_c       6.708631992340088
_cell_angle_alpha    88.54349235691346
_cell_angle_beta     87.47917726357379
_cell_angle_gamma    93.12389229761872

_space_group_name_H-M_alt    "P 1"
_space_group_IT_number       1

loop_
  _space_group_symop_operation_xyz
  'x, y, z'

loop_
  _atom_site_type_symbol
  _atom_site_label
  _atom_site_symmetry_multiplicity
  _atom_site_fract_x
  _atom_site_fract_y
  _atom_site_fract_z
  _atom_site_occupancy
  F   F1        1.0  0.7560985088348389  0.30938252806663513  0.4158601462841034  1.0000
  F   F2        1.0  0.5183801054954529  0.009036374278366566  0.05378779023885727  1.0000
  F   F3        1.0  0.6296105980873108  0.22142294049263  0.920599639415741  1.0000
  I   I1        1.0  0.26848819851875305  0.6355648040771484  0.6553364396095276  1.0000
  Pt  Pt1       1.0  0.27772191166877747  0.3248133361339569  0.7813163995742798  1.0000
  Pt  Pt2       1.0  0.7490735054016113  0.31978392601013184  0.7671912908554077  1.0000
  Pt  Pt3       1.0  0.2526284456253052  0.9186521172523499  0.48153871297836304  1.0000
  Ti  Ti1       1.0  0.06605172157287598  0.378665953874588  0.9987472891807556  1.0000
  Zn  Zn1       1.0  0.7645559310913086  0.06511954218149185  0.34669268131256104  1.0000
  Zn  Zn2       1.0  0.7653550505638123  0.6112691164016724  0.684812605381012  1.0000
