data_image0
_chemical_formula_structural       INa4O3Zn
_chemical_formula_sum              "I1 Na4 O3 Zn1"
_cell_length_a       4.79763756084847
_cell_length_b       7.4700928152435155
_cell_length_c       7.763749599456787
_cell_angle_alpha    119.98263997988248
_cell_angle_beta     101.22983258701106
_cell_angle_gamma    86.982401955098

_space_group_name_H-M_alt    "P 1"
_space_group_IT_number       1

loop_
  _space_group_symop_operation_xyz
  'x, y, z'

loop_
  _atom_site_type_symbol
  _atom_site_label
  _atom_site_symmetry_multiplicity
  _atom_site_fract_x
  _atom_site_fract_y
  _atom_site_fract_z
  _atom_site_occupancy
  I   I1        1.0  0.7495781779289246  0.9964513182640076  0.3620609343051911  1.0000
  Na  Na1       1.0  0.5734711289405823  0.712203323841095  0.9047271609306337  1.0000
  Na  Na2       1.0  0.08315964788198471  0.6607828140258789  0.8445935249328614  1.0000
  Na  Na3       1.0  0.16063794493675232  0.3123391568660736  0.5828930735588074  1.0000
  Na  Na4       1.0  0.7479479312896729  0.9372709393501282  0.6868326663970948  1.0000
  O   O1        1.0  0.1600772887468338  0.8633112907409668  0.7838689088821412  1.0000
  O   O2        1.0  0.21060648560523987  0.9930211901664734  0.35536122322082525  1.0000
  O   O3        1.0  0.6637957692146301  0.7371784448623657  0.5639958381652832  1.0000
  Zn  Zn1       1.0  0.48626554012298584  0.19754359126091003  0.6376401185989381  1.0000
