data_image0
_chemical_formula_structural       B4MoP3RuZn
_chemical_formula_sum              "B4 Mo1 P3 Ru1 Zn1"
_cell_length_a       5.709508593168925
_cell_length_b       5.929907876342865
_cell_length_c       5.801852703094482
_cell_angle_alpha    61.95923882361157
_cell_angle_beta     61.11700459153686
_cell_angle_gamma    62.568343764772045

_space_group_name_H-M_alt    "P 1"
_space_group_IT_number       1

loop_
  _space_group_symop_operation_xyz
  'x, y, z'

loop_
  _atom_site_type_symbol
  _atom_site_label
  _atom_site_symmetry_multiplicity
  _atom_site_fract_x
  _atom_site_fract_y
  _atom_site_fract_z
  _atom_site_occupancy
  B   B1        1.0  0.18254387378692627  0.6449547410011292  0.7655879259109497  1.0000
  B   B2        1.0  0.17085130512714386  0.652164101600647  0.32765674591064453  1.0000
  B   B3        1.0  0.7430886626243591  0.9836289286613464  0.8330840468406677  1.0000
  B   B4        1.0  0.4958702623844146  0.18662482500076294  0.5866538882255554  1.0000
  Mo  Mo1       1.0  0.491480141878128  0.8402134776115417  0.794064998626709  1.0000
  P   P1        1.0  0.987172782421112  0.6745201945304871  0.889037549495697  1.0000
  P   P2        1.0  0.6876717805862427  0.14832547307014465  0.26709243655204773  1.0000
  P   P3        1.0  0.4582094252109527  0.5749010443687439  0.4063728451728821  1.0000
  Ru  Ru1       1.0  0.17675809562206268  0.1252715140581131  0.07871831953525543  1.0000
  Zn  Zn1       1.0  0.9885586500167846  0.42947879433631897  0.7412392497062683  1.0000
