data_image0
_chemical_formula_structural       B3BaOsP2PrTlU
_chemical_formula_sum              "B3 Ba1 Os1 P2 Pr1 Tl1 U1"
_cell_length_a       5.023433643637482
_cell_length_b       6.936088087040637
_cell_length_c       6.7927727699279785
_cell_angle_alpha    119.59120646199595
_cell_angle_beta     90.38181235067165
_cell_angle_gamma    88.14974402363843

_space_group_name_H-M_alt    "P 1"
_space_group_IT_number       1

loop_
  _space_group_symop_operation_xyz
  'x, y, z'

loop_
  _atom_site_type_symbol
  _atom_site_label
  _atom_site_symmetry_multiplicity
  _atom_site_fract_x
  _atom_site_fract_y
  _atom_site_fract_z
  _atom_site_occupancy
  B   B1        1.0  0.6516115665435791  0.6916961669921875  0.7916296124458313  1.0000
  B   B2        1.0  0.15271519124507904  0.7057289481163025  0.5858922004699707  1.0000
  B   B3        1.0  0.15093658864498138  0.44597116112709045  0.7702885270118713  1.0000
  Ba  Ba1       1.0  0.6527379155158997  0.4533783793449402  0.6879492998123169  1.0000
  Os  Os1       1.0  0.1523772031068802  0.050988633185625076  0.7155824303627014  1.0000
  P   P1        1.0  0.651466965675354  0.22946925461292267  0.7953792810440063  1.0000
  P   P2        1.0  0.6532521843910217  0.1771707832813263  0.5534331798553467  1.0000
  Pr  Pr1       1.0  0.15275636315345764  0.11471060663461685  0.2939481735229492  1.0000
  Tl  Tl1       1.0  0.6513171195983887  0.1803177148103714  0.07149317115545273  1.0000
  U   U1        1.0  0.1522214561700821  0.7043014764785767  0.16798144578933707  1.0000
