data_image0
_chemical_formula_structural       B2NiOs4PRuU
_chemical_formula_sum              "B2 Ni1 Os4 P1 Ru1 U1"
_cell_length_a       4.851854786709835
_cell_length_b       7.057010563682258
_cell_length_c       7.224259376525879
_cell_angle_alpha    123.59808851043093
_cell_angle_beta     91.05411416902854
_cell_angle_gamma    89.06529762917602

_space_group_name_H-M_alt    "P 1"
_space_group_IT_number       1

loop_
  _space_group_symop_operation_xyz
  'x, y, z'

loop_
  _atom_site_type_symbol
  _atom_site_label
  _atom_site_symmetry_multiplicity
  _atom_site_fract_x
  _atom_site_fract_y
  _atom_site_fract_z
  _atom_site_occupancy
  B   B1        1.0  0.8011656403541565  0.19230604171752932  0.7308274507522583  1.0000
  B   B2        1.0  0.8157229423522949  0.8622429966926576  0.6213127374649048  1.0000
  Ni  Ni1       1.0  0.3256221115589142  0.5096526145935059  0.16462682187557226  1.0000
  Os  Os1       1.0  0.32393065094947815  0.22665135562419894  0.8746048212051392  1.0000
  Os  Os2       1.0  0.5665340423583983  0.9762474894523622  0.8675040006637573  1.0000
  Os  Os3       1.0  0.06107860058546066  0.03835216537117958  0.6582624316215515  1.0000
  Os  Os4       1.0  0.8029700517654419  0.8415432572364808  0.355107992887497  1.0000
  P   P1        1.0  0.3249432146549225  0.5456207394599915  0.6466962099075317  1.0000
  Ru  Ru1       1.0  0.8282509446144104  0.38247886300086975  0.4335532784461975  1.0000
  U   U1        1.0  0.3201802968978882  0.5159699320793152  0.16424250602722174  1.0000
