data_image0
_chemical_formula_structural       B2Os8
_chemical_formula_sum              "B2 Os8"
_cell_length_a       3.9606416133675832
_cell_length_b       7.087621916955949
_cell_length_c       7.110073089599609
_cell_angle_alpha    121.40298683204585
_cell_angle_beta     91.41866075583071
_cell_angle_gamma    86.05161009528206

_space_group_name_H-M_alt    "P 1"
_space_group_IT_number       1

loop_
  _space_group_symop_operation_xyz
  'x, y, z'

loop_
  _atom_site_type_symbol
  _atom_site_label
  _atom_site_symmetry_multiplicity
  _atom_site_fract_x
  _atom_site_fract_y
  _atom_site_fract_z
  _atom_site_occupancy
  B   B1        1.0  0.4095760881900787  0.04861808940768242  0.8779508471488953  1.0000
  B   B2        1.0  0.4274547398090362  0.03197810798883438  0.3802386224269867  1.0000
  Os  Os1       1.0  0.9264003038406371  0.3221059739589691  0.09208254516124728  1.0000
  Os  Os2       1.0  0.9208005666732787  0.5161128044128418  0.8291587829589844  1.0000
  Os  Os3       1.0  0.912731111049652  0.5096871256828308  0.9549709558486938  1.0000
  Os  Os4       1.0  0.9283540844917296  0.7553491592407227  0.3329612016677857  1.0000
  Os  Os5       1.0  0.42716634273529047  0.7691506147384644  0.31942850351333624  1.0000
  Os  Os6       1.0  0.4257935285568237  0.07444817572832108  0.061992105096578605  1.0000
  Os  Os7       1.0  0.42972353100776667  0.7812677621841431  0.35637557506561285  1.0000
  Os  Os8       1.0  0.8972865343093871  0.44199255108833313  0.13636703789234164  1.0000
