data_image0
_chemical_formula_structural       B4Os6
_chemical_formula_sum              "B4 Os6"
_cell_length_a       3.9404949888263934
_cell_length_b       6.903938412925537
_cell_length_c       6.947295665740967
_cell_angle_alpha    128.09296661229078
_cell_angle_beta     91.57497516139284
_cell_angle_gamma    87.18996241282008

_space_group_name_H-M_alt    "P 1"
_space_group_IT_number       1

loop_
  _space_group_symop_operation_xyz
  'x, y, z'

loop_
  _atom_site_type_symbol
  _atom_site_label
  _atom_site_symmetry_multiplicity
  _atom_site_fract_x
  _atom_site_fract_y
  _atom_site_fract_z
  _atom_site_occupancy
  B   B1        1.0  0.30043187737464905  0.4167681038379669  0.49110928177833557  1.0000
  B   B2        1.0  0.31045010685920715  0.1776086986064911  0.8193201422691345  1.0000
  B   B3        1.0  0.8040100336074829  0.6558877229690552  0.5166789293289185  1.0000
  B   B4        1.0  0.8133670091629028  0.3969338834285736  0.4095705449581146  1.0000
  Os  Os1       1.0  0.2931979298591614  0.6172962188720703  0.2596818804740906  1.0000
  Os  Os2       1.0  0.8054986000061035  0.5572361946105957  0.13011942803859716  1.0000
  Os  Os3       1.0  0.30733299255371094  0.39759305119514465  0.0713998228311539  1.0000
  Os  Os4       1.0  0.8207101821899414  0.9007963538169861  0.022989109158515993  1.0000
  Os  Os5       1.0  0.3263753056526184  0.5718138217926025  0.08255095779895788  1.0000
  Os  Os6       1.0  0.2976003885269165  0.26012134552001953  0.5199642181396484  1.0000
