data_image0
_chemical_formula_structural       Ca3Mn4O3
_chemical_formula_sum              "Ca3 Mn4 O3"
_cell_length_a       4.840809284502453
_cell_length_b       5.344860994819791
_cell_length_c       6.548628330230713
_cell_angle_alpha    108.12694853315183
_cell_angle_beta     99.61342140450719
_cell_angle_gamma    109.61820833817438

_space_group_name_H-M_alt    "P 1"
_space_group_IT_number       1

loop_
  _space_group_symop_operation_xyz
  'x, y, z'

loop_
  _atom_site_type_symbol
  _atom_site_label
  _atom_site_symmetry_multiplicity
  _atom_site_fract_x
  _atom_site_fract_y
  _atom_site_fract_z
  _atom_site_occupancy
  Ca  Ca1       1.0  0.23116210103034973  0.07778695970773697  0.7298573255538939  1.0000
  Ca  Ca2       1.0  0.7432993054389954  0.24492084980010984  0.5405831933021545  1.0000
  Ca  Ca3       1.0  0.20483143627643574  0.9838967919349669  0.8925914764404296  1.0000
  Mn  Mn1       1.0  0.7262827157974243  0.5820991396903992  0.7708930373191832  1.0000
  Mn  Mn2       1.0  0.7277092337608337  0.8339488506317139  0.05787262693047519  1.0000
  Mn  Mn3       1.0  0.21760031580924988  0.5923380851745605  0.28986689448356623  1.0000
  Mn  Mn4       1.0  0.2166958898305893  0.7598353624343872  0.06266241520643234  1.0000
  O   O1        1.0  0.43635687232017517  0.7463067173957825  0.19119746983051294  1.0000
  O   O2        1.0  0.8741701245307922  0.26028838753700256  0.9721069335937499  1.0000
  O   O3        1.0  0.23276883363723755  0.08031778037548065  0.08513790369033812  1.0000
