data_image0
_chemical_formula_structural       Ca2Mn5O3
_chemical_formula_sum              "Ca2 Mn5 O3"
_cell_length_a       4.770557447826806
_cell_length_b       5.052148436964375
_cell_length_c       6.951137065887451
_cell_angle_alpha    101.27298132430147
_cell_angle_beta     93.84131444309881
_cell_angle_gamma    114.89880999754587

_space_group_name_H-M_alt    "P 1"
_space_group_IT_number       1

loop_
  _space_group_symop_operation_xyz
  'x, y, z'

loop_
  _atom_site_type_symbol
  _atom_site_label
  _atom_site_symmetry_multiplicity
  _atom_site_fract_x
  _atom_site_fract_y
  _atom_site_fract_z
  _atom_site_occupancy
  Ca  Ca1       1.0  0.7007089853286743  0.24389998614788055  0.6594297885894775  1.0000
  Ca  Ca2       1.0  0.12777367234230042  0.36409515142440796  0.13644114136695862  1.0000
  Mn  Mn1       1.0  0.9435916543006897  0.020253902301192284  0.6710087656974792  1.0000
  Mn  Mn2       1.0  0.0014542352873831987  0.7062177062034607  0.37691906094551086  1.0000
  Mn  Mn3       1.0  0.42625102400779724  0.06920475512742996  0.4053383469581604  1.0000
  Mn  Mn4       1.0  0.6618337035179138  0.7066329121589661  0.6884215474128723  1.0000
  Mn  Mn5       1.0  0.18204514682292938  0.3699917495250702  0.19716320931911469  1.0000
  O   O1        1.0  0.6967569589614868  0.2244408279657364  0.6104184985160828  1.0000
  O   O2        1.0  0.19053135812282562  0.7067850232124329  0.7559711337089539  1.0000
  O   O3        1.0  0.6657266020774841  0.851395845413208  0.9407000541687013  1.0000
