data_image0
_chemical_formula_structural       Ca2Mn4O4
_chemical_formula_sum              "Ca2 Mn4 O4"
_cell_length_a       4.969867432071875
_cell_length_b       4.2345853278202865
_cell_length_c       6.822880744934082
_cell_angle_alpha    109.69122863655726
_cell_angle_beta     107.81126809139481
_cell_angle_gamma    97.58377854092578

_space_group_name_H-M_alt    "P 1"
_space_group_IT_number       1

loop_
  _space_group_symop_operation_xyz
  'x, y, z'

loop_
  _atom_site_type_symbol
  _atom_site_label
  _atom_site_symmetry_multiplicity
  _atom_site_fract_x
  _atom_site_fract_y
  _atom_site_fract_z
  _atom_site_occupancy
  Ca  Ca1       1.0  0.7115996479988098  0.30606415867805475  0.5899493098258972  1.0000
  Ca  Ca2       1.0  0.3100394904613495  0.7758643627166747  0.4087965488433838  1.0000
  Mn  Mn1       1.0  0.21928684413433072  0.3872867822647094  0.24163156747817993  1.0000
  Mn  Mn2       1.0  0.13192956149578092  0.9250392913818358  0.6037797331809998  1.0000
  Mn  Mn3       1.0  0.576846182346344  0.7799512147903441  0.9805827140808105  1.0000
  Mn  Mn4       1.0  0.5007288455963135  0.8352337479591369  0.7497901320457458  1.0000
  O   O1        1.0  0.4405840933322906  0.5600084662437438  0.414172887802124  1.0000
  O   O2        1.0  0.3832422196865082  0.07355740666389464  0.8074999451637268  1.0000
  O   O3        1.0  0.24020807445049283  0.26983681321144104  0.9664405584335327  1.0000
  O   O4        1.0  0.8751562237739562  0.6556949019432067  0.6116576790809631  1.0000
