data_image0
_chemical_formula_structural       Ca4Mn2O4
_chemical_formula_sum              "Ca4 Mn2 O4"
_cell_length_a       5.178635055279125
_cell_length_b       5.908428044732153
_cell_length_c       7.075087070465088
_cell_angle_alpha    100.72722595457084
_cell_angle_beta     98.21141410477082
_cell_angle_gamma    115.03847955958169

_space_group_name_H-M_alt    "P 1"
_space_group_IT_number       1

loop_
  _space_group_symop_operation_xyz
  'x, y, z'

loop_
  _atom_site_type_symbol
  _atom_site_label
  _atom_site_symmetry_multiplicity
  _atom_site_fract_x
  _atom_site_fract_y
  _atom_site_fract_z
  _atom_site_occupancy
  Ca  Ca1       1.0  0.9521443843841553  0.8214319944381714  0.24621024727821353  1.0000
  Ca  Ca2       1.0  0.4910632073879242  0.5728908777236938  0.016041573137044893  1.0000
  Ca  Ca3       1.0  0.5550854206085205  0.20788446068763733  0.4960321784019471  1.0000
  Ca  Ca4       1.0  0.8184444904327393  0.4729052782058715  0.2053394764661789  1.0000
  Mn  Mn1       1.0  0.28757360577583313  0.4393683671951294  0.3724137246608734  1.0000
  Mn  Mn2       1.0  0.9450623989105225  0.8210777044296265  0.11711529642343518  1.0000
  O   O1        1.0  0.9850975871086121  0.5166197419166565  0.8902500271797181  1.0000
  O   O2        1.0  0.5786463618278502  0.9597388505935668  0.6329277157783508  1.0000
  O   O3        1.0  0.255503386259079  0.1888442039489746  0.898613214492798  1.0000
  O   O4        1.0  0.29267993569374084  0.5231062173843384  0.7349759340286255  1.0000
