data_image0
_chemical_formula_structural       Ca2Mn5O3
_chemical_formula_sum              "Ca2 Mn5 O3"
_cell_length_a       4.084580959273547
_cell_length_b       4.219564793243368
_cell_length_c       11.406136512756348
_cell_angle_alpha    99.10652058682457
_cell_angle_beta     99.88098921587759
_cell_angle_gamma    87.94864186866243

_space_group_name_H-M_alt    "P 1"
_space_group_IT_number       1

loop_
  _space_group_symop_operation_xyz
  'x, y, z'

loop_
  _atom_site_type_symbol
  _atom_site_label
  _atom_site_symmetry_multiplicity
  _atom_site_fract_x
  _atom_site_fract_y
  _atom_site_fract_z
  _atom_site_occupancy
  Ca  Ca1       1.0  0.7832636833190918  0.4023500680923462  0.16710767149925232  1.0000
  Ca  Ca2       1.0  0.1559891700744629  0.12892132997512817  0.23132380843162537  1.0000
  Mn  Mn1       1.0  0.20068328082561493  0.4685819149017334  0.5202115178108215  1.0000
  Mn  Mn2       1.0  0.15351030230522156  0.9255990982055664  0.22048920392990112  1.0000
  Mn  Mn3       1.0  0.8566276431083679  0.7203884124755859  0.3817693889141083  1.0000
  Mn  Mn4       1.0  0.3416982591152191  0.7387121915817261  0.7222500443458557  1.0000
  Mn  Mn5       1.0  0.7777302861213684  0.7704454660415649  0.6124337315559387  1.0000
  O   O1        1.0  0.3319164216518402  0.45824134349823  0.030761800706386563  1.0000
  O   O2        1.0  0.7981699705123901  0.7850725054740906  0.9078869223594666  1.0000
  O   O3        1.0  0.18885283172130585  0.9148505926132202  0.7062057852745056  1.0000
