data_image0
_chemical_formula_structural       Ca3Mn4O3
_chemical_formula_sum              "Ca3 Mn4 O3"
_cell_length_a       5.812193914192038
_cell_length_b       5.747864527422357
_cell_length_c       7.78192663192749
_cell_angle_alpha    102.3277821186065
_cell_angle_beta     104.2147819018177
_cell_angle_gamma    118.04167155199379

_space_group_name_H-M_alt    "P 1"
_space_group_IT_number       1

loop_
  _space_group_symop_operation_xyz
  'x, y, z'

loop_
  _atom_site_type_symbol
  _atom_site_label
  _atom_site_symmetry_multiplicity
  _atom_site_fract_x
  _atom_site_fract_y
  _atom_site_fract_z
  _atom_site_occupancy
  Ca  Ca1       1.0  0.830005943775177  0.054518990218639374  0.9201141595840453  1.0000
  Ca  Ca2       1.0  0.17429785430431366  0.5206891894340515  0.7863855361938475  1.0000
  Ca  Ca3       1.0  0.2884427607059479  0.3609836995601654  0.14880795776844022  1.0000
  Mn  Mn1       1.0  0.6468389630317688  0.9927219748497009  0.5411818027496338  1.0000
  Mn  Mn2       1.0  0.5417602062225342  0.6025605797767639  0.4299196004867553  1.0000
  Mn  Mn3       1.0  0.8112372159957886  0.45025527477264404  0.8168564438819884  1.0000
  Mn  Mn4       1.0  0.29792746901512146  0.238925039768219  0.4431371390819549  1.0000
  O   O1        1.0  0.07371565699577332  0.11658445000648499  0.43305242061614985  1.0000
  O   O2        1.0  0.9896858334541321  0.9453363418579102  0.7601439952850341  1.0000
  O   O3        1.0  0.24735119938850403  0.9518762826919556  0.6607336997985839  1.0000
