data_image0
_chemical_formula_structural       LaSb4SiSr6Ti2
_chemical_formula_sum              "La1 Sb4 Si1 Sr6 Ti2"
_cell_length_a       7.2026318160109915
_cell_length_b       8.865853078952235
_cell_length_c       9.012742042541504
_cell_angle_alpha    66.87253505548126
_cell_angle_beta     66.3231119676823
_cell_angle_gamma    67.6456365022651

_space_group_name_H-M_alt    "P 1"
_space_group_IT_number       1

loop_
  _space_group_symop_operation_xyz
  'x, y, z'

loop_
  _atom_site_type_symbol
  _atom_site_label
  _atom_site_symmetry_multiplicity
  _atom_site_fract_x
  _atom_site_fract_y
  _atom_site_fract_z
  _atom_site_occupancy
  La  La1       1.0  0.03416798263788223  0.826145589351654  0.005046191159635782  1.0000
  Sb  Sb1       1.0  0.5337075591087341  0.6655350923538208  0.696319043636322  1.0000
  Sb  Sb2       1.0  0.5476385354995728  0.8096697926521301  0.07760929316282272  1.0000
  Sb  Sb3       1.0  0.5276753902435303  0.8171482086181641  0.658883810043335  1.0000
  Sb  Sb4       1.0  0.2482815533876419  0.5876337289810181  0.5896761417388916  1.0000
  Si  Si1       1.0  0.37023189663887024  0.09810104966163635  0.1572038233280182  1.0000
  Sr  Sr1       1.0  0.8731326460838318  0.08227049559354782  0.5826588869094849  1.0000
  Sr  Sr2       1.0  0.03209783881902695  0.21868190169334412  0.009546186774969101  1.0000
  Sr  Sr3       1.0  0.040705204010009766  0.8935021758079529  0.492469847202301  1.0000
  Sr  Sr4       1.0  0.612389087677002  0.7696550488471985  0.8698329329490662  1.0000
  Sr  Sr5       1.0  0.050279684364795685  0.32425734400749207  0.6085589528083801  1.0000
  Sr  Sr6       1.0  0.5444372296333313  0.0944562554359436  0.31713080406188965  1.0000
  Ti  Ti1       1.0  0.25325724482536316  0.581683337688446  0.00662439176812768  1.0000
  Ti  Ti2       1.0  0.20041412115097046  0.7732325196266174  0.24386411905288696  1.0000
