data_image0
_chemical_formula_structural       LaLiO2PSb3Sr2TaTi2Tl
_chemical_formula_sum              "La1 Li1 O2 P1 Sb3 Sr2 Ta1 Ti2 Tl1"
_cell_length_a       6.854083019445278
_cell_length_b       7.559706265020768
_cell_length_c       7.634912014007568
_cell_angle_alpha    69.58092418781574
_cell_angle_beta     64.92106863251315
_cell_angle_gamma    64.04547837703593

_space_group_name_H-M_alt    "P 1"
_space_group_IT_number       1

loop_
  _space_group_symop_operation_xyz
  'x, y, z'

loop_
  _atom_site_type_symbol
  _atom_site_label
  _atom_site_symmetry_multiplicity
  _atom_site_fract_x
  _atom_site_fract_y
  _atom_site_fract_z
  _atom_site_occupancy
  La  La1       1.0  0.3772309124469757  0.7661090493202208  0.44617974758148193  1.0000
  Li  Li1       1.0  0.3583240807056427  0.25834280252456665  0.4240313172340393  1.0000
  O   O1        1.0  0.17071431875228887  0.902451992034912  0.7465081214904785  1.0000
  O   O2        1.0  0.1100249141454697  0.4234645068645477  0.2313433587551117  1.0000
  P   P1        1.0  0.0637977123260498  0.01591677777469158  0.45468103885650635  1.0000
  Sb  Sb1       1.0  0.8528849482536316  0.14448854327201843  0.9404374361038208  1.0000
  Sb  Sb2       1.0  0.21529680490493774  0.29154208302497864  0.7261307835578918  1.0000
  Sb  Sb3       1.0  0.06272728741168977  0.40094506740570063  0.5007243156433105  1.0000
  Sr  Sr1       1.0  0.019282160326838493  0.5955880284309387  0.3795976638793946  1.0000
  Sr  Sr2       1.0  0.37216249108314514  0.6410732865333557  0.0376448780298233  1.0000
  Ta  Ta1       1.0  0.8551541566848755  0.6735416650772094  0.9548370242118835  1.0000
  Ti  Ti1       1.0  0.676903486251831  0.43942964076995844  0.46300622820854187  1.0000
  Ti  Ti2       1.0  0.6703671813011169  0.9393857717514037  0.1082894578576088  1.0000
  Tl  Tl1       1.0  0.6915205121040344  0.8329851031303405  0.7602367401123047  1.0000
