data_image0
_chemical_formula_structural       InLi2OSbTa9
_chemical_formula_sum              "In1 Li2 O1 Sb1 Ta9"
_cell_length_a       7.099453300251484
_cell_length_b       6.908403673542637
_cell_length_c       7.494072914123535
_cell_angle_alpha    58.552037136165055
_cell_angle_beta     59.661783437959755
_cell_angle_gamma    58.87844242458626

_space_group_name_H-M_alt    "P 1"
_space_group_IT_number       1

loop_
  _space_group_symop_operation_xyz
  'x, y, z'

loop_
  _atom_site_type_symbol
  _atom_site_label
  _atom_site_symmetry_multiplicity
  _atom_site_fract_x
  _atom_site_fract_y
  _atom_site_fract_z
  _atom_site_occupancy
  In  In1       1.0  0.346822053194046  0.34038546681404114  0.3271055519580841  1.0000
  Li  Li1       1.0  0.6150793433189392  0.6143286824226379  0.25844165682792664  1.0000
  Li  Li2       1.0  0.914341390132904  0.8803730010986328  0.6007614135742188  1.0000
  O   O1        1.0  0.2550034523010254  0.8482466340065002  0.5556895136833191  1.0000
  Sb  Sb1       1.0  0.6153182983398438  0.14457108080387115  0.23336264491081238  1.0000
  Ta  Ta1       1.0  0.6242763996124268  0.16667580604553223  0.04103464260697365  1.0000
  Ta  Ta2       1.0  0.6351741552352905  0.4187219440937042  0.8261768817901611  1.0000
  Ta  Ta3       1.0  0.19790147244930267  0.9068881869316101  0.8297343850135803  1.0000
  Ta  Ta4       1.0  0.7331259250640869  0.8682602643966675  0.15865458548069  1.0000
  Ta  Ta5       1.0  0.7729953527450562  0.8211144804954529  0.5225034356117249  1.0000
  Ta  Ta6       1.0  0.10120228677988052  0.06900585442781448  0.9256491661071777  1.0000
  Ta  Ta7       1.0  0.8046197295188904  0.35082635283470154  0.4289696514606476  1.0000
  Ta  Ta8       1.0  0.2369532734155655  0.3843698501586914  0.6255220770835876  1.0000
  Ta  Ta9       1.0  0.8417700529098511  0.8610029220581055  0.8694521188735962  1.0000
