data_image0
_chemical_formula_structural       CuLaLiO4P2Si3SrTe
_chemical_formula_sum              "Cu1 La1 Li1 O4 P2 Si3 Sr1 Te1"
_cell_length_a       6.070707087110347
_cell_length_b       6.670610832083306
_cell_length_c       6.460063457489014
_cell_angle_alpha    62.78090224783838
_cell_angle_beta     62.76473690446548
_cell_angle_gamma    60.76146115655278

_space_group_name_H-M_alt    "P 1"
_space_group_IT_number       1

loop_
  _space_group_symop_operation_xyz
  'x, y, z'

loop_
  _atom_site_type_symbol
  _atom_site_label
  _atom_site_symmetry_multiplicity
  _atom_site_fract_x
  _atom_site_fract_y
  _atom_site_fract_z
  _atom_site_occupancy
  Cu  Cu1       1.0  0.5254886746406555  0.323600709438324  0.45861136913299566  1.0000
  La  La1       1.0  0.7077519297599792  0.6591131687164307  0.7205924391746521  1.0000
  Li  Li1       1.0  0.9354361295700073  0.9367005228996278  0.37495204806327825  1.0000
  O   O1        1.0  0.24077580869197845  0.014383379369974138  0.5696340799331665  1.0000
  O   O2        1.0  0.0012800234835594687  0.46937009692192083  0.19386775791645047  1.0000
  O   O3        1.0  0.7332472801208496  0.9204413890838624  0.9180077314376832  1.0000
  O   O4        1.0  0.20609872043132782  0.4686183631420136  0.4987019300460816  1.0000
  P   P1        1.0  0.5874344110488892  0.7595751285552979  0.564184308052063  1.0000
  P   P2        1.0  0.022560087963938713  0.2703571021556854  0.7969250082969667  1.0000
  Si  Si1       1.0  0.9408683776855469  0.18380151689052582  0.0349048376083374  1.0000
  Si  Si2       1.0  0.8308699131011963  0.753593385219574  0.3789662718772889  1.0000
  Si  Si3       1.0  0.5832617878913879  0.8993241786956787  0.5528174638748169  1.0000
  Sr  Sr1       1.0  0.9375291466712952  0.18897002935409546  0.045969650149345405  1.0000
  Te  Te1       1.0  0.45475175976753235  0.7812766432762146  0.17771552503108978  1.0000
