data_image0
_chemical_formula_structural       LiO4Sb2Si2SrTa2TiTl
_chemical_formula_sum              "Li1 O4 Sb2 Si2 Sr1 Ta2 Ti1 Tl1"
_cell_length_a       7.665109518539113
_cell_length_b       7.647890268055332
_cell_length_c       7.783441066741943
_cell_angle_alpha    61.13974197062709
_cell_angle_beta     61.54575663133592
_cell_angle_gamma    60.55003991480254

_space_group_name_H-M_alt    "P 1"
_space_group_IT_number       1

loop_
  _space_group_symop_operation_xyz
  'x, y, z'

loop_
  _atom_site_type_symbol
  _atom_site_label
  _atom_site_symmetry_multiplicity
  _atom_site_fract_x
  _atom_site_fract_y
  _atom_site_fract_z
  _atom_site_occupancy
  Li  Li1       1.0  0.883465588092804  0.27921706438064575  0.6768141388893127  1.0000
  O   O1        1.0  0.655472457408905  0.23791192471981049  0.8952617645263672  1.0000
  O   O2        1.0  0.5026609897613525  0.5900145769119263  0.6354405879974365  1.0000
  O   O3        1.0  0.13600841164588928  0.7406006455421448  0.024430932477116585  1.0000
  O   O4        1.0  0.14865610003471375  0.11191020905971527  0.3923969864845276  1.0000
  Sb  Sb1       1.0  0.6703858375549316  0.0015860035782679915  0.09616474062204361  1.0000
  Sb  Sb2       1.0  0.8809175491333008  0.5870822072029114  0.6205375790596008  1.0000
  Si  Si1       1.0  0.023950306698679924  0.5039029121398926  0.7294129729270935  1.0000
  Si  Si2       1.0  0.438751220703125  0.4314134120941162  0.48612403869628906  1.0000
  Sr  Sr1       1.0  0.9054679870605469  0.09401719272136688  0.27576786279678345  1.0000
  Ta  Ta1       1.0  0.5673758387565613  0.4219045341014862  0.7841999530792236  1.0000
  Ta  Ta2       1.0  0.6607601046562195  0.9305448532104492  0.5804432034492493  1.0000
  Ti  Ti1       1.0  0.6700019240379333  0.5928332805633545  0.22502191364765167  1.0000
  Tl  Tl1       1.0  0.33542147278785706  0.5842728018760681  0.22419454157352448  1.0000
