data_image0
_chemical_formula_structural       Li3OSb2SrTa6Te
_chemical_formula_sum              "Li3 O1 Sb2 Sr1 Ta6 Te1"
_cell_length_a       6.876617255073558
_cell_length_b       6.818874340746165
_cell_length_c       7.949895858764648
_cell_angle_alpha    62.43161780155721
_cell_angle_beta     61.615948782453735
_cell_angle_gamma    62.307215661440644

_space_group_name_H-M_alt    "P 1"
_space_group_IT_number       1

loop_
  _space_group_symop_operation_xyz
  'x, y, z'

loop_
  _atom_site_type_symbol
  _atom_site_label
  _atom_site_symmetry_multiplicity
  _atom_site_fract_x
  _atom_site_fract_y
  _atom_site_fract_z
  _atom_site_occupancy
  Li  Li1       1.0  0.803859829902649  0.7517362236976624  0.007862955331802368  1.0000
  Li  Li2       1.0  0.0768304392695427  0.5343185067176819  0.40861582756042486  1.0000
  Li  Li3       1.0  0.3834304809570313  0.9999274611473083  0.7583751678466798  1.0000
  O   O1        1.0  0.3580119907855988  0.016189303249120712  0.17651678621768954  1.0000
  Sb  Sb1       1.0  0.07261727005243301  0.5219945907592773  0.42759540677070623  1.0000
  Sb  Sb2       1.0  0.47407093644142156  0.462691068649292  0.06432017683982849  1.0000
  Sr  Sr1       1.0  0.7849339246749879  0.04200940579175949  0.9275035858154298  1.0000
  Ta  Ta1       1.0  0.8524247407913209  0.32770422101020813  0.8353201150894166  1.0000
  Ta  Ta2       1.0  0.8078963160514833  0.8265031576156616  0.7533259391784669  1.0000
  Ta  Ta3       1.0  0.8037611842155458  0.35299205780029297  0.7469181418418885  1.0000
  Ta  Ta4       1.0  0.10266510397195817  0.2006034404039383  0.26443377137184143  1.0000
  Ta  Ta5       1.0  0.4403012394905091  0.27871862053871155  0.13135012984275818  1.0000
  Ta  Ta6       1.0  0.5056103467941284  0.3196832835674286  0.33143082261085516  1.0000
  Te  Te1       1.0  0.2233943045139313  0.37012290954589844  0.792173206806183  1.0000
