data_image0
_chemical_formula_structural       As5PPb3Zn
_chemical_formula_sum              "As5 P1 Pb3 Zn1"
_cell_length_a       5.0242323091384
_cell_length_b       5.588771034194535
_cell_length_c       10.485177040100098
_cell_angle_alpha    89.60921946414338
_cell_angle_beta     90.5276709984394
_cell_angle_gamma    108.46855304430593

_space_group_name_H-M_alt    "P 1"
_space_group_IT_number       1

loop_
  _space_group_symop_operation_xyz
  'x, y, z'

loop_
  _atom_site_type_symbol
  _atom_site_label
  _atom_site_symmetry_multiplicity
  _atom_site_fract_x
  _atom_site_fract_y
  _atom_site_fract_z
  _atom_site_occupancy
  As  As1       1.0  0.590704083442688  0.04869760200381279  0.5632479190826416  1.0000
  As  As2       1.0  0.14508290588855743  0.31427082419395447  0.5229191780090332  1.0000
  As  As3       1.0  0.10194283723831177  0.4034406840801239  0.7645231485366821  1.0000
  As  As4       1.0  0.07425044476985931  0.043356433510780334  0.292336106300354  1.0000
  As  As5       1.0  0.16671320796012878  0.7786797285079956  0.3915785253047943  1.0000
  P   P1        1.0  0.6099594235420227  0.6875488758087158  0.7637156844139099  1.0000
  Pb  Pb1       1.0  0.6119610071182251  0.7226307392120361  0.6346698999404907  1.0000
  Pb  Pb2       1.0  0.023906372487545013  0.5943629145622253  0.02907213754951954  1.0000
  Pb  Pb3       1.0  0.09996121376752853  0.11134833842515945  0.7645210027694702  1.0000
  Zn  Zn1       1.0  0.6050939559936523  0.03778978809714317  0.26666828989982605  1.0000
