data_image0
_chemical_formula_structural       As4GaPPb4
_chemical_formula_sum              "As4 Ga1 P1 Pb4"
_cell_length_a       5.074729619553485
_cell_length_b       6.044238416528463
_cell_length_c       9.065793991088867
_cell_angle_alpha    101.88237454108686
_cell_angle_beta     87.75186502329115
_cell_angle_gamma    90.25933711095286

_space_group_name_H-M_alt    "P 1"
_space_group_IT_number       1

loop_
  _space_group_symop_operation_xyz
  'x, y, z'

loop_
  _atom_site_type_symbol
  _atom_site_label
  _atom_site_symmetry_multiplicity
  _atom_site_fract_x
  _atom_site_fract_y
  _atom_site_fract_z
  _atom_site_occupancy
  As  As1       1.0  0.8324003219604492  0.7615072727203369  0.13340821862220764  1.0000
  As  As2       1.0  0.8116070032119751  0.1746937781572342  0.5967116355895996  1.0000
  As  As3       1.0  0.06490238755941391  0.4007286131381988  0.06906773895025253  1.0000
  As  As4       1.0  0.8419515490531921  0.1979730278253555  0.32875335216522217  1.0000
  Ga  Ga1       1.0  0.8242043256759644  0.8510588407516478  0.9680898785591125  1.0000
  P   P1        1.0  0.33129051327705383  0.05656501278281211  0.888795018196106  1.0000
  Pb  Pb1       1.0  0.3148989975452423  0.230297178030014  0.23745998740196228  1.0000
  Pb  Pb2       1.0  0.34157243371009827  0.293327659368515  0.6229770183563232  1.0000
  Pb  Pb3       1.0  0.6079968214035034  0.4175684750080108  0.014600106514990337  1.0000
  Pb  Pb4       1.0  0.3128349483013153  0.009603863582015038  0.2649375796318054  1.0000
