data_image0
_chemical_formula_structural       As5O2Pb3
_chemical_formula_sum              "As5 O2 Pb3"
_cell_length_a       4.844184466569117
_cell_length_b       5.2090829400251595
_cell_length_c       9.680314064025879
_cell_angle_alpha    97.16964564689127
_cell_angle_beta     90.98235458812258
_cell_angle_gamma    90.5721429504983

_space_group_name_H-M_alt    "P 1"
_space_group_IT_number       1

loop_
  _space_group_symop_operation_xyz
  'x, y, z'

loop_
  _atom_site_type_symbol
  _atom_site_label
  _atom_site_symmetry_multiplicity
  _atom_site_fract_x
  _atom_site_fract_y
  _atom_site_fract_z
  _atom_site_occupancy
  As  As1       1.0  0.8219195604324341  0.9102985262870787  0.5927320718765259  1.0000
  As  As2       1.0  0.3158280849456787  0.6976796984672546  0.19487884640693665  1.0000
  As  As3       1.0  0.8452188372612  0.15158767998218536  0.6499987840652466  1.0000
  As  As4       1.0  0.32497185468673706  0.8122954964637756  0.22261156141757965  1.0000
  As  As5       1.0  0.3150750398635864  0.48048785328865046  0.8805910944938659  1.0000
  O   O1        1.0  0.02483290620148182  0.2585059702396393  0.2905769646167755  1.0000
  O   O2        1.0  0.3506759703159332  0.7297208309173584  0.011722290888428678  1.0000
  Pb  Pb1       1.0  0.309544175863266  0.6652220487594604  0.06843358278274536  1.0000
  Pb  Pb2       1.0  0.8084665536880493  0.46009507775306696  0.9660125970840453  1.0000
  Pb  Pb3       1.0  0.8019802570343018  0.015555004589259623  0.5337100625038147  1.0000
