data_image0
_chemical_formula_structural       As4O2Pb4
_chemical_formula_sum              "As4 O2 Pb4"
_cell_length_a       6.156386406093676
_cell_length_b       6.615254628366879
_cell_length_c       8.694989204406738
_cell_angle_alpha    115.93696575273617
_cell_angle_beta     106.76870023092202
_cell_angle_gamma    89.47273160875659

_space_group_name_H-M_alt    "P 1"
_space_group_IT_number       1

loop_
  _space_group_symop_operation_xyz
  'x, y, z'

loop_
  _atom_site_type_symbol
  _atom_site_label
  _atom_site_symmetry_multiplicity
  _atom_site_fract_x
  _atom_site_fract_y
  _atom_site_fract_z
  _atom_site_occupancy
  As  As1       1.0  0.9323610067367554  0.7441122531890869  0.9835417866706848  1.0000
  As  As2       1.0  0.0899234414100647  0.30505767464637756  0.9544520378112793  1.0000
  As  As3       1.0  0.5951564908027649  0.5356993675231934  0.8788960576057434  1.0000
  As  As4       1.0  0.04251833260059357  0.3764612376689911  0.10728075355291367  1.0000
  O   O1        1.0  0.855199933052063  0.6916226744651794  0.6762176752090454  1.0000
  O   O2        1.0  0.5496233701705933  0.8519671559333802  0.23836073279380798  1.0000
  Pb  Pb1       1.0  0.5948264598846436  0.6138365864753723  0.686030924320221  1.0000
  Pb  Pb2       1.0  0.42864900827407837  0.2382185757160187  0.12629246711730957  1.0000
  Pb  Pb3       1.0  0.09837672114372253  0.4823045432567597  0.9156826734542847  1.0000
  Pb  Pb4       1.0  0.5721653699874878  0.301360547542572  0.13380764424800873  1.0000
