data_image0
_chemical_formula_structural       As6OPb3
_chemical_formula_sum              "As6 O1 Pb3"
_cell_length_a       5.282145425217397
_cell_length_b       5.751222396478699
_cell_length_c       10.61859130859375
_cell_angle_alpha    85.15771935213363
_cell_angle_beta     76.07331012032964
_cell_angle_gamma    64.03165347629785

_space_group_name_H-M_alt    "P 1"
_space_group_IT_number       1

loop_
  _space_group_symop_operation_xyz
  'x, y, z'

loop_
  _atom_site_type_symbol
  _atom_site_label
  _atom_site_symmetry_multiplicity
  _atom_site_fract_x
  _atom_site_fract_y
  _atom_site_fract_z
  _atom_site_occupancy
  As  As1       1.0  0.41618093848228455  0.48376965522766113  0.26658257842063904  1.0000
  As  As2       1.0  0.7740161418914795  0.825889527797699  0.25483638048171997  1.0000
  As  As3       1.0  0.28612157702445984  0.73410964012146  0.6605340838432312  1.0000
  As  As4       1.0  0.768622636795044  0.8512589335441589  0.8703332543373108  1.0000
  As  As5       1.0  0.267118901014328  0.8014825582504272  0.7501424551010132  1.0000
  As  As6       1.0  0.8162029981613159  0.6312645077705383  0.8320820927619934  1.0000
  O   O1        1.0  0.3703491985797882  0.2089935541152954  0.676746129989624  1.0000
  Pb  Pb1       1.0  0.8327448964118958  0.40380945801734924  0.257740318775177  1.0000
  Pb  Pb2       1.0  0.2822226285934448  0.7442682385444641  0.48436999320983887  1.0000
  Pb  Pb3       1.0  0.7987996935844421  0.19788914918899536  0.3917970061302185  1.0000
