data_image0
_chemical_formula_structural       As6PPb2Zr
_chemical_formula_sum              "As6 P1 Pb2 Zr1"
_cell_length_a       6.579128650482691
_cell_length_b       7.439094442761628
_cell_length_c       7.796301364898682
_cell_angle_alpha    77.76527985240713
_cell_angle_beta     66.67015780950452
_cell_angle_gamma    71.21895213372439

_space_group_name_H-M_alt    "P 1"
_space_group_IT_number       1

loop_
  _space_group_symop_operation_xyz
  'x, y, z'

loop_
  _atom_site_type_symbol
  _atom_site_label
  _atom_site_symmetry_multiplicity
  _atom_site_fract_x
  _atom_site_fract_y
  _atom_site_fract_z
  _atom_site_occupancy
  As  As1       1.0  0.15315188467502594  0.07975387573242188  0.49854043126106257  1.0000
  As  As2       1.0  0.6550864577293396  0.00303712859749794  0.3324399888515472  1.0000
  As  As3       1.0  0.67644864320755  0.8133134841918945  0.11207887530326842  1.0000
  As  As4       1.0  0.16832618415355682  0.6305078268051147  0.24032047390937802  1.0000
  As  As5       1.0  0.15552683174610138  0.35615846514701843  0.823569893836975  1.0000
  As  As6       1.0  0.17963075637817383  0.9256389141082764  0.5953178405761719  1.0000
  P   P1        1.0  0.6361387372016907  0.8681232929229736  0.324724942445755  1.0000
  Pb  Pb1       1.0  0.6907591223716736  0.5445170998573303  0.2132509648799896  1.0000
  Pb  Pb2       1.0  0.6700831055641174  0.8799293637275696  0.4644638895988464  1.0000
  Zr  Zr1       1.0  0.17079345881938934  0.8645477890968323  0.967130959033966  1.0000
