data_image0
_chemical_formula_structural       H2I2Na2P4
_chemical_formula_sum              "H2 I2 Na2 P4"
_cell_length_a       5.204315285497224
_cell_length_b       5.331486894875085
_cell_length_c       9.357931137084961
_cell_angle_alpha    90.6863690835638
_cell_angle_beta     89.54035214583342
_cell_angle_gamma    118.43570896461772

_space_group_name_H-M_alt    "P 1"
_space_group_IT_number       1

loop_
  _space_group_symop_operation_xyz
  'x, y, z'

loop_
  _atom_site_type_symbol
  _atom_site_label
  _atom_site_symmetry_multiplicity
  _atom_site_fract_x
  _atom_site_fract_y
  _atom_site_fract_z
  _atom_site_occupancy
  H   H1        1.0  0.9093841910362244  0.7945894598960876  0.13434390723705292  1.0000
  H   H2        1.0  0.8423935174942017  0.5787912607192993  0.8182440400123595  1.0000
  I   I1        1.0  0.46196064352989197  0.043024275451898575  0.2665894031524658  1.0000
  I   I2        1.0  0.3985140323638916  0.40671271085739136  0.40612438321113586  1.0000
  Na  Na1       1.0  0.8521403074264526  0.7750839591026306  0.21421723067760468  1.0000
  Na  Na2       1.0  0.3303864300251007  0.7439602613449097  0.13271640241146088  1.0000
  P   P1        1.0  0.3940918445587158  0.609874963760376  0.3896242082118988  1.0000
  P   P2        1.0  0.6535412669181824  0.3899407982826233  0.42590609192848206  1.0000
  P   P3        1.0  0.8786317706108093  0.48838317394256586  0.5966630578041077  1.0000
  P   P4        1.0  0.3245812952518463  0.5057521462440491  0.8844126462936401  1.0000
