data_image0
_chemical_formula_structural       As2HI2P4Zn
_chemical_formula_sum              "As2 H1 I2 P4 Zn1"
_cell_length_a       5.827049436894446
_cell_length_b       5.705704102710785
_cell_length_c       8.592084884643555
_cell_angle_alpha    79.1582564755226
_cell_angle_beta     79.68013754286167
_cell_angle_gamma    92.89353021767606

_space_group_name_H-M_alt    "P 1"
_space_group_IT_number       1

loop_
  _space_group_symop_operation_xyz
  'x, y, z'

loop_
  _atom_site_type_symbol
  _atom_site_label
  _atom_site_symmetry_multiplicity
  _atom_site_fract_x
  _atom_site_fract_y
  _atom_site_fract_z
  _atom_site_occupancy
  As  As1       1.0  0.08087125420570374  0.5651607513427734  0.6683160066604614  1.0000
  As  As2       1.0  0.8779426217079163  0.8026587367057801  0.15316049754619598  1.0000
  H   H1        1.0  0.2942008376121521  0.7388998866081238  0.4446030557155609  1.0000
  I   I1        1.0  0.9218086004257202  0.09333154559135437  0.34724634885787964  1.0000
  I   I2        1.0  0.9234805703163147  0.15119342505931854  0.5244435667991638  1.0000
  P   P1        1.0  0.24371257424354553  0.6562073826789856  0.40388110280036926  1.0000
  P   P2        1.0  0.5817626118659973  0.2723957300186157  0.7635064721107483  1.0000
  P   P3        1.0  0.889858603477478  0.5009239912033081  0.9810511469841003  1.0000
  P   P4        1.0  0.5414201021194458  0.8990311026573182  0.6043846607208252  1.0000
  Zn  Zn1       1.0  0.5768131017684937  0.8403856158256532  0.3574078679084778  1.0000
