data_image0
_chemical_formula_structural       I2Na2P3PdPtZn
_chemical_formula_sum              "I2 Na2 P3 Pd1 Pt1 Zn1"
_cell_length_a       5.834991947381001
_cell_length_b       5.8050803087166605
_cell_length_c       6.960681915283203
_cell_angle_alpha    110.11101192806522
_cell_angle_beta     105.56395877667354
_cell_angle_gamma    121.05728203521748

_space_group_name_H-M_alt    "P 1"
_space_group_IT_number       1

loop_
  _space_group_symop_operation_xyz
  'x, y, z'

loop_
  _atom_site_type_symbol
  _atom_site_label
  _atom_site_symmetry_multiplicity
  _atom_site_fract_x
  _atom_site_fract_y
  _atom_site_fract_z
  _atom_site_occupancy
  I   I1        1.0  0.5914899706840515  0.6933021545410156  0.1988389939069747  1.0000
  I   I2        1.0  0.5933264493942261  0.1056898757815361  0.7249496579170226  1.0000
  Na  Na1       1.0  0.11586629599332811  0.4424469769001007  0.07197301834821701  1.0000
  Na  Na2       1.0  0.5648375749588013  0.047719601541757584  0.00040539106703363354  1.0000
  P   P1        1.0  0.5055777430534363  0.17225618660449982  0.9193526506423949  1.0000
  P   P2        1.0  0.5785903930664062  0.30363723635673523  0.46745711565017695  1.0000
  P   P3        1.0  0.1231011524796486  0.9183287620544434  0.06651999801397324  1.0000
  Pd  Pd1       1.0  0.08917182683944702  0.7549047470092773  0.10312749445438384  1.0000
  Pt  Pt1       1.0  0.9803822040557862  0.4235762655735016  0.8823993802070617  1.0000
  Zn  Zn1       1.0  0.08442691713571548  0.3334719240665436  0.711960732936859  1.0000
