data_image0
_chemical_formula_structural       CdNa7PS
_chemical_formula_sum              "Cd1 Na7 P1 S1"
_cell_length_a       6.502304434861374
_cell_length_b       7.0020000373026825
_cell_length_c       8.780125617980957
_cell_angle_alpha    109.16299550373972
_cell_angle_beta     92.61285315171729
_cell_angle_gamma    114.29371433867676

_space_group_name_H-M_alt    "P 1"
_space_group_IT_number       1

loop_
  _space_group_symop_operation_xyz
  'x, y, z'

loop_
  _atom_site_type_symbol
  _atom_site_label
  _atom_site_symmetry_multiplicity
  _atom_site_fract_x
  _atom_site_fract_y
  _atom_site_fract_z
  _atom_site_occupancy
  Cd  Cd1       1.0  0.9116342067718507  0.3448716998100281  0.32559797167778015  1.0000
  Na  Na1       1.0  0.8850826621055604  0.22178991138935092  0.053623206913471236  1.0000
  Na  Na2       1.0  0.40273836255073553  0.35466560721397405  0.3430859446525574  1.0000
  Na  Na3       1.0  0.8811649680137635  0.1106354594230652  0.07040134072303773  1.0000
  Na  Na4       1.0  0.3907273411750794  0.5239725708961487  0.07758269459009173  1.0000
  Na  Na5       1.0  0.4966672360897065  0.1942616701126099  0.6574174761772156  1.0000
  Na  Na6       1.0  0.3899474143981934  0.6265168786048889  0.18588761985301974  1.0000
  Na  Na7       1.0  0.13801449537277222  0.6361148357391357  0.9069027304649353  1.0000
  P   P1        1.0  0.6635629534721376  0.8668543100357057  0.44193860888481146  1.0000
  S   S1        1.0  0.6503246426582338  0.3982128500938416  0.5843570232391357  1.0000
