data_image0
_chemical_formula_structural       AsNa3P3PdTiZn
_chemical_formula_sum              "As1 Na3 P3 Pd1 Ti1 Zn1"
_cell_length_a       5.250936309179942
_cell_length_b       6.006130071305982
_cell_length_c       7.510590076446533
_cell_angle_alpha    89.76370670529694
_cell_angle_beta     89.360653239485
_cell_angle_gamma    106.60059078624788

_space_group_name_H-M_alt    "P 1"
_space_group_IT_number       1

loop_
  _space_group_symop_operation_xyz
  'x, y, z'

loop_
  _atom_site_type_symbol
  _atom_site_label
  _atom_site_symmetry_multiplicity
  _atom_site_fract_x
  _atom_site_fract_y
  _atom_site_fract_z
  _atom_site_occupancy
  As  As1       1.0  0.6499078273773193  0.5573282241821289  0.3435849845409394  1.0000
  Na  Na1       1.0  0.30220896005630493  0.03492799028754234  0.45436075329780584  1.0000
  Na  Na2       1.0  0.8087612390518188  0.639520525932312  0.0814013257622719  1.0000
  Na  Na3       1.0  0.3342888355255127  0.008826468139886856  0.9545223712921144  1.0000
  P   P1        1.0  0.8115723133087158  0.9263764619827269  0.16635659337043765  1.0000
  P   P2        1.0  0.9411672949790955  0.9526594877243041  0.7403162717819215  1.0000
  P   P3        1.0  0.3060807287693023  0.9757892489433287  0.7554766535758973  1.0000
  Pd  Pd1       1.0  0.43074995279312134  0.236734002828598  0.6760430335998536  1.0000
  Ti  Ti1       1.0  0.8159464001655579  0.5086871385574341  0.9664987921714784  1.0000
  Zn  Zn1       1.0  0.8875370025634766  0.674331545829773  0.7684999108314515  1.0000
