data_image0
_chemical_formula_structural       Na9P
_chemical_formula_sum              "Na9 P1"
_cell_length_a       5.715803115664063
_cell_length_b       6.678228225041892
_cell_length_c       6.484002590179443
_cell_angle_alpha    122.96901749879142
_cell_angle_beta     96.73779579834036
_cell_angle_gamma    101.40426992546993

_space_group_name_H-M_alt    "P 1"
_space_group_IT_number       1

loop_
  _space_group_symop_operation_xyz
  'x, y, z'

loop_
  _atom_site_type_symbol
  _atom_site_label
  _atom_site_symmetry_multiplicity
  _atom_site_fract_x
  _atom_site_fract_y
  _atom_site_fract_z
  _atom_site_occupancy
  Na  Na1       1.0  0.7794569134712219  0.8280119895935059  0.8611027002334596  1.0000
  Na  Na2       1.0  0.2889573872089386  0.486554890871048  0.31739309430122375  1.0000
  Na  Na3       1.0  0.7876861691474915  0.6885011196136475  0.40370288491249096  1.0000
  Na  Na4       1.0  0.7908218502998352  0.18773144483566284  0.9494619965553285  1.0000
  Na  Na5       1.0  0.7887577414512634  0.25082433223724365  0.8233569860458375  1.0000
  Na  Na6       1.0  0.7865886092185974  0.691051721572876  0.29501545429229736  1.0000
  Na  Na7       1.0  0.3000049889087677  0.4788932502269745  0.5817350149154663  1.0000
  Na  Na8       1.0  0.3588370978832245  0.27343669533729553  0.7849974632263184  1.0000
  Na  Na9       1.0  0.09473643451929092  0.1386585235595703  0.8668262362480165  1.0000
  P   P1        1.0  0.2793385088443756  0.5769679546356201  0.6021066904067993  1.0000
