data_image0
_chemical_formula_structural       IZr5
_chemical_formula_sum              "I1 Zr5"
_cell_length_a       5.313640011543042
_cell_length_b       6.01817595319156
_cell_length_c       6.297939777374268
_cell_angle_alpha    130.5242004431298
_cell_angle_beta     91.08602797744061
_cell_angle_gamma    91.63604208668407

_space_group_name_H-M_alt    "P 1"
_space_group_IT_number       1

loop_
  _space_group_symop_operation_xyz
  'x, y, z'

loop_
  _atom_site_type_symbol
  _atom_site_label
  _atom_site_symmetry_multiplicity
  _atom_site_fract_x
  _atom_site_fract_y
  _atom_site_fract_z
  _atom_site_occupancy
  I   I1        1.0  0.5639280080795288  0.9315736293792726  0.8368125557899476  1.0000
  Zr  Zr1       1.0  0.06552685797214508  0.8455142378807068  0.9416324496269227  1.0000
  Zr  Zr2       1.0  0.556755542755127  0.6573805809020996  0.04176966845989227  1.0000
  Zr  Zr3       1.0  0.06554318964481354  0.10694805532693863  0.7947745323181153  1.0000
  Zr  Zr4       1.0  0.062095295637845986  0.7045980095863342  0.18526516854763034  1.0000
  Zr  Zr5       1.0  0.5589854717254639  0.6595030426979065  0.6208491921424866  1.0000
