data_image0
_chemical_formula_structural       Co2Dy2Gd2MgPr2Zn2
_chemical_formula_sum              "Co2 Dy2 Gd2 Mg1 Pr2 Zn2"
_cell_length_a       5.553621604733623
_cell_length_b       8.120130928941718
_cell_length_c       8.28399658203125
_cell_angle_alpha    120.3367937390037
_cell_angle_beta     88.42741208148641
_cell_angle_gamma    90.18915525161862

_space_group_name_H-M_alt    "P 1"
_space_group_IT_number       1

loop_
  _space_group_symop_operation_xyz
  'x, y, z'

loop_
  _atom_site_type_symbol
  _atom_site_label
  _atom_site_symmetry_multiplicity
  _atom_site_fract_x
  _atom_site_fract_y
  _atom_site_fract_z
  _atom_site_occupancy
  Co  Co1       1.0  0.30785560607910156  0.16082069277763367  0.8942481279373169  1.0000
  Co  Co2       1.0  0.3207024335861206  0.36826860904693604  0.22723349928855893  1.0000
  Dy  Dy1       1.0  0.8171373605728149  0.6636548638343811  0.8961517810821533  1.0000
  Dy  Dy2       1.0  0.31948333978652954  0.6473433375358582  0.7151099443435669  1.0000
  Gd  Gd1       1.0  0.8148277401924133  0.6189239621162415  0.40453732013702387  1.0000
  Gd  Gd2       1.0  0.817605197429657  0.18757569789886475  0.19530710577964783  1.0000
  Mg  Mg1       1.0  0.8208498358726501  0.28796038031578064  0.5013782382011414  1.0000
  Pr  Pr1       1.0  0.8196477890014648  0.8503110408782959  0.599863588809967  1.0000
  Pr  Pr2       1.0  0.3157165050506592  0.9157641530036926  0.2353209257125854  1.0000
  Zn  Zn1       1.0  0.3204052150249481  0.5627692341804504  0.7494909763336182  1.0000
  Zn  Zn2       1.0  0.313418984413147  0.17494744062423706  0.4508228898048401  1.0000
