data_image0
_chemical_formula_structural       CoDy4FeMnPrYbZn2
_chemical_formula_sum              "Co1 Dy4 Fe1 Mn1 Pr1 Yb1 Zn2"
_cell_length_a       5.7950608180947505
_cell_length_b       8.794140332183671
_cell_length_c       8.575815200805664
_cell_angle_alpha    119.7753707000043
_cell_angle_beta     89.33142534820587
_cell_angle_gamma    89.67832292544468

_space_group_name_H-M_alt    "P 1"
_space_group_IT_number       1

loop_
  _space_group_symop_operation_xyz
  'x, y, z'

loop_
  _atom_site_type_symbol
  _atom_site_label
  _atom_site_symmetry_multiplicity
  _atom_site_fract_x
  _atom_site_fract_y
  _atom_site_fract_z
  _atom_site_occupancy
  Co  Co1       1.0  0.08157733827829361  0.5665732622146606  0.5465825796127319  1.0000
  Dy  Dy1       1.0  0.5794293284416199  0.576849639415741  0.06507039815187454  1.0000
  Dy  Dy2       1.0  0.075045645236969  0.8123747706413269  0.7781314849853516  1.0000
  Dy  Dy3       1.0  0.0801241397857666  0.058813299983739846  0.1264657825231552  1.0000
  Dy  Dy4       1.0  0.33380335569381714  0.9656993150711058  0.48011481761932373  1.0000
  Fe  Fe1       1.0  0.07770048826932907  0.31037598848342896  0.06671081483364105  1.0000
  Mn  Mn1       1.0  0.580332338809967  0.8218911290168762  0.11777538061141968  1.0000
  Pr  Pr1       1.0  0.5834141969680786  0.3609348237514496  0.3257156312465668  1.0000
  Yb  Yb1       1.0  0.0799466148018837  0.8324986100196838  0.2711131274700165  1.0000
  Zn  Zn1       1.0  0.0800769254565239  0.23007285594940183  0.45245885848999023  1.0000
  Zn  Zn2       1.0  0.5772993564605713  0.6190760135650635  0.6513758301734924  1.0000
