data_image0
_chemical_formula_structural       Ag4CoDy2Mg4
_chemical_formula_sum              "Ag4 Co1 Dy2 Mg4"
_cell_length_a       6.332959793075888
_cell_length_b       6.566672337084115
_cell_length_c       6.445172309875488
_cell_angle_alpha    118.93416540893021
_cell_angle_beta     104.383643413677
_cell_angle_gamma    99.72594489095309

_space_group_name_H-M_alt    "P 1"
_space_group_IT_number       1

loop_
  _space_group_symop_operation_xyz
  'x, y, z'

loop_
  _atom_site_type_symbol
  _atom_site_label
  _atom_site_symmetry_multiplicity
  _atom_site_fract_x
  _atom_site_fract_y
  _atom_site_fract_z
  _atom_site_occupancy
  Ag  Ag1       1.0  0.25246748328208923  0.08007336407899857  0.5269432067871094  1.0000
  Ag  Ag2       1.0  0.011490000411868104  0.2449290603399277  0.785045862197876  1.0000
  Ag  Ag3       1.0  0.0185369271785021  0.4905185997486115  0.28444585204124456  1.0000
  Ag  Ag4       1.0  0.012014279142022133  0.7326290607452393  0.512846827507019  1.0000
  Co  Co1       1.0  0.5209040641784668  0.7728593945503235  0.012264313176274367  1.0000
  Dy  Dy1       1.0  0.010691072791814804  0.7600283026695251  0.19995234906673437  1.0000
  Dy  Dy2       1.0  0.7486973404884338  0.24466855823993686  0.1764755547046662  1.0000
  Mg  Mg1       1.0  0.2658097743988037  0.26420608162879944  0.9382058382034301  1.0000
  Mg  Mg2       1.0  0.5239814519882202  0.7570075392723083  0.504138171672821  1.0000
  Mg  Mg3       1.0  0.026483578607440033  0.8724555373191835  0.7868472933769226  1.0000
  Mg  Mg4       1.0  0.522395133972168  0.7702344059944153  0.5477139353752136  1.0000
