data_image0
_chemical_formula_structural       CuDy2Mg2Mn2RhZn3
_chemical_formula_sum              "Cu1 Dy2 Mg2 Mn2 Rh1 Zn3"
_cell_length_a       6.092139281997953
_cell_length_b       5.990938969438713
_cell_length_c       6.051078796386719
_cell_angle_alpha    112.35543548441082
_cell_angle_beta     102.76023856215626
_cell_angle_gamma    111.9223694770024

_space_group_name_H-M_alt    "P 1"
_space_group_IT_number       1

loop_
  _space_group_symop_operation_xyz
  'x, y, z'

loop_
  _atom_site_type_symbol
  _atom_site_label
  _atom_site_symmetry_multiplicity
  _atom_site_fract_x
  _atom_site_fract_y
  _atom_site_fract_z
  _atom_site_occupancy
  Cu  Cu1       1.0  0.3736175000667572  0.20353589951992035  0.1299314498901367  1.0000
  Dy  Dy1       1.0  0.01755770668387413  0.6670637130737305  0.385556548833847  1.0000
  Dy  Dy2       1.0  0.015323435887694357  0.2028159350156784  0.38859149813652033  1.0000
  Mg  Mg1       1.0  0.3700632154941559  0.2069069892168045  0.8932512998580932  1.0000
  Mg  Mg2       1.0  0.3879503905773163  0.20706339180469513  0.39287868142127985  1.0000
  Mn  Mn1       1.0  0.7502854466438293  0.9133795499801636  0.14964227378368378  1.0000
  Mn  Mn2       1.0  0.032324470579624176  0.9008800983428955  0.6895542740821837  1.0000
  Rh  Rh1       1.0  0.02385883778333664  0.45291221141815186  0.6352373361587524  1.0000
  Zn  Zn1       1.0  0.3689555823802948  0.22542352974414825  0.6344250440597534  1.0000
  Zn  Zn2       1.0  0.3798496127128601  0.6964855194091797  0.38947805762290943  1.0000
  Zn  Zn3       1.0  0.6904904842376709  0.8542450666427612  0.9023378491401671  1.0000
