data_image0
_chemical_formula_structural       AgDy3FeGdMgPPrZn2
_chemical_formula_sum              "Ag1 Dy3 Fe1 Gd1 Mg1 P1 Pr1 Zn2"
_cell_length_a       6.780102873532509
_cell_length_b       7.295446547622609
_cell_length_c       7.4355387687683105
_cell_angle_alpha    112.87312583682606
_cell_angle_beta     113.08855259733912
_cell_angle_gamma    91.39513337722876

_space_group_name_H-M_alt    "P 1"
_space_group_IT_number       1

loop_
  _space_group_symop_operation_xyz
  'x, y, z'

loop_
  _atom_site_type_symbol
  _atom_site_label
  _atom_site_symmetry_multiplicity
  _atom_site_fract_x
  _atom_site_fract_y
  _atom_site_fract_z
  _atom_site_occupancy
  Ag  Ag1       1.0  0.004931238945573568  0.16903375089168549  0.8574802279472351  1.0000
  Dy  Dy1       1.0  0.38975805044174194  0.9252203702926636  0.168729767203331  1.0000
  Dy  Dy2       1.0  0.16353537142276764  0.43260055780410767  0.672343373298645  1.0000
  Dy  Dy3       1.0  0.6715536713600159  0.9281814694404602  0.3506464660167694  1.0000
  Fe  Fe1       1.0  0.8883043527603149  0.4236162006855011  0.1653333306312561  1.0000
  Gd  Gd1       1.0  0.8540136814117432  0.19061274826526642  0.3497450649738312  1.0000
  Mg  Mg1       1.0  0.3767247498035431  0.9189839363098145  0.3549322783946991  1.0000
  P   P1        1.0  0.661478579044342  0.9395133852958679  0.390746533870697  1.0000
  Pr  Pr1       1.0  0.007947629317641258  0.4392349421977997  0.9382734298706056  1.0000
  Zn  Zn1       1.0  0.6596482396125793  0.700255274772644  0.4493427574634552  1.0000
  Zn  Zn2       1.0  0.5029478669166565  0.6670278906822205  0.8775606155395508  1.0000
