data_image0
_chemical_formula_structural       Ag3CoDy2ErMg4
_chemical_formula_sum              "Ag3 Co1 Dy2 Er1 Mg4"
_cell_length_a       5.984722595921089
_cell_length_b       5.906715508376266
_cell_length_c       5.55097770690918
_cell_angle_alpha    89.4842638378353
_cell_angle_beta     89.96796735997275
_cell_angle_gamma    88.62193552481948

_space_group_name_H-M_alt    "P 1"
_space_group_IT_number       1

loop_
  _space_group_symop_operation_xyz
  'x, y, z'

loop_
  _atom_site_type_symbol
  _atom_site_label
  _atom_site_symmetry_multiplicity
  _atom_site_fract_x
  _atom_site_fract_y
  _atom_site_fract_z
  _atom_site_occupancy
  Ag  Ag1       1.0  0.2680346965789795  0.8494905829429625  0.6004543900489807  1.0000
  Ag  Ag2       1.0  0.016757352277636528  0.502841591835022  0.23445928096771243  1.0000
  Ag  Ag3       1.0  0.28079473972320557  0.626272439956665  0.33927103877067566  1.0000
  Co  Co1       1.0  0.2787882089614868  0.13357017934322357  0.8433606028556825  1.0000
  Dy  Dy1       1.0  0.7318069934844971  0.8428017497062682  0.09812191128730775  1.0000
  Dy  Dy2       1.0  0.26549309492111206  0.13960491120815277  0.5965438485145569  1.0000
  Er  Er1       1.0  0.7514694929122925  0.15695467591285706  0.6013025641441345  1.0000
  Mg  Mg1       1.0  0.731132447719574  0.12447233498096465  0.10030448436737062  1.0000
  Mg  Mg2       1.0  0.33114999532699585  0.6335801482200623  0.33781641721725464  1.0000
  Mg  Mg3       1.0  0.7396069169044495  0.5395734310150146  0.5099653005599976  1.0000
  Mg  Mg4       1.0  0.7288857698440552  0.8967521190643309  0.09741532802581788  1.0000
