data_image0
_chemical_formula_structural       CsLi8NiZn
_chemical_formula_sum              "Cs1 Li8 Ni1 Zn1"
_cell_length_a       4.922709414059653
_cell_length_b       5.71032163818135
_cell_length_c       8.766517639160156
_cell_angle_alpha    91.1456327242483
_cell_angle_beta     93.97917647449636
_cell_angle_gamma    97.62614334434433

_space_group_name_H-M_alt    "P 1"
_space_group_IT_number       1

loop_
  _space_group_symop_operation_xyz
  'x, y, z'

loop_
  _atom_site_type_symbol
  _atom_site_label
  _atom_site_symmetry_multiplicity
  _atom_site_fract_x
  _atom_site_fract_y
  _atom_site_fract_z
  _atom_site_occupancy
  Cs  Cs1       1.0  0.9862638115882874  0.19929181039333344  0.031187791377305984  1.0000
  Li  Li1       1.0  0.7307272553443909  0.47502225637435913  0.6116997599601746  1.0000
  Li  Li2       1.0  0.7402198910713196  0.8714608550071716  0.28189295530319214  1.0000
  Li  Li3       1.0  0.48801979422569275  0.199050173163414  0.27297520637512207  1.0000
  Li  Li4       1.0  0.7846216559410095  0.40241751074790955  0.7674371600151062  1.0000
  Li  Li5       1.0  0.5382674336433411  0.57929927110672  0.8900449275970459  1.0000
  Li  Li6       1.0  0.235335111618042  0.4562285840511322  0.9405001997947693  1.0000
  Li  Li7       1.0  0.09800643473863602  0.20433852076530457  0.26729756593704224  1.0000
  Li  Li8       1.0  0.265764057636261  0.89919114112854  0.7926549315452576  1.0000
  Ni  Ni1       1.0  0.28604260087013245  0.8119008541107178  0.540445864200592  1.0000
  Zn  Zn1       1.0  0.2882588505744934  0.4250543415546417  0.912200927734375  1.0000
