data_image0
_chemical_formula_structural       H2Li5P2PdZn
_chemical_formula_sum              "H2 Li5 P2 Pd1 Zn1"
_cell_length_a       4.502453814128174
_cell_length_b       5.803066470368067
_cell_length_c       6.899345874786377
_cell_angle_alpha    109.51453701410581
_cell_angle_beta     114.74160028659175
_cell_angle_gamma    89.47570642332886

_space_group_name_H-M_alt    "P 1"
_space_group_IT_number       1

loop_
  _space_group_symop_operation_xyz
  'x, y, z'

loop_
  _atom_site_type_symbol
  _atom_site_label
  _atom_site_symmetry_multiplicity
  _atom_site_fract_x
  _atom_site_fract_y
  _atom_site_fract_z
  _atom_site_occupancy
  H   H1        1.0  0.591221809387207  0.24632546305656433  0.5975226759910583  1.0000
  H   H2        1.0  0.7095263600349426  0.8693383932113647  0.29110684990882874  1.0000
  Li  Li1       1.0  0.02905963733792305  0.0314226895570755  0.7212352156639099  1.0000
  Li  Li2       1.0  0.3086585998535156  0.9083366990089417  0.02588295191526413  1.0000
  Li  Li3       1.0  0.7664535045623779  0.26804178953170776  0.8507593274116516  1.0000
  Li  Li4       1.0  0.5470619201660156  0.01777556538581848  0.5892050862312317  1.0000
  Li  Li5       1.0  0.3856205344200134  0.49442923069000244  0.7998641729354858  1.0000
  P   P1        1.0  0.5939072370529175  0.24798955023288727  0.5612526535987854  1.0000
  P   P2        1.0  0.29578670859336853  0.3102659285068512  0.1163790374994278  1.0000
  Pd  Pd1       1.0  0.023703204467892647  0.5179182291030884  0.5430871844291688  1.0000
  Zn  Zn1       1.0  0.8665253520011902  0.8242467045783997  0.11053665727376938  1.0000
