data_image0
_chemical_formula_structural       Al3ClHLi6
_chemical_formula_sum              "Al3 Cl1 H1 Li6"
_cell_length_a       5.225803665641638
_cell_length_b       5.5759449033220125
_cell_length_c       6.309470176696777
_cell_angle_alpha    70.00300918556017
_cell_angle_beta     65.85767073882995
_cell_angle_gamma    59.78634733537835

_space_group_name_H-M_alt    "P 1"
_space_group_IT_number       1

loop_
  _space_group_symop_operation_xyz
  'x, y, z'

loop_
  _atom_site_type_symbol
  _atom_site_label
  _atom_site_symmetry_multiplicity
  _atom_site_fract_x
  _atom_site_fract_y
  _atom_site_fract_z
  _atom_site_occupancy
  Al  Al1       1.0  0.9270945191383362  0.7928720712661743  0.009879738092422485  1.0000
  Al  Al2       1.0  0.7839799523353577  0.7255557179450989  0.7342678308486938  1.0000
  Al  Al3       1.0  0.31996527314186096  0.7777682542800903  0.8448294401168823  1.0000
  Cl  Cl1       1.0  0.9782418608665467  0.2488040328025818  0.5560734868049622  1.0000
  H   H1        1.0  0.820961058139801  0.5000496506690979  0.11771924048662186  1.0000
  Li  Li1       1.0  0.5823692679405212  0.10654759407043457  0.7282769680023193  1.0000
  Li  Li2       1.0  0.39184993505477905  0.5992717742919922  0.46390002965927124  1.0000
  Li  Li3       1.0  0.5818212032318115  0.11807610094547272  0.7231542468070984  1.0000
  Li  Li4       1.0  0.9313860535621643  0.46359843015670776  0.05906396731734276  1.0000
  Li  Li5       1.0  0.08386518061161041  0.10465949773788452  0.3813014328479767  1.0000
  Li  Li6       1.0  0.5883269906044006  0.6347347497940063  0.24710394442081451  1.0000
