data_image0
_chemical_formula_structural       Al2HLi7P
_chemical_formula_sum              "Al2 H1 Li7 P1"
_cell_length_a       4.823476623337503
_cell_length_b       5.240217846299247
_cell_length_c       6.803167343139648
_cell_angle_alpha    113.0103157435802
_cell_angle_beta     113.5130585492023
_cell_angle_gamma    89.60346525640783

_space_group_name_H-M_alt    "P 1"
_space_group_IT_number       1

loop_
  _space_group_symop_operation_xyz
  'x, y, z'

loop_
  _atom_site_type_symbol
  _atom_site_label
  _atom_site_symmetry_multiplicity
  _atom_site_fract_x
  _atom_site_fract_y
  _atom_site_fract_z
  _atom_site_occupancy
  Al  Al1       1.0  0.8084022402763367  0.587456464767456  0.2969581186771393  1.0000
  Al  Al2       1.0  0.08637149631977081  0.9643234014511108  0.9067798256874084  1.0000
  H   H1        1.0  0.6556164622306824  0.2286510169506073  0.7799707055091858  1.0000
  Li  Li1       1.0  0.8083595633506775  0.2064097374677658  0.2955355942249298  1.0000
  Li  Li2       1.0  0.5058909058570862  0.3184468448162079  0.15620581805706024  1.0000
  Li  Li3       1.0  0.8069263100624084  0.541329026222229  0.7819740176200867  1.0000
  Li  Li4       1.0  0.6232829689979553  0.3248443901538849  0.5504657626152039  1.0000
  Li  Li5       1.0  0.30394792556762695  0.8120980858802795  0.31466564536094666  1.0000
  Li  Li6       1.0  0.26952114701271057  0.8202434182167053  0.2288711667060852  1.0000
  Li  Li7       1.0  0.08100516349077225  0.4698547124862671  0.43181848526000977  1.0000
  P   P1        1.0  0.39345696568489075  0.9829539656639099  0.538620114326477  1.0000
