data_image0
_chemical_formula_structural       Al3ClH2Li5
_chemical_formula_sum              "Al3 Cl1 H2 Li5"
_cell_length_a       4.672242780388731
_cell_length_b       5.38935751021075
_cell_length_c       6.7377800941467285
_cell_angle_alpha    77.23775445851265
_cell_angle_beta     72.5400383415647
_cell_angle_gamma    62.43706579507308

_space_group_name_H-M_alt    "P 1"
_space_group_IT_number       1

loop_
  _space_group_symop_operation_xyz
  'x, y, z'

loop_
  _atom_site_type_symbol
  _atom_site_label
  _atom_site_symmetry_multiplicity
  _atom_site_fract_x
  _atom_site_fract_y
  _atom_site_fract_z
  _atom_site_occupancy
  Al  Al1       1.0  0.22367045283317566  0.7657089233398438  0.17580905556678772  1.0000
  Al  Al2       1.0  0.35376811027526855  0.052961211651563644  0.2973387837409973  1.0000
  Al  Al3       1.0  0.7799517512321472  0.7843754887580872  0.9207942485809326  1.0000
  Cl  Cl1       1.0  0.4794091582298279  0.036920372396707535  0.9404813051223755  1.0000
  H   H1        1.0  0.5656539797782898  0.3185846507549286  0.5531421303749084  1.0000
  H   H2        1.0  0.20263232290744781  0.8015002012252808  0.1045306995511055  1.0000
  Li  Li1       1.0  0.9253057837486267  0.2914281487464905  0.3294757902622223  1.0000
  Li  Li2       1.0  0.4288841784000397  0.1048794761300087  0.08506366610527039  1.0000
  Li  Li3       1.0  0.6744807958602905  0.4213191270828247  0.0442199669778347  1.0000
  Li  Li4       1.0  0.40429747104644775  0.7877542972564697  0.4317847788333893  1.0000
  Li  Li5       1.0  0.9501414895057678  0.4180205464363098  0.42647838592529297  1.0000
