data_image0
_chemical_formula_structural       Al2HLi7Zn
_chemical_formula_sum              "Al2 H1 Li7 Zn1"
_cell_length_a       5.452220755106555
_cell_length_b       5.784290603073146
_cell_length_c       6.572425365447998
_cell_angle_alpha    112.31599342264873
_cell_angle_beta     112.77317063171785
_cell_angle_gamma    93.91569971051015

_space_group_name_H-M_alt    "P 1"
_space_group_IT_number       1

loop_
  _space_group_symop_operation_xyz
  'x, y, z'

loop_
  _atom_site_type_symbol
  _atom_site_label
  _atom_site_symmetry_multiplicity
  _atom_site_fract_x
  _atom_site_fract_y
  _atom_site_fract_z
  _atom_site_occupancy
  Al  Al1       1.0  0.8558944463729858  0.010838414542376995  0.20605812966823575  1.0000
  Al  Al2       1.0  0.16727077960968018  0.8491791486740112  0.3928910493850708  1.0000
  H   H1        1.0  0.7742348909378052  0.7622613906860352  0.215722918510437  1.0000
  Li  Li1       1.0  0.16412222385406494  0.9993485808372498  0.974321186542511  1.0000
  Li  Li2       1.0  0.9922996163368225  0.49686872959136963  0.5791171193122864  1.0000
  Li  Li3       1.0  0.5036067962646484  0.5008255839347839  0.9706022143363953  1.0000
  Li  Li4       1.0  0.5519144535064697  0.6620328426361084  0.4311140477657318  1.0000
  Li  Li5       1.0  0.4784950017929077  0.8249427080154419  0.895728588104248  1.0000
  Li  Li6       1.0  0.00876035075634718  0.27069151401519775  0.156270831823349  1.0000
  Li  Li7       1.0  0.012701963074505329  0.2520929276943207  0.6183687448501587  1.0000
  Zn  Zn1       1.0  0.5051375031471252  0.24339760839939117  0.1618056744337082  1.0000
