data_image0
_chemical_formula_structural       In5LiTi2
_chemical_formula_sum              "In5 Li1 Ti2"
_cell_length_a       4.924880312726988
_cell_length_b       4.972044906623938
_cell_length_c       7.842591285705566
_cell_angle_alpha    96.82879926589331
_cell_angle_beta     88.75413657647393
_cell_angle_gamma    124.45513815881965

_space_group_name_H-M_alt    "P 1"
_space_group_IT_number       1

loop_
  _space_group_symop_operation_xyz
  'x, y, z'

loop_
  _atom_site_type_symbol
  _atom_site_label
  _atom_site_symmetry_multiplicity
  _atom_site_fract_x
  _atom_site_fract_y
  _atom_site_fract_z
  _atom_site_occupancy
  In  In1       1.0  0.9798585772514343  0.8482966423034668  0.8775035738945007  1.0000
  In  In2       1.0  0.9781372547149658  0.8601791858673096  0.22040511667728424  1.0000
  In  In3       1.0  0.476626455783844  0.35782477259635925  0.09866885095834732  1.0000
  In  In4       1.0  0.7231160998344421  0.622473418712616  0.41521382331848145  1.0000
  In  In5       1.0  0.49674355983734125  0.3537871241569519  0.09495498239994049  1.0000
  Li  Li1       1.0  0.1116408184170723  0.02476494014263153  0.37670066952705383  1.0000
  Ti  Ti1       1.0  0.2678394913673401  0.5549705624580383  0.6338534951210022  1.0000
  Ti  Ti2       1.0  0.5106308460235596  0.011071454733610153  0.896889865398407  1.0000
