data_image0
_chemical_formula_structural       In5KTi2
_chemical_formula_sum              "In5 K1 Ti2"
_cell_length_a       4.7998442661078204
_cell_length_b       5.467400255270142
_cell_length_c       8.232934951782227
_cell_angle_alpha    89.0966914508929
_cell_angle_beta     90.75374058274416
_cell_angle_gamma    117.30052164041494

_space_group_name_H-M_alt    "P 1"
_space_group_IT_number       1

loop_
  _space_group_symop_operation_xyz
  'x, y, z'

loop_
  _atom_site_type_symbol
  _atom_site_label
  _atom_site_symmetry_multiplicity
  _atom_site_fract_x
  _atom_site_fract_y
  _atom_site_fract_z
  _atom_site_occupancy
  In  In1       1.0  0.5971435904502869  0.9574377536773682  0.9008052945137024  1.0000
  In  In2       1.0  0.5748550891876221  0.9364513754844666  0.11176953464746475  1.0000
  In  In3       1.0  0.065682053565979  0.9513362646102905  0.11790333688259125  1.0000
  In  In4       1.0  0.5572418570518494  0.7507879137992859  0.7134484648704529  1.0000
  In  In5       1.0  0.19293911755084991  0.4656495749950409  0.8816502094268799  1.0000
  K   K1        1.0  0.5716742873191833  0.5959222316741943  0.40287381410598755  1.0000
  Ti  Ti1       1.0  0.06772105395793915  0.49214574694633484  0.1885717213153839  1.0000
  Ti  Ti2       1.0  0.6977319121360779  0.20730024576187134  0.8920614719390869  1.0000
