data_image0
_chemical_formula_structural       In7Ti
_chemical_formula_sum              "In7 Ti1"
_cell_length_a       5.150925471855441
_cell_length_b       5.552868883766421
_cell_length_c       7.869045734405518
_cell_angle_alpha    89.11558586669872
_cell_angle_beta     89.27631482793514
_cell_angle_gamma    117.99416880757039

_space_group_name_H-M_alt    "P 1"
_space_group_IT_number       1

loop_
  _space_group_symop_operation_xyz
  'x, y, z'

loop_
  _atom_site_type_symbol
  _atom_site_label
  _atom_site_symmetry_multiplicity
  _atom_site_fract_x
  _atom_site_fract_y
  _atom_site_fract_z
  _atom_site_occupancy
  In  In1       1.0  0.155478373169899  0.7099782228469849  0.8820571899414061  1.0000
  In  In2       1.0  0.16744893789291382  0.69096839427948  0.6054537296295166  1.0000
  In  In3       1.0  0.646346390247345  0.7191665172576904  0.8427592515945433  1.0000
  In  In4       1.0  0.643180787563324  0.9899833798408508  0.10578060150146483  1.0000
  In  In5       1.0  0.6536322236061096  0.1771373301744461  0.395750343799591  1.0000
  In  In6       1.0  0.6563158631324768  0.307701051235199  0.8816928267478942  1.0000
  In  In7       1.0  0.15877878665924072  0.26383036375045776  0.6279211640357971  1.0000
  Ti  Ti1       1.0  0.1316332370042801  0.2543909549713135  0.38731798529624933  1.0000
