data_image0
_chemical_formula_structural       ClILiPSrTaTiTl5
_chemical_formula_sum              "Cl1 I1 Li1 P1 Sr1 Ta1 Ti1 Tl5"
_cell_length_a       6.5749640184192595
_cell_length_b       6.994558603425432
_cell_length_c       7.364962100982666
_cell_angle_alpha    67.9762084185281
_cell_angle_beta     64.67385637821937
_cell_angle_gamma    65.99956562098531

_space_group_name_H-M_alt    "P 1"
_space_group_IT_number       1

loop_
  _space_group_symop_operation_xyz
  'x, y, z'

loop_
  _atom_site_type_symbol
  _atom_site_label
  _atom_site_symmetry_multiplicity
  _atom_site_fract_x
  _atom_site_fract_y
  _atom_site_fract_z
  _atom_site_occupancy
  Cl  Cl1       1.0  0.7926282286643982  0.4174348711967468  0.4747371077537536  1.0000
  I   I1        1.0  0.02387317456305027  0.23803450167179108  0.9840813279151915  1.0000
  Li  Li1       1.0  0.5570261478424072  0.05614028498530388  0.981093943119049  1.0000
  P   P1        1.0  0.14343011379241943  0.6465285420417786  0.10053191334009169  1.0000
  Sr  Sr1       1.0  0.5280936360359192  0.9603824019432068  0.4556386768817901  1.0000
  Ta  Ta1       1.0  0.3531009256839752  0.6628459095954895  0.5585554838180542  1.0000
  Ti  Ti1       1.0  0.6086421012878418  0.10226564109325409  0.2717936336994171  1.0000
  Tl  Tl1       1.0  0.5814424157142639  0.34247979521751404  0.7772052884101867  1.0000
  Tl  Tl2       1.0  0.41105732321739197  0.4791376292705536  0.9483136534690856  1.0000
  Tl  Tl3       1.0  0.02330775558948517  0.6288607716560364  0.2983347773551941  1.0000
  Tl  Tl4       1.0  0.5380967259407043  0.24134846031665802  0.20935229957103726  1.0000
  Tl  Tl5       1.0  0.900355875492096  0.2998679578304291  0.6305190920829773  1.0000
