data_image0
_chemical_formula_structural       CaILi3Mg2PPtTl2Zn
_chemical_formula_sum              "Ca1 I1 Li3 Mg2 P1 Pt1 Tl2 Zn1"
_cell_length_a       6.828285567611443
_cell_length_b       6.747643450670997
_cell_length_c       7.042301654815674
_cell_angle_alpha    66.00409166130163
_cell_angle_beta     63.17591045216111
_cell_angle_gamma    62.4724164872304

_space_group_name_H-M_alt    "P 1"
_space_group_IT_number       1

loop_
  _space_group_symop_operation_xyz
  'x, y, z'

loop_
  _atom_site_type_symbol
  _atom_site_label
  _atom_site_symmetry_multiplicity
  _atom_site_fract_x
  _atom_site_fract_y
  _atom_site_fract_z
  _atom_site_occupancy
  Ca  Ca1       1.0  0.00045170870725997475  0.10792065411806105  0.620503306388855  1.0000
  I   I1        1.0  0.49124449491500854  0.4601683914661407  0.13658230006694794  1.0000
  Li  Li1       1.0  0.019955661147832905  0.7870909571647643  0.7833684682846069  1.0000
  Li  Li2       1.0  0.47991979122161865  0.585693359375  0.28944554924964905  1.0000
  Li  Li3       1.0  0.8999288082122803  0.7273129820823669  0.4802992045879364  1.0000
  Mg  Mg1       1.0  0.8709511160850525  0.6642616391181946  0.12825711071491241  1.0000
  Mg  Mg2       1.0  0.500369668006897  0.8530211448669432  0.1452045738697052  1.0000
  P   P1        1.0  0.4900377690792084  0.027824530377984043  0.8246980905532839  1.0000
  Pt  Pt1       1.0  0.050163526087999344  0.05590683594346046  0.9784724712371826  1.0000
  Tl  Tl1       1.0  0.04511857405304909  0.29048606753349304  0.5539663434028625  1.0000
  Tl  Tl2       1.0  0.8732474446296692  0.6867006421089172  0.5704822540283203  1.0000
  Zn  Zn1       1.0  0.9034774303436279  0.8254606723785399  0.15435315668582916  1.0000
