data_image0
_chemical_formula_structural       Ta6Tl6
_chemical_formula_sum              "Ta6 Tl6"
_cell_length_a       5.8784583820925045
_cell_length_b       4.964483007772051
_cell_length_c       7.064205169677734
_cell_angle_alpha    118.29847843372995
_cell_angle_beta     111.17477220226043
_cell_angle_gamma    87.96713474841947

_space_group_name_H-M_alt    "P 1"
_space_group_IT_number       1

loop_
  _space_group_symop_operation_xyz
  'x, y, z'

loop_
  _atom_site_type_symbol
  _atom_site_label
  _atom_site_symmetry_multiplicity
  _atom_site_fract_x
  _atom_site_fract_y
  _atom_site_fract_z
  _atom_site_occupancy
  Ta  Ta1       1.0  0.7879076600074768  0.2020120471715927  0.16813282668590546  1.0000
  Ta  Ta2       1.0  0.8265472054481506  0.4291340112686157  0.2467559278011322  1.0000
  Ta  Ta3       1.0  0.3075427711009979  0.7669124007225037  0.08943017572164536  1.0000
  Ta  Ta4       1.0  0.7739514708518982  0.9184600114822388  0.8679199814796448  1.0000
  Ta  Ta5       1.0  0.8078343868255615  0.24643045663833618  0.10441183298826218  1.0000
  Ta  Ta6       1.0  0.0748899057507515  0.002170225838199258  0.9011711478233337  1.0000
  Tl  Tl1       1.0  0.3174767792224884  0.035694822669029236  0.17744463682174683  1.0000
  Tl  Tl2       1.0  0.8037890195846558  0.32208216190338135  0.13102558255195618  1.0000
  Tl  Tl3       1.0  0.7358790636062622  0.5944400429725647  0.6080998182296753  1.0000
  Tl  Tl4       1.0  0.3050830066204071  0.1797856092453003  0.41158849000930786  1.0000
  Tl  Tl5       1.0  0.30988064408302307  0.7142091989517212  0.3496847450733185  1.0000
  Tl  Tl6       1.0  0.5739684104919434  0.21799644827842712  0.37101563811302185  1.0000
