data_image0
_chemical_formula_structural       C3I3PSr4Zn
_chemical_formula_sum              "C3 I3 P1 Sr4 Zn1"
_cell_length_a       5.44392629367438
_cell_length_b       5.772067749996204
_cell_length_c       7.502471923828125
_cell_angle_alpha    102.39119972090172
_cell_angle_beta     105.5261611091996
_cell_angle_gamma    94.66328848283887

_space_group_name_H-M_alt    "P 1"
_space_group_IT_number       1

loop_
  _space_group_symop_operation_xyz
  'x, y, z'

loop_
  _atom_site_type_symbol
  _atom_site_label
  _atom_site_symmetry_multiplicity
  _atom_site_fract_x
  _atom_site_fract_y
  _atom_site_fract_z
  _atom_site_occupancy
  C   C1        1.0  0.6336933970451355  0.4364475607872009  0.8473056554794312  1.0000
  C   C2        1.0  0.6184690594673157  0.8706030249595642  0.13998661935329437  1.0000
  C   C3        1.0  0.12447606027126314  0.219674751162529  0.06101896986365319  1.0000
  I   I1        1.0  0.365800678730011  0.15575818717479706  0.3128860890865326  1.0000
  I   I2        1.0  0.6192749738693237  0.6623880863189697  0.9756487011909485  1.0000
  I   I3        1.0  0.1237689107656479  0.39185768365859985  0.3674573302268982  1.0000
  P   P1        1.0  0.10866214334964754  0.8862842917442322  0.08031708747148514  1.0000
  Sr  Sr1       1.0  0.6185472011566162  0.26169270277023315  0.8950890898704529  1.0000
  Sr  Sr2       1.0  0.12583032250404358  0.6402865648269653  0.9678760170936584  1.0000
  Sr  Sr3       1.0  0.13058295845985413  0.5197693109512329  0.10616341233253479  1.0000
  Sr  Sr4       1.0  0.6299896836280823  0.17526552081108093  0.14325404167175293  1.0000
  Zn  Zn1       1.0  0.6300488114356995  0.44352054595947266  0.42269760370254517  1.0000
