data_image0
_chemical_formula_structural       CCaClMgO2SbSr2Ta2Tl
_chemical_formula_sum              "C1 Ca1 Cl1 Mg1 O2 Sb1 Sr2 Ta2 Tl1"
_cell_length_a       5.780419010438304
_cell_length_b       7.185041824921608
_cell_length_c       7.387752532958984
_cell_angle_alpha    62.487913721827915
_cell_angle_beta     64.18475906782174
_cell_angle_gamma    61.98521328018318

_space_group_name_H-M_alt    "P 1"
_space_group_IT_number       1

loop_
  _space_group_symop_operation_xyz
  'x, y, z'

loop_
  _atom_site_type_symbol
  _atom_site_label
  _atom_site_symmetry_multiplicity
  _atom_site_fract_x
  _atom_site_fract_y
  _atom_site_fract_z
  _atom_site_occupancy
  C   C1        1.0  0.26001229882240295  0.38599660992622375  0.4259311258792878  1.0000
  Ca  Ca1       1.0  0.3062266409397125  0.835084855556488  0.29003921151161194  1.0000
  Cl  Cl1       1.0  0.5836200714111328  0.12243453413248062  0.5522716045379639  1.0000
  Mg  Mg1       1.0  0.9640839099884033  0.21955201029777527  0.6051113605499268  1.0000
  O   O1        1.0  0.05098611116409302  0.9685824513435364  0.24260373413562777  1.0000
  O   O2        1.0  0.3850937485694885  0.15542104840278625  0.7248271703720094  1.0000
  Sb  Sb1       1.0  0.3241226077079773  0.14795413613319397  0.519757091999054  1.0000
  Sr  Sr1       1.0  0.9224861860275269  0.019212380051612854  0.11689588427543642  1.0000
  Sr  Sr2       1.0  0.7738791704177856  0.680041491985321  0.30593469738960266  1.0000
  Ta  Ta1       1.0  0.6348318457603455  0.030977223068475723  0.2513129711151123  1.0000
  Ta  Ta2       1.0  0.5554399490356445  0.17990440130233765  0.737863063812256  1.0000
  Tl  Tl1       1.0  0.5312023758888245  0.4289340078830719  0.8448266983032228  1.0000
