data_image0
_chemical_formula_structural       Sr2Ta4Tl6
_chemical_formula_sum              "Sr2 Ta4 Tl6"
_cell_length_a       6.2654605143649515
_cell_length_b       6.268871298682196
_cell_length_c       6.734861373901367
_cell_angle_alpha    109.04394105388276
_cell_angle_beta     106.65888165198994
_cell_angle_gamma    93.25993221914287

_space_group_name_H-M_alt    "P 1"
_space_group_IT_number       1

loop_
  _space_group_symop_operation_xyz
  'x, y, z'

loop_
  _atom_site_type_symbol
  _atom_site_label
  _atom_site_symmetry_multiplicity
  _atom_site_fract_x
  _atom_site_fract_y
  _atom_site_fract_z
  _atom_site_occupancy
  Sr  Sr1       1.0  0.6878905296325684  0.17199821770191193  0.44943124055862427  1.0000
  Sr  Sr2       1.0  0.1701286882162094  0.5388102531433105  0.7477453351020813  1.0000
  Ta  Ta1       1.0  0.20416584610939026  0.28438231348991394  0.6699808835983276  1.0000
  Ta  Ta2       1.0  0.19851894676685333  0.9906619787216187  0.053370438516139915  1.0000
  Ta  Ta3       1.0  0.10437832772731781  0.10892147570848465  0.7789818644523621  1.0000
  Ta  Ta4       1.0  0.18159709870815277  0.23575878143310547  0.17744779586791992  1.0000
  Tl  Tl1       1.0  0.8696564435958862  0.2583949565887451  0.30516907572746277  1.0000
  Tl  Tl2       1.0  0.6966063380241394  0.4049042761325836  0.9672092199325562  1.0000
  Tl  Tl3       1.0  0.6953188180923462  0.4450996518135071  0.20686687529087067  1.0000
  Tl  Tl4       1.0  0.6981928944587708  0.3000550866127014  0.012258258648216691  1.0000
  Tl  Tl5       1.0  0.6722954511642456  0.7382910251617432  0.5445156097412109  1.0000
  Tl  Tl6       1.0  0.1859130561351776  0.14963936805725098  0.3815779983997345  1.0000
