data_image0
_chemical_formula_structural       Ge5PtS6SbU
_chemical_formula_sum              "Ge5 Pt1 S6 Sb1 U1"
_cell_length_a       6.7999446634139655
_cell_length_b       6.703499706211103
_cell_length_c       7.699946403503418
_cell_angle_alpha    84.7505022670056
_cell_angle_beta     71.2597803291408
_cell_angle_gamma    66.32817812964512

_space_group_name_H-M_alt    "P 1"
_space_group_IT_number       1

loop_
  _space_group_symop_operation_xyz
  'x, y, z'

loop_
  _atom_site_type_symbol
  _atom_site_label
  _atom_site_symmetry_multiplicity
  _atom_site_fract_x
  _atom_site_fract_y
  _atom_site_fract_z
  _atom_site_occupancy
  Ge  Ge1       1.0  0.21829213201999667  0.4443942308425903  0.4048105776309967  1.0000
  Ge  Ge2       1.0  0.13433921337127686  0.04387075826525688  0.603472888469696  1.0000
  Ge  Ge3       1.0  0.8913267850875854  0.8876942396163939  0.9558425545692444  1.0000
  Ge  Ge4       1.0  0.41171094775199896  0.8532884120941161  0.8537761569023132  1.0000
  Ge  Ge5       1.0  0.8863638639450073  0.6552205681800842  0.5282022356987  1.0000
  Pt  Pt1       1.0  0.13364793360233307  0.06774944067001343  0.575995683670044  1.0000
  S   S1        1.0  0.5676652193069458  0.8802440762519835  0.8700989484786987  1.0000
  S   S2        1.0  0.5466306805610657  0.3260761499404907  0.39169520139694214  1.0000
  S   S3        1.0  0.36819583177566534  0.970361828804016  0.6346462965011597  1.0000
  S   S4        1.0  0.8938838243484497  0.43051242828369135  0.870566189289093  1.0000
  S   S5        1.0  0.9214237332344055  0.2185789048671722  0.5801071524620056  1.0000
  S   S6        1.0  0.4072939157485962  0.13032446801662445  0.6594605445861816  1.0000
  Sb  Sb1       1.0  0.21523971855640414  0.4608676731586456  0.4255129396915436  1.0000
  U   U1        1.0  0.8981425166130066  0.7759499549865722  0.26822298765182495  1.0000
