data_image0
_chemical_formula_structural       Ge5PtS8
_chemical_formula_sum              "Ge5 Pt1 S8"
_cell_length_a       6.718729115963187
_cell_length_b       7.970937499280484
_cell_length_c       8.70504093170166
_cell_angle_alpha    89.57087376206844
_cell_angle_beta     90.94024467931708
_cell_angle_gamma    106.6703998523437

_space_group_name_H-M_alt    "P 1"
_space_group_IT_number       1

loop_
  _space_group_symop_operation_xyz
  'x, y, z'

loop_
  _atom_site_type_symbol
  _atom_site_label
  _atom_site_symmetry_multiplicity
  _atom_site_fract_x
  _atom_site_fract_y
  _atom_site_fract_z
  _atom_site_occupancy
  Ge  Ge1       1.0  0.8827481269836426  0.6979565620422363  0.4469170868396759  1.0000
  Ge  Ge2       1.0  0.5673336982727051  0.7114654183387756  0.7746945023536682  1.0000
  Ge  Ge3       1.0  0.1590689718723297  0.9917631149291992  0.6772180795669556  1.0000
  Ge  Ge4       1.0  0.20120182633399963  0.3156075179576874  0.16259008646011355  1.0000
  Ge  Ge5       1.0  0.13839352130889893  0.8365512490272522  0.8386508226394653  1.0000
  Pt  Pt1       1.0  0.8037310838699341  0.8808524012565613  0.7905808091163635  1.0000
  S   S1        1.0  0.5470522046089172  0.5841336846351624  0.822628915309906  1.0000
  S   S2        1.0  0.07718820124864578  0.09851246327161789  0.3895074725151062  1.0000
  S   S3        1.0  0.5967671871185303  0.19309896230697632  0.5099338889122009  1.0000
  S   S4        1.0  0.0861361101269722  0.43018919229507446  0.9325735569000244  1.0000
  S   S5        1.0  0.8530808091163635  0.9029635190963745  0.015463457442820072  1.0000
  S   S6        1.0  0.5752553343772888  0.6485752463340759  0.00837305560708046  1.0000
  S   S7        1.0  0.5555004477500916  0.8086287975311279  0.5644530653953553  1.0000
  S   S8        1.0  0.08182836323976517  0.6886414885520935  0.3640502095222473  1.0000
