data_image0
_chemical_formula_structural       Ge5NdS8
_chemical_formula_sum              "Ge5 Nd1 S8"
_cell_length_a       5.912267731432397
_cell_length_b       6.579528852264319
_cell_length_c       5.900763034820557
_cell_angle_alpha    107.55657276060191
_cell_angle_beta     99.09151832819035
_cell_angle_gamma    118.27818597118134

_space_group_name_H-M_alt    "P 1"
_space_group_IT_number       1

loop_
  _space_group_symop_operation_xyz
  'x, y, z'

loop_
  _atom_site_type_symbol
  _atom_site_label
  _atom_site_symmetry_multiplicity
  _atom_site_fract_x
  _atom_site_fract_y
  _atom_site_fract_z
  _atom_site_occupancy
  Ge  Ge1       1.0  0.6284115314483643  0.7695371508598328  0.4373550415039062  1.0000
  Ge  Ge2       1.0  0.027104007080197334  0.383807510137558  0.9699255824089049  1.0000
  Ge  Ge3       1.0  0.8349828720092773  0.33696410059928894  0.3990239202976226  1.0000
  Ge  Ge4       1.0  0.1262170523405075  0.8505875468254089  0.8754990696907042  1.0000
  Ge  Ge5       1.0  0.13218510150909424  0.21265952289104462  0.08563759177923204  1.0000
  Nd  Nd1       1.0  0.12729494273662567  0.6546959280967712  0.4077883958816528  1.0000
  S   S1        1.0  0.4329473078250885  0.4449453353881836  0.7183111906051636  1.0000
  S   S2        1.0  0.8782451748847961  0.8795099258422852  0.7278133034706115  1.0000
  S   S3        1.0  0.6298008561134338  0.11383649706840515  0.7904183268547057  1.0000
  S   S4        1.0  0.6270897388458252  0.6913854479789734  0.9378805756568908  1.0000
  S   S5        1.0  0.10400787740945816  0.9465003609657288  0.4037242233753205  1.0000
  S   S6        1.0  0.44159260392189026  0.006739428266882896  0.3297646641731262  1.0000
  S   S7        1.0  0.26784059405326843  0.6792818307876587  0.6396540999412537  1.0000
  S   S8        1.0  0.7870864868164062  0.40540820360183716  0.6177384257316589  1.0000
