data_image0
_chemical_formula_structural       GeNd10S3
_chemical_formula_sum              "Ge1 Nd10 S3"
_cell_length_a       5.787234418535297
_cell_length_b       8.458979963498933
_cell_length_c       7.440467357635498
_cell_angle_alpha    111.1017434023122
_cell_angle_beta     98.74361293801529
_cell_angle_gamma    105.29847431113465

_space_group_name_H-M_alt    "P 1"
_space_group_IT_number       1

loop_
  _space_group_symop_operation_xyz
  'x, y, z'

loop_
  _atom_site_type_symbol
  _atom_site_label
  _atom_site_symmetry_multiplicity
  _atom_site_fract_x
  _atom_site_fract_y
  _atom_site_fract_z
  _atom_site_occupancy
  Ge  Ge1       1.0  0.3440970182418823  0.07350557297468185  0.28423142433166504  1.0000
  Nd  Nd1       1.0  0.8274338841438293  0.6742808222770691  0.9332247376441954  1.0000
  Nd  Nd2       1.0  0.8909703493118286  0.4287583827972412  0.4917884171009063  1.0000
  Nd  Nd3       1.0  0.5983712077140808  0.27766454219818115  0.6084640026092529  1.0000
  Nd  Nd4       1.0  0.4814030230045318  0.6640477180480957  0.4842322766780852  1.0000
  Nd  Nd5       1.0  0.13267911970615387  0.690984308719635  0.7717734575271606  1.0000
  Nd  Nd6       1.0  0.10946279019117355  0.9189695119857788  0.9160461425781249  1.0000
  Nd  Nd7       1.0  0.8988942503929138  0.008636591024696827  0.16889704763889313  1.0000
  Nd  Nd8       1.0  0.34762054681777954  0.8480477929115295  0.875915765762329  1.0000
  Nd  Nd9       1.0  0.15404832363128662  0.6741977334022522  0.6192983388900757  1.0000
  Nd  Nd10      1.0  0.3896443843841553  0.6119563579559326  0.26706081628799433  1.0000
  S   S1        1.0  0.11836241185665129  0.4985472559928894  0.31171080470085144  1.0000
  S   S2        1.0  0.40076011419296265  0.9138199090957642  0.13377749919891352  1.0000
  S   S3        1.0  0.7098860144615173  0.772840678691864  0.30703350901603693  1.0000
