data_image0
_chemical_formula_structural       Ge2Nd10S2
_chemical_formula_sum              "Ge2 Nd10 S2"
_cell_length_a       6.182653763222342
_cell_length_b       8.045057328571819
_cell_length_c       7.393590450286865
_cell_angle_alpha    96.26997146785503
_cell_angle_beta     93.62638833431419
_cell_angle_gamma    109.57434174909407

_space_group_name_H-M_alt    "P 1"
_space_group_IT_number       1

loop_
  _space_group_symop_operation_xyz
  'x, y, z'

loop_
  _atom_site_type_symbol
  _atom_site_label
  _atom_site_symmetry_multiplicity
  _atom_site_fract_x
  _atom_site_fract_y
  _atom_site_fract_z
  _atom_site_occupancy
  Ge  Ge1       1.0  0.9337456226348876  0.8002001047134398  0.5527843236923218  1.0000
  Ge  Ge2       1.0  0.8340160250663756  0.2729765772819519  0.7890620827674867  1.0000
  Nd  Nd1       1.0  0.2878141701221466  0.2690527141094208  0.4529614448547364  1.0000
  Nd  Nd2       1.0  0.7727658748626708  0.8479149341583251  0.4899310469627381  1.0000
  Nd  Nd3       1.0  0.08073348551988598  0.6267182826995848  0.7495840191841127  1.0000
  Nd  Nd4       1.0  0.7351233363151549  0.7518644332885741  0.1980814635753632  1.0000
  Nd  Nd5       1.0  0.40096732974052424  0.6430994868278502  0.06446525454521179  1.0000
  Nd  Nd6       1.0  0.6595015525817871  0.5087457895278931  0.8857367038726808  1.0000
  Nd  Nd7       1.0  0.13076062500476832  0.4824139773845672  0.2438333034515381  1.0000
  Nd  Nd8       1.0  0.31805890798568726  0.045456293970346444  0.5406814217567444  1.0000
  Nd  Nd9       1.0  0.6795302629470825  0.8129660487174987  0.5971607565879822  1.0000
  Nd  Nd10      1.0  0.8740459084510802  0.781200885772705  0.9052969217300416  1.0000
  S   S1        1.0  0.8968116044998168  0.931095778942108  0.3489749133586884  1.0000
  S   S2        1.0  0.08742517232894889  0.7947545051574706  0.14514200389385223  1.0000
