data_image0
_chemical_formula_structural       CdGe5NdS6Sb
_chemical_formula_sum              "Cd1 Ge5 Nd1 S6 Sb1"
_cell_length_a       7.524294365991301
_cell_length_b       7.723613920905401
_cell_length_c       7.897909164428711
_cell_angle_alpha    109.55509693801265
_cell_angle_beta     105.62218792481708
_cell_angle_gamma    116.17022184538908

_space_group_name_H-M_alt    "P 1"
_space_group_IT_number       1

loop_
  _space_group_symop_operation_xyz
  'x, y, z'

loop_
  _atom_site_type_symbol
  _atom_site_label
  _atom_site_symmetry_multiplicity
  _atom_site_fract_x
  _atom_site_fract_y
  _atom_site_fract_z
  _atom_site_occupancy
  Cd  Cd1       1.0  0.5334591865539551  0.9832175374031067  0.6677446365356446  1.0000
  Ge  Ge1       1.0  0.020218808203935623  0.9458595514297485  0.1152168214321137  1.0000
  Ge  Ge2       1.0  0.27533671259880066  0.03865614905953407  0.5849103331565857  1.0000
  Ge  Ge3       1.0  0.9996838569641113  0.5410323739051819  0.920756220817566  1.0000
  Ge  Ge4       1.0  0.8950568437576294  0.6980779767036438  0.021013265475630816  1.0000
  Ge  Ge5       1.0  0.00509257148951292  0.048589009791612625  0.4680741131305695  1.0000
  Nd  Nd1       1.0  0.5559111833572388  0.007286177482455969  0.06278178840875628  1.0000
  S   S1        1.0  0.6756753325462341  0.46338582038879395  0.7837657928466797  1.0000
  S   S2        1.0  0.4327784776687622  0.8758894205093384  0.12183254957199102  1.0000
  S   S3        1.0  0.04036188870668411  0.8727154731750488  0.4711686670780182  1.0000
  S   S4        1.0  0.5260547399520874  0.7110979557037354  0.2468478530645371  1.0000
  S   S5        1.0  0.7079372406005859  0.8989135026931763  0.6848866343498231  1.0000
  S   S6        1.0  0.16810213029384613  0.8845375180244446  0.6490091681480408  1.0000
  Sb  Sb1       1.0  0.26480960845947266  0.5116385817527771  0.7692217230796814  1.0000
