data_image0
_chemical_formula_structural       Bi2KNaO3STi
_chemical_formula_sum              "Bi2 K1 Na1 O3 S1 Ti1"
_cell_length_a       5.883583501428254
_cell_length_b       6.532741565767558
_cell_length_c       6.935614585876465
_cell_angle_alpha    109.48861508212343
_cell_angle_beta     109.06442322003556
_cell_angle_gamma    108.08439080385395

_space_group_name_H-M_alt    "P 1"
_space_group_IT_number       1

loop_
  _space_group_symop_operation_xyz
  'x, y, z'

loop_
  _atom_site_type_symbol
  _atom_site_label
  _atom_site_symmetry_multiplicity
  _atom_site_fract_x
  _atom_site_fract_y
  _atom_site_fract_z
  _atom_site_occupancy
  Bi  Bi1       1.0  0.991879940032959  0.6220144629478455  0.4745613336563111  1.0000
  Bi  Bi2       1.0  0.3012254536151886  0.2724704146385193  0.22938902676105502  1.0000
  K   K1        1.0  0.7802824974060059  0.2755865454673767  0.4630523622035981  1.0000
  Na  Na1       1.0  0.7331757545471191  0.7715944647789001  0.08651395142078401  1.0000
  O   O1        1.0  0.5982856154441833  0.01907815970480442  0.9435379505157472  1.0000
  O   O2        1.0  0.08462007343769073  0.7848407626152039  0.05821816623210908  1.0000
  O   O3        1.0  0.8593031167984009  0.7855989933013916  0.9585492610931398  1.0000
  S   S1        1.0  0.3314190208911896  0.7732003927230835  0.28635600209236145  1.0000
  Ti  Ti1       1.0  0.5495885610580444  0.39920830726623535  0.8620067238807679  1.0000
