data_image0
_chemical_formula_structural       BiK2O5P
_chemical_formula_sum              "Bi1 K2 O5 P1"
_cell_length_a       5.910082973225804
_cell_length_b       6.3212435770317725
_cell_length_c       6.406310081481934
_cell_angle_alpha    58.26258651804503
_cell_angle_beta     58.076758024866166
_cell_angle_gamma    59.894817594161246

_space_group_name_H-M_alt    "P 1"
_space_group_IT_number       1

loop_
  _space_group_symop_operation_xyz
  'x, y, z'

loop_
  _atom_site_type_symbol
  _atom_site_label
  _atom_site_symmetry_multiplicity
  _atom_site_fract_x
  _atom_site_fract_y
  _atom_site_fract_z
  _atom_site_occupancy
  Bi  Bi1       1.0  0.3759162127971649  0.7888661026954651  0.9945549964904784  1.0000
  K   K1        1.0  0.23394212126731873  0.9686780571937561  0.9867628812789916  1.0000
  K   K2        1.0  0.2044980525970459  0.424489825963974  0.6239646673202515  1.0000
  O   O1        1.0  0.7256613969802856  0.44257426261901855  0.13277126848697662  1.0000
  O   O2        1.0  0.7098372578620911  0.4433782994747162  0.6926453709602356  1.0000
  O   O3        1.0  0.21142330765724182  0.9292638897895813  0.1325809210538864  1.0000
  O   O4        1.0  0.2130993902683258  0.9295809864997864  0.13900867104530334  1.0000
  O   O5        1.0  0.800337016582489  0.2760307788848877  0.39368659257888794  1.0000
  P   P1        1.0  0.7171177864074707  0.4281386137008667  0.3133803606033325  1.0000
