data_image0
_chemical_formula_structural       Bi2K2O5
_chemical_formula_sum              "Bi2 K2 O5"
_cell_length_a       6.104923485865801
_cell_length_b       6.702235490814596
_cell_length_c       6.524326801300049
_cell_angle_alpha    64.9939796482514
_cell_angle_beta     61.45903437815101
_cell_angle_gamma    64.65300855499576

_space_group_name_H-M_alt    "P 1"
_space_group_IT_number       1

loop_
  _space_group_symop_operation_xyz
  'x, y, z'

loop_
  _atom_site_type_symbol
  _atom_site_label
  _atom_site_symmetry_multiplicity
  _atom_site_fract_x
  _atom_site_fract_y
  _atom_site_fract_z
  _atom_site_occupancy
  Bi  Bi1       1.0  0.8348633050918579  0.4005047678947448  0.18372347950935364  1.0000
  Bi  Bi2       1.0  0.4087555408477783  0.12334477156400679  0.42443618178367615  1.0000
  K   K1        1.0  0.5148216485977173  0.7796018719673156  0.9097427725791931  1.0000
  K   K2        1.0  0.024799784645438236  0.9256936907768248  0.8604689836502075  1.0000
  O   O1        1.0  0.013411912135779858  0.0056059998460114  0.4180372357368469  1.0000
  O   O2        1.0  0.18938086926937103  0.28937846422195435  0.737525463104248  1.0000
  O   O3        1.0  0.15769913792610168  0.5827835202217102  0.2843664884567261  1.0000
  O   O4        1.0  0.5271033048629761  0.5297821164131165  0.9152767658233643  1.0000
  O   O5        1.0  0.6688292026519775  0.08195070177316666  0.816308319568634  1.0000
