data_image0
_chemical_formula_structural       Bi3O4S2
_chemical_formula_sum              "Bi3 O4 S2"
_cell_length_a       6.763558870928653
_cell_length_b       7.018234698889668
_cell_length_c       7.30947732925415
_cell_angle_alpha    106.47195665251944
_cell_angle_beta     109.94121244387998
_cell_angle_gamma    113.68111301547316

_space_group_name_H-M_alt    "P 1"
_space_group_IT_number       1

loop_
  _space_group_symop_operation_xyz
  'x, y, z'

loop_
  _atom_site_type_symbol
  _atom_site_label
  _atom_site_symmetry_multiplicity
  _atom_site_fract_x
  _atom_site_fract_y
  _atom_site_fract_z
  _atom_site_occupancy
  Bi  Bi1       1.0  0.9707932472229005  0.5699539184570312  0.06445068120956421  1.0000
  Bi  Bi2       1.0  0.9792696833610536  0.8023844957351685  0.7446328997612  1.0000
  Bi  Bi3       1.0  0.10675766319036485  0.26354968547821045  0.1874934434890747  1.0000
  O   O1        1.0  0.3563413619995117  0.6745752096176147  0.6809989809989929  1.0000
  O   O2        1.0  0.7203354239463806  0.1818610280752182  0.9768142700195312  1.0000
  O   O3        1.0  0.3436366021633148  0.28465911746025085  0.1529805213212967  1.0000
  O   O4        1.0  0.6676889657974243  0.28894445300102234  0.22983013093471527  1.0000
  S   S1        1.0  0.520350992679596  0.8504958748817444  0.18320086598396307  1.0000
  S   S2        1.0  0.34347811341285706  0.3110981285572052  0.49406811594963074  1.0000
