data_image0
_chemical_formula_structural       Bi2K3O4
_chemical_formula_sum              "Bi2 K3 O4"
_cell_length_a       5.457051016158659
_cell_length_b       6.648119094797238
_cell_length_c       9.402042388916016
_cell_angle_alpha    107.65330847218647
_cell_angle_beta     89.62858520173648
_cell_angle_gamma    106.52378045534225

_space_group_name_H-M_alt    "P 1"
_space_group_IT_number       1

loop_
  _space_group_symop_operation_xyz
  'x, y, z'

loop_
  _atom_site_type_symbol
  _atom_site_label
  _atom_site_symmetry_multiplicity
  _atom_site_fract_x
  _atom_site_fract_y
  _atom_site_fract_z
  _atom_site_occupancy
  Bi  Bi1       1.0  0.009041978046298027  0.7850901484489441  0.870826005935669  1.0000
  Bi  Bi2       1.0  0.9215520620346069  0.26623594760894775  0.6455137133598328  1.0000
  K   K1        1.0  0.4984402060508728  0.5792675614356995  0.8583402633666992  1.0000
  K   K2        1.0  0.4250962436199188  0.5798376202583313  0.6549831032752991  1.0000
  K   K3        1.0  0.9532964825630188  0.25773316621780396  0.3654512763023376  1.0000
  O   O1        1.0  0.9851287007331848  0.28910139203071594  0.9151099920272827  1.0000
  O   O2        1.0  0.48204976320266724  0.7721673846244812  0.05043186619877815  1.0000
  O   O3        1.0  0.584970235824585  0.03548933565616608  0.35643452405929565  1.0000
  O   O4        1.0  0.35581275820732117  0.054102033376693726  0.1516537368297577  1.0000
