data_image0
_chemical_formula_structural       BiK4O4
_chemical_formula_sum              "Bi1 K4 O4"
_cell_length_a       5.217648076664116
_cell_length_b       7.067989026637557
_cell_length_c       8.293858528137207
_cell_angle_alpha    112.0909677605232
_cell_angle_beta     88.70655304498919
_cell_angle_gamma    106.88163143892882

_space_group_name_H-M_alt    "P 1"
_space_group_IT_number       1

loop_
  _space_group_symop_operation_xyz
  'x, y, z'

loop_
  _atom_site_type_symbol
  _atom_site_label
  _atom_site_symmetry_multiplicity
  _atom_site_fract_x
  _atom_site_fract_y
  _atom_site_fract_z
  _atom_site_occupancy
  Bi  Bi1       1.0  0.4429848790168762  0.7434613108634948  0.24473321437835693  1.0000
  K   K1        1.0  0.9631790518760681  0.7435231208801268  0.8156067728996277  1.0000
  K   K2        1.0  0.9596061706542969  0.24515244364738462  0.8080053329467773  1.0000
  K   K3        1.0  0.9484258890151978  0.24581554532051084  0.3075026571750641  1.0000
  K   K4        1.0  0.44736403226852417  0.7486248612403869  0.30327877402305603  1.0000
  O   O1        1.0  0.6953579187393188  0.25978532433509827  0.5249283313751221  1.0000
  O   O2        1.0  0.9410256147384644  0.07412883639335632  0.020870136097073555  1.0000
  O   O3        1.0  0.5155089497566223  0.5732981562614441  0.60699063539505  1.0000
  O   O4        1.0  0.3312598466873169  0.25933659076690674  0.28060755133628845  1.0000
