data_image0
_chemical_formula_structural       Nd2Pd5S2
_chemical_formula_sum              "Nd2 Pd5 S2"
_cell_length_a       4.676962766853135
_cell_length_b       7.126495517402009
_cell_length_c       7.02840518951416
_cell_angle_alpha    118.72633411478256
_cell_angle_beta     91.63225175486379
_cell_angle_gamma    87.20512569331343

_space_group_name_H-M_alt    "P 1"
_space_group_IT_number       1

loop_
  _space_group_symop_operation_xyz
  'x, y, z'

loop_
  _atom_site_type_symbol
  _atom_site_label
  _atom_site_symmetry_multiplicity
  _atom_site_fract_x
  _atom_site_fract_y
  _atom_site_fract_z
  _atom_site_occupancy
  Nd  Nd1       1.0  0.49207839369773865  0.8743268251419067  0.49184697866439825  1.0000
  Nd  Nd2       1.0  0.9872829914093018  0.28334841132164  0.25001764297485357  1.0000
  Pd  Pd1       1.0  0.5023437738418579  0.5268763303756714  0.8462385535240173  1.0000
  Pd  Pd2       1.0  0.9849122762680054  0.8432380557060242  0.19856320321559914  1.0000
  Pd  Pd3       1.0  0.9940410852432251  0.632548451423645  0.52301824092865  1.0000
  Pd  Pd4       1.0  0.9953787326812744  0.05353454500436783  0.7176271080970764  1.0000
  Pd  Pd5       1.0  0.4968656003475189  0.8502576947212219  0.5392819046974183  1.0000
  S   S1        1.0  0.018004579469561577  0.804484486579895  0.21732304990291604  1.0000
  S   S2        1.0  0.4936003088951111  0.5901789665222168  0.14984455704689034  1.0000
