data_image0
_chemical_formula_structural       BNd2Pd4S2
_chemical_formula_sum              "B1 Nd2 Pd4 S2"
_cell_length_a       4.451286393276759
_cell_length_b       6.883537559401344
_cell_length_c       7.26326322555542
_cell_angle_alpha    116.35273661612794
_cell_angle_beta     95.06719582573427
_cell_angle_gamma    86.60458041872754

_space_group_name_H-M_alt    "P 1"
_space_group_IT_number       1

loop_
  _space_group_symop_operation_xyz
  'x, y, z'

loop_
  _atom_site_type_symbol
  _atom_site_label
  _atom_site_symmetry_multiplicity
  _atom_site_fract_x
  _atom_site_fract_y
  _atom_site_fract_z
  _atom_site_occupancy
  B   B1        1.0  0.18079304695129395  0.2597430646419525  0.034179870039224625  1.0000
  Nd  Nd1       1.0  0.1901751458644867  0.7625965476036072  0.7277985215187073  1.0000
  Nd  Nd2       1.0  0.6708703637123108  0.4038762152194977  0.21410551667213437  1.0000
  Pd  Pd1       1.0  0.7058293223381042  0.2494610697031021  0.1201704442501068  1.0000
  Pd  Pd2       1.0  0.19884692132472992  0.9490915536880493  0.40669894218444824  1.0000
  Pd  Pd3       1.0  0.19179192185401917  0.0058632660657167435  0.33020439743995667  1.0000
  Pd  Pd4       1.0  0.7104249000549316  0.1046781912446022  0.9521986246109008  1.0000
  S   S1        1.0  0.0878676176071167  0.5016363859176636  0.5402002930641174  1.0000
  S   S2        1.0  0.6137914657592773  0.6601767539978027  0.7478449940681458  1.0000
