data_image0
_chemical_formula_structural       Bi2Dy2Yb4Zr
_chemical_formula_sum              "Bi2 Dy2 Yb4 Zr1"
_cell_length_a       5.685252975419204
_cell_length_b       6.5993606419240285
_cell_length_c       6.226159572601318
_cell_angle_alpha    69.51071083718838
_cell_angle_beta     61.754975110802604
_cell_angle_gamma    62.58513114003797

_space_group_name_H-M_alt    "P 1"
_space_group_IT_number       1

loop_
  _space_group_symop_operation_xyz
  'x, y, z'

loop_
  _atom_site_type_symbol
  _atom_site_label
  _atom_site_symmetry_multiplicity
  _atom_site_fract_x
  _atom_site_fract_y
  _atom_site_fract_z
  _atom_site_occupancy
  Bi  Bi1       1.0  0.7946135997772217  0.8484452962875366  0.9500225186347963  1.0000
  Bi  Bi2       1.0  0.24553143978118896  0.8255817890167236  0.9662644863128663  1.0000
  Dy  Dy1       1.0  0.240944966673851  0.8126538991928101  0.9238169193267823  1.0000
  Dy  Dy2       1.0  0.7858180999755859  0.21643957495689392  0.9622700810432435  1.0000
  Yb  Yb1       1.0  0.7260621786117554  0.3077438473701477  0.9487497806549073  1.0000
  Yb  Yb2       1.0  0.13740211725234985  0.5194754004478455  0.10205993056297302  1.0000
  Yb  Yb3       1.0  0.0783085897564888  0.7143315076828003  0.8028014898300171  1.0000
  Yb  Yb4       1.0  0.10236664861440659  0.2382364720106125  0.7489423155784607  1.0000
  Zr  Zr1       1.0  0.5558387041091919  0.877571702003479  0.259148508310318  1.0000
