data_image0
_chemical_formula_structural       NdOPd5S2
_chemical_formula_sum              "Nd1 O1 Pd5 S2"
_cell_length_a       5.424664744928956
_cell_length_b       5.991813596993323
_cell_length_c       6.204249382019043
_cell_angle_alpha    68.90648873082054
_cell_angle_beta     63.760112535106266
_cell_angle_gamma    62.14639829284275

_space_group_name_H-M_alt    "P 1"
_space_group_IT_number       1

loop_
  _space_group_symop_operation_xyz
  'x, y, z'

loop_
  _atom_site_type_symbol
  _atom_site_label
  _atom_site_symmetry_multiplicity
  _atom_site_fract_x
  _atom_site_fract_y
  _atom_site_fract_z
  _atom_site_occupancy
  Nd  Nd1       1.0  0.8032270073890686  0.9290198683738708  0.9621368646621704  1.0000
  O   O1        1.0  0.18342727422714233  0.6963358521461487  0.14742767810821533  1.0000
  Pd  Pd1       1.0  0.5408055782318115  0.5787380337715149  0.13951970636844635  1.0000
  Pd  Pd2       1.0  0.6112293004989624  0.6273617148399353  0.4567663371562958  1.0000
  Pd  Pd3       1.0  0.04177078232169151  0.10589493066072464  0.3127569258213043  1.0000
  Pd  Pd4       1.0  0.30707791447639465  0.4261583685874939  0.9663302302360535  1.0000
  Pd  Pd5       1.0  0.8105462789535522  0.15900692343711853  0.9771544337272644  1.0000
  S   S1        1.0  0.7648515701293945  0.21086667478084564  0.2400297075510025  1.0000
  S   S2        1.0  0.6419671177864075  0.8101736307144165  0.7420806288719177  1.0000
