data_image0
_chemical_formula_structural       LaNdOPd4S2
_chemical_formula_sum              "La1 Nd1 O1 Pd4 S2"
_cell_length_a       4.579693017419162
_cell_length_b       7.295304047088042
_cell_length_c       7.45691442489624
_cell_angle_alpha    119.70638202824966
_cell_angle_beta     93.158693878962
_cell_angle_gamma    86.67257008369013

_space_group_name_H-M_alt    "P 1"
_space_group_IT_number       1

loop_
  _space_group_symop_operation_xyz
  'x, y, z'

loop_
  _atom_site_type_symbol
  _atom_site_label
  _atom_site_symmetry_multiplicity
  _atom_site_fract_x
  _atom_site_fract_y
  _atom_site_fract_z
  _atom_site_occupancy
  La  La1       1.0  0.2581826150417328  0.4638949632644653  0.21323245763778687  1.0000
  Nd  Nd1       1.0  0.7693320512771606  0.9095128774642943  0.6532053351402283  1.0000
  O   O1        1.0  0.29656961560249334  0.026540560647845265  0.33731094002723694  1.0000
  Pd  Pd1       1.0  0.27935683727264404  0.0222372654825449  0.14826859533786774  1.0000
  Pd  Pd2       1.0  0.25520244240760803  0.6929408311843872  0.46610280871391296  1.0000
  Pd  Pd3       1.0  0.7413292527198792  0.1821342557668686  0.46347570419311523  1.0000
  Pd  Pd4       1.0  0.7455971240997314  0.570828914642334  0.21894612908363342  1.0000
  S   S1        1.0  0.7830386161804199  0.5161230564117432  0.33757898211479187  1.0000
  S   S2        1.0  0.25076133012771606  0.05274111405014991  0.6391290426254272  1.0000
