data_image0
_chemical_formula_structural       AsIrP4Pb2PrZr
_chemical_formula_sum              "As1 Ir1 P4 Pb2 Pr1 Zr1"
_cell_length_a       4.090994213489405
_cell_length_b       7.0632587283848105
_cell_length_c       7.303238868713379
_cell_angle_alpha    121.91663186895164
_cell_angle_beta     95.3723852809205
_cell_angle_gamma    89.67003701246774

_space_group_name_H-M_alt    "P 1"
_space_group_IT_number       1

loop_
  _space_group_symop_operation_xyz
  'x, y, z'

loop_
  _atom_site_type_symbol
  _atom_site_label
  _atom_site_symmetry_multiplicity
  _atom_site_fract_x
  _atom_site_fract_y
  _atom_site_fract_z
  _atom_site_occupancy
  As  As1       1.0  0.8416420221328735  0.3602186441421509  0.384455144405365  1.0000
  Ir  Ir1       1.0  0.32531076669692993  0.4586331248283386  0.26086282730102534  1.0000
  P   P1        1.0  0.3720184862613678  0.31318774819374084  0.7857163548469543  1.0000
  P   P2        1.0  0.3555848002433777  0.8766744136810303  0.6348791122436523  1.0000
  P   P3        1.0  0.8623929619789124  0.3110220730304718  0.5780979990959167  1.0000
  P   P4        1.0  0.8531897664070129  0.7985004186630249  0.31790599226951594  1.0000
  Pb  Pb1       1.0  0.35313642024993896  0.6783635020256042  0.3566880524158477  1.0000
  Pb  Pb2       1.0  0.7927529215812683  0.30034664273262024  0.2057931870222091  1.0000
  Pr  Pr1       1.0  0.32535991072654724  0.36174049973487854  0.49172726273536677  1.0000
  Zr  Zr1       1.0  0.8419255614280701  0.20963840186595917  0.3065553307533264  1.0000
