data_image0
_chemical_formula_structural       IP6PbPtZr
_chemical_formula_sum              "I1 P6 Pb1 Pt1 Zr1"
_cell_length_a       4.791885321932432
_cell_length_b       6.112520270085025
_cell_length_c       6.533682346343994
_cell_angle_alpha    117.69677771810005
_cell_angle_beta     92.65162481055407
_cell_angle_gamma    90.65966744594556

_space_group_name_H-M_alt    "P 1"
_space_group_IT_number       1

loop_
  _space_group_symop_operation_xyz
  'x, y, z'

loop_
  _atom_site_type_symbol
  _atom_site_label
  _atom_site_symmetry_multiplicity
  _atom_site_fract_x
  _atom_site_fract_y
  _atom_site_fract_z
  _atom_site_occupancy
  I   I1        1.0  0.2912191152572632  0.1478097289800644  0.3843933343887329  1.0000
  P   P1        1.0  0.9451894760131835  0.8984878659248352  0.3959590792655945  1.0000
  P   P2        1.0  0.8868339657783507  0.1795203536748886  0.13669675588607788  1.0000
  P   P3        1.0  0.8111196756362915  0.011273846961557865  0.8990209698677063  1.0000
  P   P4        1.0  0.48037427663803095  0.35259005427360535  0.256716251373291  1.0000
  P   P5        1.0  0.9033663272857665  0.9548890590667725  0.559341549873352  1.0000
  P   P6        1.0  0.9224537611007689  0.11464732885360718  0.01563737541437149  1.0000
  Pb  Pb1       1.0  0.42191946506500244  0.6128038167953491  0.9540620446205139  1.0000
  Pt  Pt1       1.0  0.4118064045906067  0.48194339871406555  0.0756860077381134  1.0000
  Zr  Zr1       1.0  0.9417225718498229  0.6872947216033936  0.5314775705337524  1.0000
