data_image0
_chemical_formula_structural       AsEuFP5Ru2
_chemical_formula_sum              "As1 Eu1 F1 P5 Ru2"
_cell_length_a       4.265291862763891
_cell_length_b       5.207173154167323
_cell_length_c       6.895416259765625
_cell_angle_alpha    97.79990267253282
_cell_angle_beta     87.7706328633356
_cell_angle_gamma    112.16643769466121

_space_group_name_H-M_alt    "P 1"
_space_group_IT_number       1

loop_
  _space_group_symop_operation_xyz
  'x, y, z'

loop_
  _atom_site_type_symbol
  _atom_site_label
  _atom_site_symmetry_multiplicity
  _atom_site_fract_x
  _atom_site_fract_y
  _atom_site_fract_z
  _atom_site_occupancy
  As  As1       1.0  0.6452726721763611  0.799058198928833  0.9452812075614929  1.0000
  Eu  Eu1       1.0  0.3375990688800812  0.2846657931804657  0.6856337785720825  1.0000
  F   F1        1.0  0.1005263701081276  0.33507439494132996  0.4301997423171997  1.0000
  P   P1        1.0  0.10007532685995102  0.8751455545425415  0.990983784198761  1.0000
  P   P2        1.0  0.6553908586502075  0.11911270022392273  0.34367719292640686  1.0000
  P   P3        1.0  0.1889110654592514  0.12547197937965393  0.4095020592212677  1.0000
  P   P4        1.0  0.21854205429553986  0.6003404259681702  0.7082008123397827  1.0000
  P   P5        1.0  0.7409070730209351  0.12942688167095184  0.13240011036396027  1.0000
  Ru  Ru1       1.0  0.4735695421695709  0.2752118408679962  0.366825133562088  1.0000
  Ru  Ru2       1.0  0.03747764602303505  0.793116569519043  0.3835712969303131  1.0000
