data_image0
_chemical_formula_structural       P5Pr2Ru2Zr
_chemical_formula_sum              "P5 Pr2 Ru2 Zr1"
_cell_length_a       4.88167048377048
_cell_length_b       5.123756140969212
_cell_length_c       6.736713886260986
_cell_angle_alpha    85.334298634384
_cell_angle_beta     77.07232587750869
_cell_angle_gamma    67.61557383011326

_space_group_name_H-M_alt    "P 1"
_space_group_IT_number       1

loop_
  _space_group_symop_operation_xyz
  'x, y, z'

loop_
  _atom_site_type_symbol
  _atom_site_label
  _atom_site_symmetry_multiplicity
  _atom_site_fract_x
  _atom_site_fract_y
  _atom_site_fract_z
  _atom_site_occupancy
  P   P1        1.0  0.15246281027793884  0.5493399500846863  0.7549352645874023  1.0000
  P   P2        1.0  0.6827126741409302  0.7766252756118774  0.7496312260627747  1.0000
  P   P3        1.0  0.43122100830078125  0.5755996108055115  0.8099225163459778  1.0000
  P   P4        1.0  0.6223632097244263  0.6240406632423401  0.7903128862380981  1.0000
  P   P5        1.0  0.1709519475698471  0.8769580721855164  0.4763903021812439  1.0000
  Pr  Pr1       1.0  0.12912219762802124  0.7757007479667664  0.8901324272155762  1.0000
  Pr  Pr2       1.0  0.10203398019075394  0.09554952383041382  0.4635961949825287  1.0000
  Ru  Ru1       1.0  0.15248949825763702  0.6440354585647583  0.16045263409614563  1.0000
  Ru  Ru2       1.0  0.659680187702179  0.18544545769691467  0.5401477813720703  1.0000
  Zr  Zr1       1.0  0.6492428779602051  0.24388554692268372  0.769609808921814  1.0000
