data_image0
_chemical_formula_structural       P5Ru5
_chemical_formula_sum              "P5 Ru5"
_cell_length_a       4.418985532319596
_cell_length_b       4.955652528904346
_cell_length_c       5.593075752258301
_cell_angle_alpha    98.77758852448412
_cell_angle_beta     96.82775963357473
_cell_angle_gamma    111.7343326891847

_space_group_name_H-M_alt    "P 1"
_space_group_IT_number       1

loop_
  _space_group_symop_operation_xyz
  'x, y, z'

loop_
  _atom_site_type_symbol
  _atom_site_label
  _atom_site_symmetry_multiplicity
  _atom_site_fract_x
  _atom_site_fract_y
  _atom_site_fract_z
  _atom_site_occupancy
  P   P1        1.0  0.9351615309715271  0.22253070771694183  0.753793478012085  1.0000
  P   P2        1.0  0.9146550297737122  0.18470421433448792  0.7074484825134277  1.0000
  P   P3        1.0  0.2812633514404297  0.6973381638526917  0.6886074542999268  1.0000
  P   P4        1.0  0.37525713443756104  0.34525394439697266  0.21385303139686584  1.0000
  P   P5        1.0  0.39950546622276306  0.025514015927910805  0.7479368448257446  1.0000
  Ru  Ru1       1.0  0.2627239525318146  0.7560840249061584  0.14158426225185394  1.0000
  Ru  Ru2       1.0  0.08175254613161087  0.37922433018684387  0.11255062371492386  1.0000
  Ru  Ru3       1.0  0.9210979342460632  0.789204478263855  0.2913760542869568  1.0000
  Ru  Ru4       1.0  0.2649356424808503  0.9568991661071778  0.2784603238105774  1.0000
  Ru  Ru5       1.0  0.9356738924980164  0.6626781225204468  0.3140433728694916  1.0000
