data_image0
_chemical_formula_structural       P5Ru5
_chemical_formula_sum              "P5 Ru5"
_cell_length_a       4.501174936634914
_cell_length_b       4.406889432834931
_cell_length_c       5.35355281829834
_cell_angle_alpha    112.91100903764737
_cell_angle_beta     90.68164343380383
_cell_angle_gamma    102.98257042501882

_space_group_name_H-M_alt    "P 1"
_space_group_IT_number       1

loop_
  _space_group_symop_operation_xyz
  'x, y, z'

loop_
  _atom_site_type_symbol
  _atom_site_label
  _atom_site_symmetry_multiplicity
  _atom_site_fract_x
  _atom_site_fract_y
  _atom_site_fract_z
  _atom_site_occupancy
  P   P1        1.0  0.30127009749412537  0.6496598720550538  0.34561190009117126  1.0000
  P   P2        1.0  0.8298195004463196  0.06095353141427041  0.503173828125  1.0000
  P   P3        1.0  0.8165750503540039  0.5316901206970215  0.4136371314525604  1.0000
  P   P4        1.0  0.8026024699211121  0.5694324374198914  0.41042226552963257  1.0000
  P   P5        1.0  0.8272126317024231  0.8694745302200318  0.5572835206985474  1.0000
  Ru  Ru1       1.0  0.2829332649707794  0.49344801902771  0.8311142921447754  1.0000
  Ru  Ru2       1.0  0.32790058851242065  0.3544566929340363  0.8749243021011353  1.0000
  Ru  Ru3       1.0  0.7726787328720093  0.646705448627472  0.5134193301200867  1.0000
  Ru  Ru4       1.0  0.29573488235473633  0.968500316143036  0.9777892231941223  1.0000
  Ru  Ru5       1.0  0.7912784814834595  0.8154155015945436  0.8781859278678894  1.0000
