data_image0
_chemical_formula_structural       As6KTbVZn
_chemical_formula_sum              "As6 K1 Tb1 V1 Zn1"
_cell_length_a       5.0445804529826965
_cell_length_b       6.492071496088373
_cell_length_c       6.742136478424072
_cell_angle_alpha    99.65060736949016
_cell_angle_beta     100.90165135619692
_cell_angle_gamma    91.36977873366833

_space_group_name_H-M_alt    "P 1"
_space_group_IT_number       1

loop_
  _space_group_symop_operation_xyz
  'x, y, z'

loop_
  _atom_site_type_symbol
  _atom_site_label
  _atom_site_symmetry_multiplicity
  _atom_site_fract_x
  _atom_site_fract_y
  _atom_site_fract_z
  _atom_site_occupancy
  As  As1       1.0  0.6943464875221252  0.0594257228076458  0.3524683713912964  1.0000
  As  As2       1.0  0.6945492625236511  0.9202001690864563  0.8173871636390686  1.0000
  As  As3       1.0  0.7561006546020508  0.15706217288970947  0.6268187165260315  1.0000
  As  As4       1.0  0.7323203086853027  0.5818756818771362  0.5181297659873962  1.0000
  As  As5       1.0  0.7245000004768372  0.0016211492475122213  0.2831135392189026  1.0000
  As  As6       1.0  0.7223724722862244  0.22443830966949463  0.8002121448516846  1.0000
  K   K1        1.0  0.2039853036403656  0.7689880132675171  0.30489495396614075  1.0000
  Tb  Tb1       1.0  0.7275608777999878  0.687458336353302  0.8638346195220947  1.0000
  V   V1        1.0  0.19774580001831055  0.3479114770889282  0.8197962045669556  1.0000
  Zn  Zn1       1.0  0.19621755182743073  0.7227221727371216  0.023311797529459  1.0000
