data_image0
_chemical_formula_structural       As6PV2Zn
_chemical_formula_sum              "As6 P1 V2 Zn1"
_cell_length_a       4.612511286312422
_cell_length_b       4.537217006711122
_cell_length_c       7.428579330444336
_cell_angle_alpha    114.7024979311873
_cell_angle_beta     94.912522716505
_cell_angle_gamma    96.69181446213425

_space_group_name_H-M_alt    "P 1"
_space_group_IT_number       1

loop_
  _space_group_symop_operation_xyz
  'x, y, z'

loop_
  _atom_site_type_symbol
  _atom_site_label
  _atom_site_symmetry_multiplicity
  _atom_site_fract_x
  _atom_site_fract_y
  _atom_site_fract_z
  _atom_site_occupancy
  As  As1       1.0  0.002161608776077628  0.7217642068862915  0.9721124172210693  1.0000
  As  As2       1.0  0.5263867378234863  0.17069284617900848  0.8994424939155579  1.0000
  As  As3       1.0  0.5195604562759399  0.6948690414428711  0.05535408109426501  1.0000
  As  As4       1.0  0.27241918444633484  0.6883283853530884  0.16385188698768616  1.0000
  As  As5       1.0  0.38574278354644775  0.010127389803528786  0.9037479758262634  1.0000
  As  As6       1.0  0.5113584995269775  0.9350346922874451  0.2351931780576706  1.0000
  P   P1        1.0  0.3551592528820038  0.5117941498756409  0.4006625711917877  1.0000
  V   V1        1.0  0.49085602164268494  0.19771726429462433  0.49096736311912537  1.0000
  V   V2        1.0  0.00870954617857933  0.1175786480307579  0.9006554484367371  1.0000
  Zn  Zn1       1.0  0.9882662296295166  0.7128520607948303  0.7887672185897827  1.0000
