data_image0
_chemical_formula_structural       As8GeK
_chemical_formula_sum              "As8 Ge1 K1"
_cell_length_a       8.192231587360014
_cell_length_b       7.992719843515333
_cell_length_c       7.6035685539245605
_cell_angle_alpha    112.56341147248698
_cell_angle_beta     112.07089510014862
_cell_angle_gamma    112.13869396104745

_space_group_name_H-M_alt    "P 1"
_space_group_IT_number       1

loop_
  _space_group_symop_operation_xyz
  'x, y, z'

loop_
  _atom_site_type_symbol
  _atom_site_label
  _atom_site_symmetry_multiplicity
  _atom_site_fract_x
  _atom_site_fract_y
  _atom_site_fract_z
  _atom_site_occupancy
  As  As1       1.0  0.6892457008361815  0.971480131149292  0.01698370277881634  1.0000
  As  As2       1.0  0.8494010567665099  0.5120508670806885  0.40594384074211126  1.0000
  As  As3       1.0  0.0653490498661995  0.46556714177131653  0.8213708996772767  1.0000
  As  As4       1.0  0.8258984088897704  0.4085673689842224  0.9255693554878236  1.0000
  As  As5       1.0  0.4024675786495208  0.17491576075553894  0.5168112516403198  1.0000
  As  As6       1.0  0.5162128210067749  0.8710572123527527  0.3930658400058747  1.0000
  As  As7       1.0  0.40553820133209223  0.44209301471710205  0.1432633399963379  1.0000
  As  As8       1.0  0.3476997315883636  0.5977336764335632  0.5898813009262085  1.0000
  Ge  Ge1       1.0  0.952752113342285  0.08863067626953125  0.7509383559226991  1.0000
  K   K1        1.0  0.07983385026454924  0.3419148921966553  0.7816102504730226  1.0000
