data_image0
_chemical_formula_structural       As6GeV3
_chemical_formula_sum              "As6 Ge1 V3"
_cell_length_a       5.164720914411121
_cell_length_b       4.638060552446501
_cell_length_c       4.9779133796691895
_cell_angle_alpha    132.94865743909585
_cell_angle_beta     110.11438987868209
_cell_angle_gamma    113.79987226787331

_space_group_name_H-M_alt    "P 1"
_space_group_IT_number       1

loop_
  _space_group_symop_operation_xyz
  'x, y, z'

loop_
  _atom_site_type_symbol
  _atom_site_label
  _atom_site_symmetry_multiplicity
  _atom_site_fract_x
  _atom_site_fract_y
  _atom_site_fract_z
  _atom_site_occupancy
  As  As1       1.0  0.34786400198936474  0.5905325412750245  0.5982782840728762  1.0000
  As  As2       1.0  0.5455668568611145  0.05783353745937349  0.07282910495996477  1.0000
  As  As3       1.0  0.6620836853981018  0.36947613954544073  0.3144831359386445  1.0000
  As  As4       1.0  0.9203648567199708  0.4064537882804871  0.7938971519470216  1.0000
  As  As5       1.0  0.7899920344352722  0.6702151894569397  0.765681564807892  1.0000
  As  As6       1.0  0.44524753093719494  0.23721045255661027  0.9347640275955201  1.0000
  Ge  Ge1       1.0  0.08989544957876215  0.18157936632633223  0.9279097318649294  1.0000
  V   V1        1.0  0.6086514592170715  0.207892656326294  0.5504056811332704  1.0000
  V   V2        1.0  0.09530658274888992  0.167800635099411  0.7310290336608887  1.0000
  V   V3        1.0  0.13997524976730358  0.9387794733047486  0.9723483324050906  1.0000
