data_image0
_chemical_formula_structural       As9K
_chemical_formula_sum              "As9 K1"
_cell_length_a       5.941041524541876
_cell_length_b       6.036472643796767
_cell_length_c       8.469904899597168
_cell_angle_alpha    90.0748098981526
_cell_angle_beta     89.47395822633428
_cell_angle_gamma    116.66010660984979

_space_group_name_H-M_alt    "P 1"
_space_group_IT_number       1

loop_
  _space_group_symop_operation_xyz
  'x, y, z'

loop_
  _atom_site_type_symbol
  _atom_site_label
  _atom_site_symmetry_multiplicity
  _atom_site_fract_x
  _atom_site_fract_y
  _atom_site_fract_z
  _atom_site_occupancy
  As  As1       1.0  0.28191086649894714  0.010743207298219204  0.6393200755119324  1.0000
  As  As2       1.0  0.8375492691993713  0.4535389542579651  0.7786960601806641  1.0000
  As  As3       1.0  0.45193758606910706  0.5093489289283752  0.6450451016426086  1.0000
  As  As4       1.0  0.5376930832862854  0.5886664390563965  0.9089152216911316  1.0000
  As  As5       1.0  0.47278735041618347  0.7975500822067261  0.31366491317749023  1.0000
  As  As6       1.0  0.11608834564685822  0.7530568838119507  0.816477358341217  1.0000
  As  As7       1.0  0.632484495639801  0.9452072978019714  0.7646257281303406  1.0000
  As  As8       1.0  0.20010590553283691  0.6720046997070312  0.9655351042747498  1.0000
  As  As9       1.0  0.16071078181266785  0.9091043472290039  0.2518289387226105  1.0000
  K   K1        1.0  0.79588782787323  0.4988726079463959  0.4602806866168976  1.0000
