data_image0
_chemical_formula_structural       As8GeK
_chemical_formula_sum              "As8 Ge1 K1"
_cell_length_a       9.209408266923544
_cell_length_b       8.909766012714032
_cell_length_c       8.711451530456543
_cell_angle_alpha    111.11920255539795
_cell_angle_beta     111.09770171182932
_cell_angle_gamma    115.91372273457971

_space_group_name_H-M_alt    "P 1"
_space_group_IT_number       1

loop_
  _space_group_symop_operation_xyz
  'x, y, z'

loop_
  _atom_site_type_symbol
  _atom_site_label
  _atom_site_symmetry_multiplicity
  _atom_site_fract_x
  _atom_site_fract_y
  _atom_site_fract_z
  _atom_site_occupancy
  As  As1       1.0  0.8273254632949829  0.7443051338195801  0.5810573697090149  1.0000
  As  As2       1.0  0.5310355424880981  0.21780259907245636  0.4081055819988251  1.0000
  As  As3       1.0  0.28645285964012146  0.5172988772392273  0.9515084624290466  1.0000
  As  As4       1.0  0.5677517056465149  0.7299394607543945  0.24018599092960358  1.0000
  As  As5       1.0  0.877108097076416  0.5963601469993591  0.6852238178253174  1.0000
  As  As6       1.0  0.2846379280090332  0.9045583605766296  0.04449477791786188  1.0000
  As  As7       1.0  0.8195303082466125  0.7705828547477722  0.5759773254394531  1.0000
  As  As8       1.0  0.900811493396759  0.08539453893899918  0.4512120485305786  1.0000
  Ge  Ge1       1.0  0.07764410972595215  0.7926650643348694  0.0518227182328701  1.0000
  K   K1        1.0  0.08969876170158386  0.7368265986442566  0.13118863105773926  1.0000
