data_image0
_chemical_formula_structural       B2In2V3
_chemical_formula_sum              "B2 In2 V3"
_cell_length_a       3.2522840188097257
_cell_length_b       3.2215652179852405
_cell_length_c       10.759121894836426
_cell_angle_alpha    89.91184696234977
_cell_angle_beta     90.0431544625761
_cell_angle_gamma    120.07906853552139

_space_group_name_H-M_alt    "P 1"
_space_group_IT_number       1

loop_
  _space_group_symop_operation_xyz
  'x, y, z'

loop_
  _atom_site_type_symbol
  _atom_site_label
  _atom_site_symmetry_multiplicity
  _atom_site_fract_x
  _atom_site_fract_y
  _atom_site_fract_z
  _atom_site_occupancy
  B   B1        1.0  0.4538150429725647  0.39642149209976196  0.2938499450683594  1.0000
  B   B2        1.0  0.12553493678569794  0.7296090126037598  0.293412983417511  1.0000
  In  In1       1.0  0.1273820549249649  0.7265279293060303  0.6192634105682374  1.0000
  In  In2       1.0  0.453863263130188  0.3975673317909241  0.9851669073104858  1.0000
  V   V1        1.0  0.796332061290741  0.06649206578731537  0.79547119140625  1.0000
  V   V2        1.0  0.792471706867218  0.06449051946401596  0.4092963635921479  1.0000
  V   V3        1.0  0.7961574196815491  0.06410449743270874  0.1778850108385086  1.0000
