data_image0
_chemical_formula_structural       B2In2V3
_chemical_formula_sum              "B2 In2 V3"
_cell_length_a       3.289529526387832
_cell_length_b       3.406887046205664
_cell_length_c       8.595736503601074
_cell_angle_alpha    90.05959812644399
_cell_angle_beta     90.09960946368119
_cell_angle_gamma    90.20010073924415

_space_group_name_H-M_alt    "P 1"
_space_group_IT_number       1

loop_
  _space_group_symop_operation_xyz
  'x, y, z'

loop_
  _atom_site_type_symbol
  _atom_site_label
  _atom_site_symmetry_multiplicity
  _atom_site_fract_x
  _atom_site_fract_y
  _atom_site_fract_z
  _atom_site_occupancy
  B   B1        1.0  0.21324844658374786  0.4127378463745117  0.05195371061563492  1.0000
  B   B2        1.0  0.7152529954910278  0.9122482538223267  0.04923568293452263  1.0000
  In  In1       1.0  0.21379074454307556  0.9121881723403931  0.49662649631500244  1.0000
  In  In2       1.0  0.7140070199966431  0.4126601815223694  0.7389869093894957  1.0000
  V   V1        1.0  0.21023501455783844  0.910979151725769  0.18762885034084317  1.0000
  V   V2        1.0  0.21525652706623077  0.9100144505500793  0.8935710191726685  1.0000
  V   V3        1.0  0.7147645950317383  0.4120105803012848  0.27757635712623596  1.0000
