data_image0
_chemical_formula_structural       ClF4MoZr
_chemical_formula_sum              "Cl1 F4 Mo1 Zr1"
_cell_length_a       5.600219723992471
_cell_length_b       5.582959177497076
_cell_length_c       5.726229667663574
_cell_angle_alpha    61.06262823475977
_cell_angle_beta     61.31207467998374
_cell_angle_gamma    60.19943355114478

_space_group_name_H-M_alt    "P 1"
_space_group_IT_number       1

loop_
  _space_group_symop_operation_xyz
  'x, y, z'

loop_
  _atom_site_type_symbol
  _atom_site_label
  _atom_site_symmetry_multiplicity
  _atom_site_fract_x
  _atom_site_fract_y
  _atom_site_fract_z
  _atom_site_occupancy
  Cl  Cl1       1.0  0.24811884760856628  0.8320042490959167  0.44967952370643616  1.0000
  F   F1        1.0  0.7474478483200073  0.8219925165176392  0.9488347768783569  1.0000
  F   F2        1.0  0.7442991733551025  0.3270423412322998  0.444843590259552  1.0000
  F   F3        1.0  0.2578911781311035  0.3255753219127655  0.9404028058052063  1.0000
  F   F4        1.0  0.24811649322509766  0.8242158889770508  0.9466572403907776  1.0000
  Mo  Mo1       1.0  0.002137471456080675  0.5729454159736633  0.21321728825569153  1.0000
  Zr  Zr1       1.0  0.4970444142818451  0.06463519483804703  0.6661508679389953  1.0000
