data_image0
_chemical_formula_structural       C2Cr4
_chemical_formula_sum              "C2 Cr4"
_cell_length_a       4.093049361475635
_cell_length_b       4.214118956082684
_cell_length_c       4.688544750213623
_cell_angle_alpha    119.16687417951704
_cell_angle_beta     107.70108238528888
_cell_angle_gamma    99.76897658478052

_space_group_name_H-M_alt    "P 1"
_space_group_IT_number       1

loop_
  _space_group_symop_operation_xyz
  'x, y, z'

loop_
  _atom_site_type_symbol
  _atom_site_label
  _atom_site_symmetry_multiplicity
  _atom_site_fract_x
  _atom_site_fract_y
  _atom_site_fract_z
  _atom_site_occupancy
  C   C1        1.0  0.4676049053668975  0.8417637348175048  0.20662285387516022  1.0000
  C   C2        1.0  0.28255337476730347  0.5595368146896362  0.9804255366325378  1.0000
  Cr  Cr1       1.0  0.02306297235190863  0.9978061318397521  0.06703629344701767  1.0000
  Cr  Cr2       1.0  0.33829474449157715  0.026057563722133633  0.5973971486091614  1.0000
  Cr  Cr3       1.0  0.8254242539405823  0.8255950808525084  0.6281195878982544  1.0000
  Cr  Cr4       1.0  0.5565478801727295  0.3471958935260772  0.27738526463508606  1.0000
