data_image0
_chemical_formula_structural       ClCo4CsGe2IO4Pb2SbTb
_chemical_formula_sum              "Cl1 Co4 Cs1 Ge2 I1 O4 Pb2 Sb1 Tb1"
_cell_length_a       6.940536863400957
_cell_length_b       7.554690443843078
_cell_length_c       9.457289695739746
_cell_angle_alpha    80.06449043543049
_cell_angle_beta     76.3899256582747
_cell_angle_gamma    77.27560813635472

_space_group_name_H-M_alt    "P 1"
_space_group_IT_number       1

loop_
  _space_group_symop_operation_xyz
  'x, y, z'

loop_
  _atom_site_type_symbol
  _atom_site_label
  _atom_site_symmetry_multiplicity
  _atom_site_fract_x
  _atom_site_fract_y
  _atom_site_fract_z
  _atom_site_occupancy
  Cl  Cl1       1.0  0.7350965738296509  0.30052730441093445  0.7574962973594666  1.0000
  Co  Co1       1.0  0.4042157232761383  0.91695898771286  0.06965259462594987  1.0000
  Co  Co2       1.0  0.914448618888855  0.03437775373458862  0.863657534122467  1.0000
  Co  Co3       1.0  0.4236699044704437  0.5966604948043823  0.36296728253364563  1.0000
  Co  Co4       1.0  0.4174257516860962  0.8931771516799926  0.819663941860199  1.0000
  Cs  Cs1       1.0  0.9216449856758118  0.7327729463577269  0.38507598638534546  1.0000
  Ge  Ge1       1.0  0.4110136032104492  0.27364420890808105  0.039191652089357376  1.0000
  Ge  Ge2       1.0  0.9197622537612915  0.243524894118309  0.9818112850189209  1.0000
  I   I1        1.0  0.9151712656021118  0.438436210155487  0.9868526458740234  1.0000
  O   O1        1.0  0.4573611319065094  0.4303435087203979  0.7940191030502319  1.0000
  O   O2        1.0  0.18693299591541293  0.8369633555412291  0.6594983339309692  1.0000
  O   O3        1.0  0.06305290013551712  0.14434878528118134  0.5264021158218384  1.0000
  O   O4        1.0  0.96443110704422  0.9895757436752318  0.9670599699020386  1.0000
  Pb  Pb1       1.0  0.12065312266349792  0.14358849823474884  0.95650315284729  1.0000
  Pb  Pb2       1.0  0.8854079246520996  0.598257303237915  0.08478942513465881  1.0000
  Sb  Sb1       1.0  0.40146806836128235  0.20944370329380033  0.09004181623458862  1.0000
  Tb  Tb1       1.0  0.6234424114227295  0.6895481944084166  0.652569055557251  1.0000
