data_image0
_chemical_formula_structural       Cl2CoGa2Ge2Li2LuMoO4PbSe
_chemical_formula_sum              "Cl2 Co1 Ga2 Ge2 Li2 Lu1 Mo1 O4 Pb1 Se1"
_cell_length_a       7.070566735609381
_cell_length_b       6.4082065873992065
_cell_length_c       6.770852088928223
_cell_angle_alpha    89.47655125161167
_cell_angle_beta     87.49079087396788
_cell_angle_gamma    77.42096974359687

_space_group_name_H-M_alt    "P 1"
_space_group_IT_number       1

loop_
  _space_group_symop_operation_xyz
  'x, y, z'

loop_
  _atom_site_type_symbol
  _atom_site_label
  _atom_site_symmetry_multiplicity
  _atom_site_fract_x
  _atom_site_fract_y
  _atom_site_fract_z
  _atom_site_occupancy
  Cl  Cl1       1.0  0.32909801602363586  0.5950300097465515  0.48460066318511963  1.0000
  Cl  Cl2       1.0  0.5126100778579712  0.6529581546783447  0.5851762294769287  1.0000
  Co  Co1       1.0  0.6116323471069336  0.24080736935138705  0.6317922472953796  1.0000
  Ga  Ga1       1.0  0.38721469044685364  0.3376009464263916  0.5095956921577454  1.0000
  Ga  Ga2       1.0  0.07875122874975204  0.630865752696991  0.8247994780540466  1.0000
  Ge  Ge1       1.0  0.6292381882667542  0.6046692132949829  0.8370791673660278  1.0000
  Ge  Ge2       1.0  0.39880838990211487  0.11532751470804216  0.3647330701351166  1.0000
  Li  Li1       1.0  0.39896291494369507  0.4679009318351746  0.010728680528700352  1.0000
  Li  Li2       1.0  0.06372082978487015  0.17237302660942078  0.02026568539440632  1.0000
  Lu  Lu1       1.0  0.7894452214241028  0.7122673392295837  0.16367343068122864  1.0000
  Mo  Mo1       1.0  0.05250079557299614  0.6959967613220215  0.18989679217338562  1.0000
  O   O1        1.0  0.07014780491590497  0.881815254688263  0.20064157247543335  1.0000
  O   O2        1.0  0.044105410575866685  0.4752210676670075  0.9314032793045044  1.0000
  O   O3        1.0  0.8887324929237366  0.6259415745735168  0.5604343414306641  1.0000
  O   O4        1.0  0.0952671468257904  0.6046708226203918  0.16917738318443298  1.0000
  Pb  Pb1       1.0  0.05071539431810379  0.3382968008518219  0.25528132915496826  1.0000
  Se  Se1       1.0  0.5896216630935669  0.16152486205101013  0.2499469518661499  1.0000
