data_image0
_chemical_formula_structural       Mo3NNaNiO9Se2
_chemical_formula_sum              "Mo3 N1 Na1 Ni1 O9 Se2"
_cell_length_a       7.916000702687551
_cell_length_b       7.242321095156884
_cell_length_c       7.103254795074463
_cell_angle_alpha    74.62561875336287
_cell_angle_beta     64.01978475006828
_cell_angle_gamma    58.407802867825644

_space_group_name_H-M_alt    "P 1"
_space_group_IT_number       1

loop_
  _space_group_symop_operation_xyz
  'x, y, z'

loop_
  _atom_site_type_symbol
  _atom_site_label
  _atom_site_symmetry_multiplicity
  _atom_site_fract_x
  _atom_site_fract_y
  _atom_site_fract_z
  _atom_site_occupancy
  Mo  Mo1       1.0  0.15077140927314758  0.5107961893081665  0.12188720703125  1.0000
  Mo  Mo2       1.0  0.1616128832101822  0.6421895027160645  0.4926499128341675  1.0000
  Mo  Mo3       1.0  0.6418054103851318  0.43335589766502375  0.7203007936477661  1.0000
  N   N1        1.0  0.5577275156974792  0.6229486465454102  0.6571339964866638  1.0000
  Na  Na1       1.0  0.1232162937521935  0.8388670086860656  0.3905452489852905  1.0000
  Ni  Ni1       1.0  0.916458785533905  0.6168481707572937  0.784427583217621  1.0000
  O   O1        1.0  0.4035227298736573  0.9430313706398009  0.013806100934743881  1.0000
  O   O2        1.0  0.852910041809082  0.6480358242988586  0.7135698199272156  1.0000
  O   O3        1.0  0.15436314046382904  0.5590159893035889  0.9620081782341003  1.0000
  O   O4        1.0  0.13639084994792938  0.5060247182846069  0.06226879730820656  1.0000
  O   O5        1.0  0.6547408103942871  0.9860211014747619  0.9652039408683777  1.0000
  O   O6        1.0  0.1633648276329041  0.7471999526023864  0.7307669520378113  1.0000
  O   O7        1.0  0.9125396013259888  0.7408570647239684  0.7852717638015747  1.0000
  O   O8        1.0  0.5249397158622742  0.38625180721282953  0.053236328065395355  1.0000
  O   O9        1.0  0.08784011006355286  0.010686197318136692  0.04248237237334252  1.0000
  Se  Se1       1.0  0.17449882626533508  0.1424337476491928  0.3227403461933136  1.0000
  Se  Se2       1.0  0.6019772291183472  0.8160446882247924  0.796889066696167  1.0000
