data_image0
_chemical_formula_structural       CsInMo2NaO11Se
_chemical_formula_sum              "Cs1 In1 Mo2 Na1 O11 Se1"
_cell_length_a       7.714003188610932
_cell_length_b       7.541241829023099
_cell_length_c       7.556769371032715
_cell_angle_alpha    64.60986773058303
_cell_angle_beta     62.230435203413684
_cell_angle_gamma    60.67184253970542

_space_group_name_H-M_alt    "P 1"
_space_group_IT_number       1

loop_
  _space_group_symop_operation_xyz
  'x, y, z'

loop_
  _atom_site_type_symbol
  _atom_site_label
  _atom_site_symmetry_multiplicity
  _atom_site_fract_x
  _atom_site_fract_y
  _atom_site_fract_z
  _atom_site_occupancy
  Cs  Cs1       1.0  0.6874881386756897  0.5028977394104004  0.12251447886228561  1.0000
  In  In1       1.0  0.5115817189216614  0.6705936789512634  0.25337088108062744  1.0000
  Mo  Mo1       1.0  0.12554195523262024  0.5831637382507324  0.7696229219436646  1.0000
  Mo  Mo2       1.0  0.7503671646118164  0.3305438458919525  0.2574030458927154  1.0000
  Na  Na1       1.0  0.07308655232191086  0.010197782889008522  0.34480154514312744  1.0000
  O   O1        1.0  0.5225932598114014  0.17329008877277374  0.3771937191486358  1.0000
  O   O2        1.0  0.501320481300354  0.9313017725944519  0.8390216827392578  1.0000
  O   O3        1.0  0.008921102620661259  0.015048275701701641  0.3808993697166443  1.0000
  O   O4        1.0  0.572099506855011  0.3050691485404968  0.36594143509864807  1.0000
  O   O5        1.0  0.9406366944313049  0.9379671216011047  0.8561880588531494  1.0000
  O   O6        1.0  0.4583713710308075  0.8957121968269348  0.1563757061958313  1.0000
  O   O7        1.0  0.7999646663665771  0.11434198170900345  0.31557673215866083  1.0000
  O   O8        1.0  0.6525478363037109  0.07335004210472107  0.5509341955184937  1.0000
  O   O9        1.0  0.5170379877090454  0.4283526539802551  0.6879221200942993  1.0000
  O   O10       1.0  0.20961333811283112  0.287509948015213  0.7717493176460266  1.0000
  O   O11       1.0  0.972510039806366  0.8007349967956543  0.7649120688438414  1.0000
  Se  Se1       1.0  0.7723893523216248  0.2745318114757538  0.2924531996250152  1.0000
