data_image0
_chemical_formula_structural       Cl4Co2CsGaGe2LiO3P2Se
_chemical_formula_sum              "Cl4 Co2 Cs1 Ga1 Ge2 Li1 O3 P2 Se1"
_cell_length_a       7.893683226630634
_cell_length_b       8.133447806734681
_cell_length_c       8.409303665161133
_cell_angle_alpha    71.57414235448506
_cell_angle_beta     67.19946979126448
_cell_angle_gamma    65.38976470191584

_space_group_name_H-M_alt    "P 1"
_space_group_IT_number       1

loop_
  _space_group_symop_operation_xyz
  'x, y, z'

loop_
  _atom_site_type_symbol
  _atom_site_label
  _atom_site_symmetry_multiplicity
  _atom_site_fract_x
  _atom_site_fract_y
  _atom_site_fract_z
  _atom_site_occupancy
  Cl  Cl1       1.0  0.6702048778533936  0.7295054197311401  0.21095840632915497  1.0000
  Cl  Cl2       1.0  0.1468527764081955  0.7016568779945374  0.39035892486572266  1.0000
  Cl  Cl3       1.0  0.5112908482551575  0.48314550518989563  0.0508166141808033  1.0000
  Cl  Cl4       1.0  0.7644546031951904  0.04053765907883644  0.3816897571086883  1.0000
  Co  Co1       1.0  0.9357346892356874  0.06431078910827637  0.23563776910305023  1.0000
  Co  Co2       1.0  0.8130788803100586  0.4900512397289276  0.37351259589195246  1.0000
  Cs  Cs1       1.0  0.2407546639442444  0.06524644047021866  0.374117910861969  1.0000
  Ga  Ga1       1.0  0.7972896099090576  0.4178257882595062  0.06848085671663279  1.0000
  Ge  Ge1       1.0  0.20501279830932617  0.0959600880742073  0.24307046830654144  1.0000
  Ge  Ge2       1.0  0.6556251049041748  0.9712885022163391  0.9705278873443604  1.0000
  Li  Li1       1.0  0.9663826823234559  0.30099815130233765  0.4156314134597778  1.0000
  O   O1        1.0  0.7133318781852722  0.9565562605857849  0.19302301108837128  1.0000
  O   O2        1.0  0.46955731511116033  0.43326520919799805  0.2103276401758194  1.0000
  O   O3        1.0  0.9339072108268739  0.41279327869415283  0.376574695110321  1.0000
  P   P1        1.0  0.8210532069206238  0.33039262890815735  0.6259723901748657  1.0000
  P   P2        1.0  0.040388867259025574  0.14122480154037476  0.8566868901252747  1.0000
  Se  Se1       1.0  0.27988386154174805  0.5943074822425842  0.4684906005859375  1.0000
