data_image0
_chemical_formula_structural       Cl3CoGaGe3NO6PTl
_chemical_formula_sum              "Cl3 Co1 Ga1 Ge3 N1 O6 P1 Tl1"
_cell_length_a       7.713232883653728
_cell_length_b       7.367187067636819
_cell_length_c       7.680233955383301
_cell_angle_alpha    60.731917138225796
_cell_angle_beta     63.09475595693316
_cell_angle_gamma    62.514121042075445

_space_group_name_H-M_alt    "P 1"
_space_group_IT_number       1

loop_
  _space_group_symop_operation_xyz
  'x, y, z'

loop_
  _atom_site_type_symbol
  _atom_site_label
  _atom_site_symmetry_multiplicity
  _atom_site_fract_x
  _atom_site_fract_y
  _atom_site_fract_z
  _atom_site_occupancy
  Cl  Cl1       1.0  0.413539856672287  0.6853222846984863  0.7338298559188843  1.0000
  Cl  Cl2       1.0  0.39997801184654236  0.5706717371940613  0.1370655745267868  1.0000
  Cl  Cl3       1.0  0.42518818378448486  0.6248679161071777  0.23370245099067688  1.0000
  Co  Co1       1.0  0.04432215169072155  0.7638017535209655  0.32105788588523865  1.0000
  Ga  Ga1       1.0  0.0158929489552975  0.9532685875892638  0.26648083329200745  1.0000
  Ge  Ge1       1.0  0.18815384805202484  0.37625095248222346  0.31780216097831726  1.0000
  Ge  Ge2       1.0  0.7067206501960754  0.2793780267238617  0.31205976009368896  1.0000
  Ge  Ge3       1.0  0.9642269611358643  0.6627514362335205  0.037854716181755184  1.0000
  N   N1        1.0  0.16882309317588806  0.007491544354707002  0.15812158584594727  1.0000
  O   O1        1.0  0.9463370442390442  0.16791565716266632  0.03566130995750427  1.0000
  O   O2        1.0  0.8947713375091553  0.0807621106505394  0.3672659397125244  1.0000
  O   O3        1.0  0.20615561306476596  0.9363977909088134  0.33262038230895996  1.0000
  O   O4        1.0  0.05367682874202728  0.627839982509613  0.9720119237899781  1.0000
  O   O5        1.0  0.28737983107566833  0.5903782248497009  0.6929937601089478  1.0000
  O   O6        1.0  0.698070764541626  0.44187831878662104  0.1785793900489807  1.0000
  P   P1        1.0  0.6892942190170288  0.2569272816181183  0.833383321762085  1.0000
  Tl  Tl1       1.0  0.3825209140777588  0.3235556185245514  0.9804260134696962  1.0000
