data_image0
_chemical_formula_structural       AsDyMn7
_chemical_formula_sum              "As1 Dy1 Mn7"
_cell_length_a       5.042708783973598
_cell_length_b       4.4944786537855235
_cell_length_c       7.779588222503662
_cell_angle_alpha    90.33338811149265
_cell_angle_beta     88.95859475835029
_cell_angle_gamma    131.21942698895947

_space_group_name_H-M_alt    "P 1"
_space_group_IT_number       1

loop_
  _space_group_symop_operation_xyz
  'x, y, z'

loop_
  _atom_site_type_symbol
  _atom_site_label
  _atom_site_symmetry_multiplicity
  _atom_site_fract_x
  _atom_site_fract_y
  _atom_site_fract_z
  _atom_site_occupancy
  As  As1       1.0  0.8326196670532227  0.8769152164459229  0.8907613158226014  1.0000
  Dy  Dy1       1.0  0.3192569613456726  0.20338203012943268  0.41778495907783514  1.0000
  Mn  Mn1       1.0  0.16190148890018463  0.9027916193008423  0.317473590373993  1.0000
  Mn  Mn2       1.0  0.469930499792099  0.19200514256954193  0.3558064699172974  1.0000
  Mn  Mn3       1.0  0.900568962097168  0.46999213099479675  0.9955997467041017  1.0000
  Mn  Mn4       1.0  0.290321409702301  0.0030449749901890755  0.025930302217602733  1.0000
  Mn  Mn5       1.0  0.7952182292938232  0.6152521371841431  0.22268182039260867  1.0000
  Mn  Mn6       1.0  0.788006603717804  0.0892094150185585  0.20306991040706637  1.0000
  Mn  Mn7       1.0  0.2796180844306946  0.04362228512763977  0.5339602828025818  1.0000
