data_image0
_chemical_formula_structural       Mn5W4
_chemical_formula_sum              "Mn5 W4"
_cell_length_a       4.5367262404209905
_cell_length_b       4.786230945577167
_cell_length_c       4.9290080070495605
_cell_angle_alpha    108.96321356543771
_cell_angle_beta     79.80277906928896
_cell_angle_gamma    95.32199226989441

_space_group_name_H-M_alt    "P 1"
_space_group_IT_number       1

loop_
  _space_group_symop_operation_xyz
  'x, y, z'

loop_
  _atom_site_type_symbol
  _atom_site_label
  _atom_site_symmetry_multiplicity
  _atom_site_fract_x
  _atom_site_fract_y
  _atom_site_fract_z
  _atom_site_occupancy
  Mn  Mn1       1.0  0.9514163732528687  0.3570373058319092  0.42212623357772827  1.0000
  Mn  Mn2       1.0  0.47029322385787964  0.39626196026802063  0.13160638511180878  1.0000
  Mn  Mn3       1.0  0.9537420868873596  0.5863066911697388  0.9206494688987732  1.0000
  Mn  Mn4       1.0  0.9656065106391907  0.21313872933387756  0.9657655358314514  1.0000
  Mn  Mn5       1.0  0.4680022895336151  0.38775235414505005  0.8650038242340088  1.0000
  W   W1        1.0  0.4666711390018463  0.0730903223156929  0.11476957052946091  1.0000
  W   W2        1.0  0.45152348279953003  0.2272060215473175  0.150054469704628  1.0000
  W   W3        1.0  0.9578118324279785  0.042383186519145966  0.41197723150253296  1.0000
  W   W4        1.0  0.9519225358963013  0.6950269341468811  0.1586325317621231  1.0000
