data_image0
_chemical_formula_structural       ITi5Zr3
_chemical_formula_sum              "I1 Ti5 Zr3"
_cell_length_a       5.165528768647304
_cell_length_b       5.956093021401321
_cell_length_c       7.411199569702148
_cell_angle_alpha    114.97841894763141
_cell_angle_beta     90.64291861500497
_cell_angle_gamma    89.64922604215414

_space_group_name_H-M_alt    "P 1"
_space_group_IT_number       1

loop_
  _space_group_symop_operation_xyz
  'x, y, z'

loop_
  _atom_site_type_symbol
  _atom_site_label
  _atom_site_symmetry_multiplicity
  _atom_site_fract_x
  _atom_site_fract_y
  _atom_site_fract_z
  _atom_site_occupancy
  I   I1        1.0  0.13650090992450714  0.471301794052124  0.3908417522907257  1.0000
  Ti  Ti1       1.0  0.6350373029708862  0.3728351593017578  0.912807285785675  1.0000
  Ti  Ti2       1.0  0.6354392170906067  0.005676915869116783  0.48933070898056025  1.0000
  Ti  Ti3       1.0  0.6408029198646545  0.4799788296222687  0.6605184078216553  1.0000
  Ti  Ti4       1.0  0.6359220147132874  0.5426280498504639  0.5106046795845032  1.0000
  Ti  Ti5       1.0  0.6350018978118896  0.7301716208457947  0.1630537360906601  1.0000
  Zr  Zr1       1.0  0.14000743627548218  0.4901181161403656  0.7087540030479431  1.0000
  Zr  Zr2       1.0  0.6260673999786377  0.39757588505744934  0.17154933512210846  1.0000
  Zr  Zr3       1.0  0.1366785764694214  0.24311313033103943  0.9664631485939025  1.0000
