data_image0
_chemical_formula_structural       Al2ITi3Zr3
_chemical_formula_sum              "Al2 I1 Ti3 Zr3"
_cell_length_a       5.050406015465291
_cell_length_b       4.776471625237531
_cell_length_c       6.136081695556641
_cell_angle_alpha    89.54422030945763
_cell_angle_beta     89.48848735427977
_cell_angle_gamma    92.53883710480449

_space_group_name_H-M_alt    "P 1"
_space_group_IT_number       1

loop_
  _space_group_symop_operation_xyz
  'x, y, z'

loop_
  _atom_site_type_symbol
  _atom_site_label
  _atom_site_symmetry_multiplicity
  _atom_site_fract_x
  _atom_site_fract_y
  _atom_site_fract_z
  _atom_site_occupancy
  Al  Al1       1.0  0.47524893283843994  0.37038055062294006  0.21740908920764923  1.0000
  Al  Al2       1.0  0.4820743203163147  0.9940427541732788  0.6733368039131165  1.0000
  I   I1        1.0  0.9799544215202332  0.4676770269870758  0.14294390380382538  1.0000
  Ti  Ti1       1.0  0.8398814797401428  0.5404163002967834  0.5792125463485718  1.0000
  Ti  Ti2       1.0  0.4791506230831146  0.5424833297729492  0.5776415467262268  1.0000
  Ti  Ti3       1.0  0.7718619704246521  0.80694979429245  0.8839410543441772  1.0000
  Zr  Zr1       1.0  0.47876235842704773  0.13638412952423096  0.6987985968589783  1.0000
  Zr  Zr2       1.0  0.9932265281677246  0.30587974190711975  0.5391570925712585  1.0000
  Zr  Zr3       1.0  0.47710850834846497  0.40637657046318054  0.825627326965332  1.0000
