data_image0
_chemical_formula_structural       AsIPbReTi2Zr3
_chemical_formula_sum              "As1 I1 Pb1 Re1 Ti2 Zr3"
_cell_length_a       4.961063735867228
_cell_length_b       4.731967825473891
_cell_length_c       9.565313339233398
_cell_angle_alpha    93.90086577055264
_cell_angle_beta     89.42400212982994
_cell_angle_gamma    88.67921263205639

_space_group_name_H-M_alt    "P 1"
_space_group_IT_number       1

loop_
  _space_group_symop_operation_xyz
  'x, y, z'

loop_
  _atom_site_type_symbol
  _atom_site_label
  _atom_site_symmetry_multiplicity
  _atom_site_fract_x
  _atom_site_fract_y
  _atom_site_fract_z
  _atom_site_occupancy
  As  As1       1.0  0.5546287298202515  0.08416397869586945  0.8456063270568848  1.0000
  I   I1        1.0  0.5531913042068481  0.9844016432762146  0.41997799277305603  1.0000
  Pb  Pb1       1.0  0.5565758347511292  0.2759363651275635  0.42039504647254944  1.0000
  Re  Re1       1.0  0.05428070202469826  0.006364502012729645  0.22966696321964264  1.0000
  Ti  Ti1       1.0  0.054012034088373184  0.48927056789398193  0.8186256289482117  1.0000
  Ti  Ti2       1.0  0.05998789519071579  0.8453415632247925  0.9392285346984863  1.0000
  Zr  Zr1       1.0  0.0540393590927124  0.504483163356781  0.13718034327030182  1.0000
  Zr  Zr2       1.0  0.058083344250917435  0.17415457963943481  0.9860450029373169  1.0000
  Zr  Zr3       1.0  0.5495166182518005  0.6287041306495667  0.5930640697479248  1.0000
