data_image0
_chemical_formula_structural       LiPbTi4Zr3
_chemical_formula_sum              "Li1 Pb1 Ti4 Zr3"
_cell_length_a       5.336603755283819
_cell_length_b       5.558127599182143
_cell_length_c       6.4179534912109375
_cell_angle_alpha    74.68778016709318
_cell_angle_beta     72.2511121514575
_cell_angle_gamma    71.61494216501504

_space_group_name_H-M_alt    "P 1"
_space_group_IT_number       1

loop_
  _space_group_symop_operation_xyz
  'x, y, z'

loop_
  _atom_site_type_symbol
  _atom_site_label
  _atom_site_symmetry_multiplicity
  _atom_site_fract_x
  _atom_site_fract_y
  _atom_site_fract_z
  _atom_site_occupancy
  Li  Li1       1.0  0.6880115866661072  0.2107708752155304  0.04964379593729973  1.0000
  Pb  Pb1       1.0  0.1816837638616562  0.03426378592848778  0.04492972418665886  1.0000
  Ti  Ti1       1.0  0.6892057657241821  0.12526622414588928  0.7425167560577393  1.0000
  Ti  Ti2       1.0  0.6730215549468994  0.30202654004096985  0.9431169033050537  1.0000
  Ti  Ti3       1.0  0.16447563469409943  0.9007172584533691  0.7949784398078918  1.0000
  Ti  Ti4       1.0  0.1665860116481781  0.579168975353241  0.5130771398544312  1.0000
  Zr  Zr1       1.0  0.18703524768352509  0.6111154556274414  0.08315478265285492  1.0000
  Zr  Zr2       1.0  0.6830356121063232  0.45935651659965515  0.631229043006897  1.0000
  Zr  Zr3       1.0  0.6821199059486389  0.4594055712223053  0.29513904452323914  1.0000
