data_image0
_chemical_formula_structural       NiVZr7
_chemical_formula_sum              "Ni1 V1 Zr7"
_cell_length_a       4.825235622678773
_cell_length_b       4.782848412662466
_cell_length_c       6.062187671661377
_cell_angle_alpha    98.13127439955935
_cell_angle_beta     90.07866102368466
_cell_angle_gamma    87.4008131276086

_space_group_name_H-M_alt    "P 1"
_space_group_IT_number       1

loop_
  _space_group_symop_operation_xyz
  'x, y, z'

loop_
  _atom_site_type_symbol
  _atom_site_label
  _atom_site_symmetry_multiplicity
  _atom_site_fract_x
  _atom_site_fract_y
  _atom_site_fract_z
  _atom_site_occupancy
  Ni  Ni1       1.0  0.023204276338219643  0.6406288146972656  0.012614810839295389  1.0000
  V   V1        1.0  0.028293078765273094  0.8122267723083496  0.9771643280982972  1.0000
  Zr  Zr1       1.0  0.02756679244339466  0.7692194581031799  0.465160459280014  1.0000
  Zr  Zr2       1.0  0.027450500056147575  0.32560500502586365  0.6508257389068604  1.0000
  Zr  Zr3       1.0  0.5283626317977905  0.38621222972869873  0.9051039218902589  1.0000
  Zr  Zr4       1.0  0.2943895757198334  0.7675114274024963  0.453290343284607  1.0000
  Zr  Zr5       1.0  0.5165563225746155  0.11719322949647903  0.31699109077453613  1.0000
  Zr  Zr6       1.0  0.5295402407646179  0.809810996055603  0.2105580121278763  1.0000
  Zr  Zr7       1.0  0.5285636782646179  0.3372996747493744  0.536119818687439  1.0000
