data_image0
_chemical_formula_structural       Lu10PSSe3
_chemical_formula_sum              "Lu10 P1 S1 Se3"
_cell_length_a       4.931561885239063
_cell_length_b       7.3754521014193415
_cell_length_c       9.704047203063965
_cell_angle_alpha    117.63097134732568
_cell_angle_beta     87.28923737267608
_cell_angle_gamma    110.03615471402708

_space_group_name_H-M_alt    "P 1"
_space_group_IT_number       1

loop_
  _space_group_symop_operation_xyz
  'x, y, z'

loop_
  _atom_site_type_symbol
  _atom_site_label
  _atom_site_symmetry_multiplicity
  _atom_site_fract_x
  _atom_site_fract_y
  _atom_site_fract_z
  _atom_site_occupancy
  Lu  Lu1       1.0  0.30454009771347046  0.6882118582725525  0.6445265412330627  1.0000
  Lu  Lu2       1.0  0.360213041305542  0.20898036658763885  0.7616362571716309  1.0000
  Lu  Lu3       1.0  0.43321850895881653  0.43694254755973816  0.12470835447311403  1.0000
  Lu  Lu4       1.0  0.6666004061698914  0.8779858350753784  0.11060655117034913  1.0000
  Lu  Lu5       1.0  0.012775779701769352  0.9757528305053711  0.8814286589622499  1.0000
  Lu  Lu6       1.0  0.4645896553993225  0.4221166670322418  0.8630971312522889  1.0000
  Lu  Lu7       1.0  0.7159340977668762  0.5003665685653687  0.4099555015563965  1.0000
  Lu  Lu8       1.0  0.38683322072029114  0.4255548119544983  0.10816027224063875  1.0000
  Lu  Lu9       1.0  0.9597620368003845  0.7919671535491943  0.18934594094753265  1.0000
  Lu  Lu10      1.0  0.7275497913360596  0.1349516212940216  0.3288481831550598  1.0000
  P   P1        1.0  0.689231276512146  0.8850393891334534  0.8741675019264222  1.0000
  S   S1        1.0  0.2028225213289261  0.9768677353858948  0.21937020123004916  1.0000
  Se  Se1       1.0  0.713866651058197  0.29900869727134705  0.42142102122306824  1.0000
  Se  Se2       1.0  0.24785973131656647  0.914390504360199  0.2600318789482116  1.0000
  Se  Se3       1.0  0.9824079275131226  0.38931870460510254  0.14150646328926086  1.0000
