data_image0
_chemical_formula_structural       Lu13Se2
_chemical_formula_sum              "Lu13 Se2"
_cell_length_a       4.318709456673784
_cell_length_b       8.498612216451358
_cell_length_c       10.16181468963623
_cell_angle_alpha    98.95676674629948
_cell_angle_beta     89.81704390418074
_cell_angle_gamma    88.80476806174097

_space_group_name_H-M_alt    "P 1"
_space_group_IT_number       1

loop_
  _space_group_symop_operation_xyz
  'x, y, z'

loop_
  _atom_site_type_symbol
  _atom_site_label
  _atom_site_symmetry_multiplicity
  _atom_site_fract_x
  _atom_site_fract_y
  _atom_site_fract_z
  _atom_site_occupancy
  Lu  Lu1       1.0  0.9948531389236449  0.277800589799881  0.51228928565979  1.0000
  Lu  Lu2       1.0  0.5026199221611023  0.6098132729530334  0.26916131377220154  1.0000
  Lu  Lu3       1.0  0.514996349811554  0.0843014046549797  0.28536882996559143  1.0000
  Lu  Lu4       1.0  0.4926909506320953  0.06859777122735977  0.38624411821365356  1.0000
  Lu  Lu5       1.0  0.006242543458938599  0.3792513310909271  0.4427502751350403  1.0000
  Lu  Lu6       1.0  0.5212013721466064  0.07930035144090652  0.8131138682365417  1.0000
  Lu  Lu7       1.0  0.013553236611187458  0.6784671545028687  0.19552838802337644  1.0000
  Lu  Lu8       1.0  0.012323025614023209  0.2706475555896759  0.7807091474533081  1.0000
  Lu  Lu9       1.0  0.5134682059288025  0.7503560781478882  0.862391471862793  1.0000
  Lu  Lu10      1.0  0.7746804356575012  0.9536572098731995  0.7366772294044495  1.0000
  Lu  Lu11      1.0  0.5168319344520569  0.6023592352867126  0.6491158604621887  1.0000
  Lu  Lu12      1.0  0.501498281955719  0.17335145175457  0.18697115778923035  1.0000
  Lu  Lu13      1.0  0.01312621496617794  0.7291378974914551  0.9794922471046448  1.0000
  Se  Se1       1.0  0.017740145325660706  0.8947403430938721  0.6850122213363647  1.0000
  Se  Se2       1.0  0.02611805684864521  0.3029707372188568  0.6763082146644592  1.0000
