data_image0
_chemical_formula_structural       Lu14S
_chemical_formula_sum              "Lu14 S1"
_cell_length_a       4.314316558980834
_cell_length_b       9.229615221570969
_cell_length_c       10.306488037109375
_cell_angle_alpha    113.94938669528825
_cell_angle_beta     92.20488276247676
_cell_angle_gamma    88.95208845036622

_space_group_name_H-M_alt    "P 1"
_space_group_IT_number       1

loop_
  _space_group_symop_operation_xyz
  'x, y, z'

loop_
  _atom_site_type_symbol
  _atom_site_label
  _atom_site_symmetry_multiplicity
  _atom_site_fract_x
  _atom_site_fract_y
  _atom_site_fract_z
  _atom_site_occupancy
  Lu  Lu1       1.0  0.06974917650222778  0.04445990175008774  0.1345757693052292  1.0000
  Lu  Lu2       1.0  0.04354344308376312  0.04049476236104965  0.5329343676567078  1.0000
  Lu  Lu3       1.0  0.5608958005905151  0.22349338233470917  0.5290594100952148  1.0000
  Lu  Lu4       1.0  0.5627055168151855  0.03594542667269707  0.4177089333534241  1.0000
  Lu  Lu5       1.0  0.05899462103843689  0.022954324260354042  0.13725323975086212  1.0000
  Lu  Lu6       1.0  0.04134167358279228  0.6778155565261841  0.5280122756958008  1.0000
  Lu  Lu7       1.0  0.5529395341873169  0.024483801797032356  0.769995391368866  1.0000
  Lu  Lu8       1.0  0.5496816635131836  0.5610236525535583  0.23366609215736395  1.0000
  Lu  Lu9       1.0  0.5607901215553284  0.8135611414909363  0.03331258147954941  1.0000
  Lu  Lu10      1.0  0.0581144280731678  0.39717352390289307  0.29775699973106384  1.0000
  Lu  Lu11      1.0  0.5578190684318542  0.4769881069660187  0.3269452750682831  1.0000
  Lu  Lu12      1.0  0.5562849640846252  0.7582549452781677  0.06029334291815758  1.0000
  Lu  Lu13      1.0  0.05040808767080307  0.6789860725402832  0.017586372792720795  1.0000
  Lu  Lu14      1.0  0.032246727496385574  0.7128447890281677  0.7587758302688599  1.0000
  S   S1        1.0  0.5564859509468079  0.7143266797065735  0.3805270493030548  1.0000
