data_image0
_chemical_formula_structural       Lu13Se2
_chemical_formula_sum              "Lu13 Se2"
_cell_length_a       4.131210929811619
_cell_length_b       8.695535473534221
_cell_length_c       11.549540519714355
_cell_angle_alpha    89.83208407952655
_cell_angle_beta     91.12035504683591
_cell_angle_gamma    87.37591056456462

_space_group_name_H-M_alt    "P 1"
_space_group_IT_number       1

loop_
  _space_group_symop_operation_xyz
  'x, y, z'

loop_
  _atom_site_type_symbol
  _atom_site_label
  _atom_site_symmetry_multiplicity
  _atom_site_fract_x
  _atom_site_fract_y
  _atom_site_fract_z
  _atom_site_occupancy
  Lu  Lu1       1.0  0.18927529454231262  0.24318189918994904  0.6149865388870239  1.0000
  Lu  Lu2       1.0  0.7167554497718811  0.06264481693506241  0.044515740126371384  1.0000
  Lu  Lu3       1.0  0.6925426721572876  0.9108249545097351  0.3438303768634796  1.0000
  Lu  Lu4       1.0  0.6914768218994141  0.7459592223167419  0.6784617304801941  1.0000
  Lu  Lu5       1.0  0.6828813552856445  0.035692378878593445  0.700888991355896  1.0000
  Lu  Lu6       1.0  0.6955891847610474  0.4035354554653168  0.8274247646331787  1.0000
  Lu  Lu7       1.0  0.19891463220119476  0.19512982666492462  0.34993529319763184  1.0000
  Lu  Lu8       1.0  0.19275332987308502  0.8094630837440491  0.6827179193496704  1.0000
  Lu  Lu9       1.0  0.1944674402475357  0.07871037721633911  0.47945550084114075  1.0000
  Lu  Lu10      1.0  0.18887989223003387  0.6020182967185974  0.4037195146083832  1.0000
  Lu  Lu11      1.0  0.19154149293899536  0.8991531729698181  0.35506102442741394  1.0000
  Lu  Lu12      1.0  0.68801349401474  0.42917880415916443  0.8910791873931885  1.0000
  Lu  Lu13      1.0  0.1537066102027893  0.26916027069091797  0.11796849220991135  1.0000
  Se  Se1       1.0  0.6869617104530334  0.5968339443206787  0.639194130897522  1.0000
  Se  Se2       1.0  0.20149025321006775  0.27910685539245605  0.35179784893989563  1.0000
