data_image0
_chemical_formula_structural       CuLu7Pb2Se5
_chemical_formula_sum              "Cu1 Lu7 Pb2 Se5"
_cell_length_a       5.682439213463188
_cell_length_b       9.363976153280623
_cell_length_c       9.719680786132812
_cell_angle_alpha    120.64707010551649
_cell_angle_beta     90.92105733567891
_cell_angle_gamma    86.91176690558429

_space_group_name_H-M_alt    "P 1"
_space_group_IT_number       1

loop_
  _space_group_symop_operation_xyz
  'x, y, z'

loop_
  _atom_site_type_symbol
  _atom_site_label
  _atom_site_symmetry_multiplicity
  _atom_site_fract_x
  _atom_site_fract_y
  _atom_site_fract_z
  _atom_site_occupancy
  Cu  Cu1       1.0  0.6432123780250549  0.2922615110874176  0.45533597469329834  1.0000
  Lu  Lu1       1.0  0.6528841257095337  0.46886658668518066  0.9498525857925415  1.0000
  Lu  Lu2       1.0  0.645829975605011  0.24826163053512573  0.994299590587616  1.0000
  Lu  Lu3       1.0  0.6598928570747375  0.23288966715335846  0.9423283338546753  1.0000
  Lu  Lu4       1.0  0.652393639087677  0.26969799399375916  0.49889621138572693  1.0000
  Lu  Lu5       1.0  0.6506438851356506  0.42329153418540955  0.6663591265678406  1.0000
  Lu  Lu6       1.0  0.6620939373970032  0.7312728762626648  0.7989564538002014  1.0000
  Lu  Lu7       1.0  0.15322965383529663  0.8066743016242981  0.001655297935940371  1.0000
  Pb  Pb1       1.0  0.1566074639558792  0.8987739682197571  0.5672246813774109  1.0000
  Pb  Pb2       1.0  0.1378885954618454  0.7159633636474609  0.20494881272315982  1.0000
  Se  Se1       1.0  0.20607101917266846  0.9468798637390137  0.7206889390945435  1.0000
  Se  Se2       1.0  0.1415468454360962  0.8027993440628052  0.2969506680965424  1.0000
  Se  Se3       1.0  0.643006443977356  0.7733508944511414  0.08698891848325734  1.0000
  Se  Se4       1.0  0.16349168121814728  0.5840184092521667  0.4817971885204315  1.0000
  Se  Se5       1.0  0.15445782244205475  0.059383317828178406  0.11453687399625778  1.0000
