data_image0
_chemical_formula_structural       Cu2Lu7Pb2Se4
_chemical_formula_sum              "Cu2 Lu7 Pb2 Se4"
_cell_length_a       5.438650604910511
_cell_length_b       8.770739997864416
_cell_length_c       9.46573543548584
_cell_angle_alpha    120.93719005181042
_cell_angle_beta     89.5992487018871
_cell_angle_gamma    89.83460217526795

_space_group_name_H-M_alt    "P 1"
_space_group_IT_number       1

loop_
  _space_group_symop_operation_xyz
  'x, y, z'

loop_
  _atom_site_type_symbol
  _atom_site_label
  _atom_site_symmetry_multiplicity
  _atom_site_fract_x
  _atom_site_fract_y
  _atom_site_fract_z
  _atom_site_occupancy
  Cu  Cu1       1.0  0.7174848318099976  0.16099728643894193  0.006676046643406141  1.0000
  Cu  Cu2       1.0  0.47605085372924805  0.4044590294361114  0.4801465570926666  1.0000
  Lu  Lu1       1.0  0.731220543384552  0.25135233998298645  0.7434757351875305  1.0000
  Lu  Lu2       1.0  0.20348957180976868  0.742354929447174  0.37226092815399164  1.0000
  Lu  Lu3       1.0  0.703376829624176  0.7867478728294371  0.03526087850332255  1.0000
  Lu  Lu4       1.0  0.714057445526123  0.8887574672698973  0.7620933651924132  1.0000
  Lu  Lu5       1.0  0.19415567815303802  0.7341391444206237  0.8629606366157532  1.0000
  Lu  Lu6       1.0  0.7160025835037231  0.9838861227035521  0.10384296625852585  1.0000
  Lu  Lu7       1.0  0.23524445295333862  0.3761326372623443  0.5180689096450805  1.0000
  Pb  Pb1       1.0  0.7317929863929749  0.18765453994274137  0.3672204315662384  1.0000
  Pb  Pb2       1.0  0.7223939895629883  0.8554325103759765  0.492841601371765  1.0000
  Se  Se1       1.0  0.21563148498535156  0.4114729464054107  0.8937929272651672  1.0000
  Se  Se2       1.0  0.21002502739429474  0.7468068599700927  0.6922509670257567  1.0000
  Se  Se3       1.0  0.7053809762001038  0.2685059607028961  0.690967321395874  1.0000
  Se  Se4       1.0  0.22700050473213196  0.3298910558223724  0.0022025359794497256  1.0000
