data_image0
_chemical_formula_structural       Hf2K2MoV
_chemical_formula_sum              "Hf2 K2 Mo1 V1"
_cell_length_a       5.252445981266429
_cell_length_b       5.127925656804388
_cell_length_c       8.241650581359863
_cell_angle_alpha    89.86839263135077
_cell_angle_beta     89.44832713323773
_cell_angle_gamma    109.81453191219781

_space_group_name_H-M_alt    "P 1"
_space_group_IT_number       1

loop_
  _space_group_symop_operation_xyz
  'x, y, z'

loop_
  _atom_site_type_symbol
  _atom_site_label
  _atom_site_symmetry_multiplicity
  _atom_site_fract_x
  _atom_site_fract_y
  _atom_site_fract_z
  _atom_site_occupancy
  Hf  Hf1       1.0  0.7116015553474426  0.18199357390403748  0.8176996111869812  1.0000
  Hf  Hf2       1.0  0.34825652837753296  0.6830164790153503  0.9468541741371155  1.0000
  K   K1        1.0  0.2615490257740021  0.6793341040611267  0.08963742107152939  1.0000
  K   K2        1.0  0.7485448718070984  0.675807774066925  0.7789676785469055  1.0000
  Mo  Mo1       1.0  0.2013150453567505  0.18144537508487701  0.27647241950035095  1.0000
  V   V1        1.0  0.20275256037712097  0.18468287587165833  0.5997564792633057  1.0000
