data_image0
_chemical_formula_structural       HHf3K2
_chemical_formula_sum              "H1 Hf3 K2"
_cell_length_a       4.530142292345527
_cell_length_b       6.724207484556503
_cell_length_c       6.749099254608154
_cell_angle_alpha    121.55835317171305
_cell_angle_beta     95.65879875892401
_cell_angle_gamma    90.03244650743332

_space_group_name_H-M_alt    "P 1"
_space_group_IT_number       1

loop_
  _space_group_symop_operation_xyz
  'x, y, z'

loop_
  _atom_site_type_symbol
  _atom_site_label
  _atom_site_symmetry_multiplicity
  _atom_site_fract_x
  _atom_site_fract_y
  _atom_site_fract_z
  _atom_site_occupancy
  H   H1        1.0  0.9695693850517273  0.8888082504272461  0.8289443850517272  1.0000
  Hf  Hf1       1.0  0.7191784977912903  0.6854183673858643  0.39598712325096125  1.0000
  Hf  Hf2       1.0  0.0038618724793195724  0.13585293292999268  0.22786535322666165  1.0000
  Hf  Hf3       1.0  0.23265789449214935  0.9271466732025146  0.10380016267299651  1.0000
  K   K1        1.0  0.5104995965957642  0.4424038529396057  0.3177162706851959  1.0000
  K   K2        1.0  0.4677215814590454  0.3894100487232208  0.627504289150238  1.0000
