data_image0
_chemical_formula_structural       HfK2Mo2S
_chemical_formula_sum              "Hf1 K2 Mo2 S1"
_cell_length_a       5.853847286517824
_cell_length_b       7.046134931105817
_cell_length_c       7.478119373321533
_cell_angle_alpha    120.72425122122591
_cell_angle_beta     90.21264011929554
_cell_angle_gamma    90.25669642370181

_space_group_name_H-M_alt    "P 1"
_space_group_IT_number       1

loop_
  _space_group_symop_operation_xyz
  'x, y, z'

loop_
  _atom_site_type_symbol
  _atom_site_label
  _atom_site_symmetry_multiplicity
  _atom_site_fract_x
  _atom_site_fract_y
  _atom_site_fract_z
  _atom_site_occupancy
  Hf  Hf1       1.0  0.7718787789344788  0.497937262058258  0.8563277721405029  1.0000
  K   K1        1.0  0.3007713258266449  0.8994531035423278  0.248276948928833  1.0000
  K   K2        1.0  0.7922706604003906  0.17711231112480164  0.7557207942008972  1.0000
  Mo  Mo1       1.0  0.27751287817955017  0.2246512323617935  0.5746982097625732  1.0000
  Mo  Mo2       1.0  0.778670072555542  0.7282280921936035  0.3919110298156739  1.0000
  S   S1        1.0  0.28664225339889526  0.5125336050987244  0.8235658407211304  1.0000
