data_image0
_chemical_formula_structural       CaHf2K2Pt
_chemical_formula_sum              "Ca1 Hf2 K2 Pt1"
_cell_length_a       4.893460316159062
_cell_length_b       5.953758125350103
_cell_length_c       7.774315357208252
_cell_angle_alpha    93.69897366854416
_cell_angle_beta     90.29723133817075
_cell_angle_gamma    111.36710204364346

_space_group_name_H-M_alt    "P 1"
_space_group_IT_number       1

loop_
  _space_group_symop_operation_xyz
  'x, y, z'

loop_
  _atom_site_type_symbol
  _atom_site_label
  _atom_site_symmetry_multiplicity
  _atom_site_fract_x
  _atom_site_fract_y
  _atom_site_fract_z
  _atom_site_occupancy
  Ca  Ca1       1.0  0.7072632908821106  0.3273545801639557  0.6203333735466005  1.0000
  Hf  Hf1       1.0  0.4714254736900329  0.777072548866272  0.040063753724098206  1.0000
  Hf  Hf2       1.0  0.9334821105003356  0.6396048665046692  0.7866262793540955  1.0000
  K   K1        1.0  0.17957086861133575  0.8150230646133423  0.5477861166000366  1.0000
  K   K2        1.0  0.181685209274292  0.30768635869026184  0.2867127060890198  1.0000
  Pt  Pt1       1.0  0.5707755088806152  0.059919144958257675  0.0468732975423336  1.0000
