data_image0
_chemical_formula_structural       F6GaHZn8
_chemical_formula_sum              "F6 Ga1 H1 Zn8"
_cell_length_a       5.607836137584572
_cell_length_b       5.687534771801126
_cell_length_c       9.987086296081543
_cell_angle_alpha    98.07467300100551
_cell_angle_beta     95.14772011578721
_cell_angle_gamma    113.39449929905389

_space_group_name_H-M_alt    "P 1"
_space_group_IT_number       1

loop_
  _space_group_symop_operation_xyz
  'x, y, z'

loop_
  _atom_site_type_symbol
  _atom_site_label
  _atom_site_symmetry_multiplicity
  _atom_site_fract_x
  _atom_site_fract_y
  _atom_site_fract_z
  _atom_site_occupancy
  F   F1        1.0  0.2458552122116089  0.3184056878089905  0.5155981779098511  1.0000
  F   F2        1.0  0.09869857877492905  0.517167329788208  0.6253647804260255  1.0000
  F   F3        1.0  0.9431077241897583  0.5533033013343811  0.10435244441032412  1.0000
  F   F4        1.0  0.24914106726646423  0.7137476205825806  0.6080588102340698  1.0000
  F   F5        1.0  0.7227903008460999  0.6823615431785583  0.7298239469528198  1.0000
  F   F6        1.0  0.22799351811408997  0.19061638414859772  0.4809589087963104  1.0000
  Ga  Ga1       1.0  0.237373486161232  0.8022089004516602  0.5001213550567627  1.0000
  H   H1        1.0  0.007975011132657528  0.1579495370388031  0.28584492206573486  1.0000
  Zn  Zn1       1.0  0.24044805765151978  0.3048522174358368  0.05893785133957863  1.0000
  Zn  Zn2       1.0  0.24183213710784912  0.8143311142921448  0.13505956530570984  1.0000
  Zn  Zn3       1.0  0.24767553806304932  0.9846788644790649  0.9598912596702576  1.0000
  Zn  Zn4       1.0  0.740115225315094  0.5171483159065247  0.03552804514765741  1.0000
  Zn  Zn5       1.0  0.7420187592506409  0.5228660106658936  0.28140658140182495  1.0000
  Zn  Zn6       1.0  0.504721462726593  0.13003233075141907  0.05395183339715004  1.0000
  Zn  Zn7       1.0  0.005709017161279917  0.16216565668582916  0.3984157145023346  1.0000
  Zn  Zn8       1.0  0.7418214082717896  0.9204316735267639  0.6097896695137024  1.0000
