data_image0
_chemical_formula_structural       F6Zn9Zr
_chemical_formula_sum              "F6 Zn9 Zr1"
_cell_length_a       6.059978537016755
_cell_length_b       5.698165341099978
_cell_length_c       9.926750183105469
_cell_angle_alpha    90.55096932565988
_cell_angle_beta     89.73875169322064
_cell_angle_gamma    117.34863582832358

_space_group_name_H-M_alt    "P 1"
_space_group_IT_number       1

loop_
  _space_group_symop_operation_xyz
  'x, y, z'

loop_
  _atom_site_type_symbol
  _atom_site_label
  _atom_site_symmetry_multiplicity
  _atom_site_fract_x
  _atom_site_fract_y
  _atom_site_fract_z
  _atom_site_occupancy
  F   F1        1.0  0.8953582644462585  0.37451106309890747  0.9294762015342711  1.0000
  F   F2        1.0  0.02322867140173912  0.9196651577949524  0.14205045998096466  1.0000
  F   F3        1.0  0.7951914668083191  0.2659175992012024  0.07252335548400879  1.0000
  F   F4        1.0  0.502447247505188  0.9592593312263489  0.48811045289039606  1.0000
  F   F5        1.0  0.16105173528194427  0.15848031640052795  0.12142106145620345  1.0000
  F   F6        1.0  0.9784220457077026  0.4512198567390442  0.5760934948921204  1.0000
  Zn  Zn1       1.0  0.4758511483669281  0.9932655692100525  0.3733656704425812  1.0000
  Zn  Zn2       1.0  0.4691180884838104  0.3092169761657715  0.2717381715774536  1.0000
  Zn  Zn3       1.0  0.6731061339378357  0.431913286447525  0.2632299065589905  1.0000
  Zn  Zn4       1.0  0.46853598952293396  0.4899809658527374  0.9722744226455687  1.0000
  Zn  Zn5       1.0  0.46615713834762573  0.8604415655136108  0.34834393858909607  1.0000
  Zn  Zn6       1.0  0.9694809317588806  0.9079708456993103  0.6368055939674377  1.0000
  Zn  Zn7       1.0  0.9748379588127136  0.8792144060134888  0.3921714425086975  1.0000
  Zn  Zn8       1.0  0.9766482710838318  0.7264823317527771  0.8132123947143555  1.0000
  Zn  Zn9       1.0  0.4707925319671631  0.463459849357605  0.12226482480764388  1.0000
  Zr  Zr1       1.0  0.4666205644607544  0.6277486681938171  0.6340832710266113  1.0000
