data_image0
_chemical_formula_structural       F4Ga2H3OZn6
_chemical_formula_sum              "F4 Ga2 H3 O1 Zn6"
_cell_length_a       5.527695346574361
_cell_length_b       5.619392263276136
_cell_length_c       7.8163743019104
_cell_angle_alpha    90.37718210673147
_cell_angle_beta     90.36432182490863
_cell_angle_gamma    111.43160633756558

_space_group_name_H-M_alt    "P 1"
_space_group_IT_number       1

loop_
  _space_group_symop_operation_xyz
  'x, y, z'

loop_
  _atom_site_type_symbol
  _atom_site_label
  _atom_site_symmetry_multiplicity
  _atom_site_fract_x
  _atom_site_fract_y
  _atom_site_fract_z
  _atom_site_occupancy
  F   F1        1.0  0.6156883835792542  0.7251412868499756  0.5567672848701477  1.0000
  F   F2        1.0  0.7440907955169678  0.9624422192573547  0.9453727602958679  1.0000
  F   F3        1.0  0.2584329843521118  0.626164972782135  0.7316234111785889  1.0000
  F   F4        1.0  0.24462765455245972  0.2984505891799927  0.9310546517372131  1.0000
  Ga  Ga1       1.0  0.7463896870613098  0.5031625628471375  0.7651524543762207  1.0000
  Ga  Ga2       1.0  0.24591752886772156  0.36982864141464233  0.27747049927711487  1.0000
  H   H1        1.0  0.23489639163017273  0.3828764855861664  0.7498536109924316  1.0000
  H   H2        1.0  0.5048424005508423  0.6468307375907898  0.9128289818763733  1.0000
  H   H3        1.0  0.2517927885055542  0.5503173470497131  0.8390066623687744  1.0000
  O   O1        1.0  0.4932388365268707  0.09905241429805756  0.9349372386932373  1.0000
  Zn  Zn1       1.0  0.7505471110343933  0.3051019608974457  0.14530925452709198  1.0000
  Zn  Zn2       1.0  0.24343079328536987  0.40267351269721985  0.6450069546699524  1.0000
  Zn  Zn3       1.0  0.24153229594230652  0.8758848309516907  0.23846465349197388  1.0000
  Zn  Zn4       1.0  0.24540987610816956  0.4771510064601898  0.20091135799884796  1.0000
  Zn  Zn5       1.0  0.7556095123291016  0.8356305956840515  0.16065214574337006  1.0000
  Zn  Zn6       1.0  0.748490035533905  0.07120946794748306  0.45343339443206787  1.0000
