data_image0
_chemical_formula_structural       F5H2O3Zn6
_chemical_formula_sum              "F5 H2 O3 Zn6"
_cell_length_a       5.336723607794354
_cell_length_b       5.387172624477014
_cell_length_c       7.521916389465332
_cell_angle_alpha    100.49084546581744
_cell_angle_beta     97.66934497643507
_cell_angle_gamma    109.88232206169324

_space_group_name_H-M_alt    "P 1"
_space_group_IT_number       1

loop_
  _space_group_symop_operation_xyz
  'x, y, z'

loop_
  _atom_site_type_symbol
  _atom_site_label
  _atom_site_symmetry_multiplicity
  _atom_site_fract_x
  _atom_site_fract_y
  _atom_site_fract_z
  _atom_site_occupancy
  F   F1        1.0  0.6077519655227661  0.7630279064178467  0.7965347170829773  1.0000
  F   F2        1.0  0.6198495030403137  0.7136101722717285  0.3757284879684448  1.0000
  F   F3        1.0  0.12453956156969069  0.7213123440742493  0.7739741802215576  1.0000
  F   F4        1.0  0.11906110495328902  0.6730906367301941  0.923657238483429  1.0000
  F   F5        1.0  0.6074822545051575  0.3215719759464264  0.44875723123550415  1.0000
  H   H1        1.0  0.6148362755775452  0.7449355125427246  0.5098096132278442  1.0000
  H   H2        1.0  0.9702128171920775  0.5231812000274658  0.22945570945739746  1.0000
  O   O1        1.0  0.08057590574026108  0.517245888710022  0.6387544274330139  1.0000
  O   O2        1.0  0.6124536395072937  0.04770520329475403  0.8450007438659668  1.0000
  O   O3        1.0  0.421588271856308  0.9187678098678589  0.11358235031366345  1.0000
  Zn  Zn1       1.0  0.11970480531454085  0.576851487159729  0.7533581852912903  1.0000
  Zn  Zn2       1.0  0.6208191514015198  0.16644756495952606  0.03453443199396132  1.0000
  Zn  Zn3       1.0  0.11579132080078124  0.3667731285095215  0.5185683965682983  1.0000
  Zn  Zn4       1.0  0.4522885084152221  0.003932506777346134  0.3219648599624634  1.0000
  Zn  Zn5       1.0  0.11607229709625243  0.6249445080757141  0.4299486577510834  1.0000
  Zn  Zn6       1.0  0.6213981509208679  0.7453856468200684  0.04552268609404561  1.0000
