data_image0
_chemical_formula_structural       F4H4InZn6Zr
_chemical_formula_sum              "F4 H4 In1 Zn6 Zr1"
_cell_length_a       5.693545576752032
_cell_length_b       5.706944853252703
_cell_length_c       8.955143928527832
_cell_angle_alpha    74.44218610456916
_cell_angle_beta     76.02702873134469
_cell_angle_gamma    69.96900357659622

_space_group_name_H-M_alt    "P 1"
_space_group_IT_number       1

loop_
  _space_group_symop_operation_xyz
  'x, y, z'

loop_
  _atom_site_type_symbol
  _atom_site_label
  _atom_site_symmetry_multiplicity
  _atom_site_fract_x
  _atom_site_fract_y
  _atom_site_fract_z
  _atom_site_occupancy
  F   F1        1.0  0.018407871946692467  0.18793122470378876  0.23430024087429047  1.0000
  F   F2        1.0  0.7561395764350891  0.29942378401756287  0.12941785156726834  1.0000
  F   F3        1.0  0.0266030952334404  0.03772265091538429  0.812666118144989  1.0000
  F   F4        1.0  0.5344669222831726  0.08272290229797363  0.1927863359451294  1.0000
  H   H1        1.0  0.4699089527130127  0.22835735976696014  0.9496039748191833  1.0000
  H   H2        1.0  0.4891889691352844  0.2658447325229645  0.24935473501682281  1.0000
  H   H3        1.0  0.030524883419275284  0.11707576364278793  0.47218772768974304  1.0000
  H   H4        1.0  0.0015087815700098872  0.06048822030425072  0.44012835621833796  1.0000
  In  In1       1.0  0.752854585647583  0.11775965243577957  0.827594518661499  1.0000
  Zn  Zn1       1.0  0.003512925934046507  0.9596100449562073  0.4022885262966156  1.0000
  Zn  Zn2       1.0  0.48161813616752625  0.21462108194828033  0.7359917759895325  1.0000
  Zn  Zn3       1.0  0.4920525848865509  0.530967116355896  0.33833929896354675  1.0000
  Zn  Zn4       1.0  0.5026819109916687  0.5977535843849182  0.283430814743042  1.0000
  Zn  Zn5       1.0  0.007515504490584135  0.48923859000205994  0.470324844121933  1.0000
  Zn  Zn6       1.0  0.9873685836791992  0.16552457213401794  0.3442368805408478  1.0000
  Zr  Zr1       1.0  0.10659279674291611  0.7648442983627319  0.6506161689758301  1.0000
