data_image0
_chemical_formula_structural       F5H3O2Zn6
_chemical_formula_sum              "F5 H3 O2 Zn6"
_cell_length_a       4.712501943884738
_cell_length_b       6.101760894506651
_cell_length_c       7.624835014343262
_cell_angle_alpha    70.81577512068064
_cell_angle_beta     73.02631168824222
_cell_angle_gamma    65.72800704261296

_space_group_name_H-M_alt    "P 1"
_space_group_IT_number       1

loop_
  _space_group_symop_operation_xyz
  'x, y, z'

loop_
  _atom_site_type_symbol
  _atom_site_label
  _atom_site_symmetry_multiplicity
  _atom_site_fract_x
  _atom_site_fract_y
  _atom_site_fract_z
  _atom_site_occupancy
  F   F1        1.0  0.31183186173439026  0.6678887605667114  0.7634550333023072  1.0000
  F   F2        1.0  0.8220299482345581  0.7980430722236633  0.4561561346054078  1.0000
  F   F3        1.0  0.8028832674026489  0.37634778022766113  0.17111520469188696  1.0000
  F   F4        1.0  0.819752037525177  0.6287601590156555  0.1302339732646942  1.0000
  F   F5        1.0  0.3027641177177429  0.9364060759544373  0.6857460737228395  1.0000
  H   H1        1.0  0.33740508556365967  0.4593048095703125  0.7669551968574525  1.0000
  H   H2        1.0  0.8169023990631104  0.3509370684623718  0.8336670994758607  1.0000
  H   H3        1.0  0.8050376176834106  0.21367906033992767  0.553338885307312  1.0000
  O   O1        1.0  0.8093627691268921  0.31613805890083313  0.48042130470275884  1.0000
  O   O2        1.0  0.8036394119262695  0.9382995367050171  0.932667374610901  1.0000
  Zn  Zn1       1.0  0.8103022575378418  0.18334826827049255  0.9291294813156129  1.0000
  Zn  Zn2       1.0  0.30565690994262695  0.39977550506591797  0.20704789459705356  1.0000
  Zn  Zn3       1.0  0.810362696647644  0.8746538758277893  0.9671432971954347  1.0000
  Zn  Zn4       1.0  0.31184422969818115  0.0409613698720932  0.9699142575263978  1.0000
  Zn  Zn5       1.0  0.3110857307910919  0.7618768215179443  0.35132199525833135  1.0000
  Zn  Zn6       1.0  0.8135924935340881  0.1298578679561615  0.005899848416447669  1.0000
