data_image0
_chemical_formula_structural       Cd2Ge3HPd2Zn
_chemical_formula_sum              "Cd2 Ge3 H1 Pd2 Zn1"
_cell_length_a       4.934043912349247
_cell_length_b       6.27292041125634
_cell_length_c       5.983293533325195
_cell_angle_alpha    51.74297049170677
_cell_angle_beta     64.80948624487222
_cell_angle_gamma    82.4694320853378

_space_group_name_H-M_alt    "P 1"
_space_group_IT_number       1

loop_
  _space_group_symop_operation_xyz
  'x, y, z'

loop_
  _atom_site_type_symbol
  _atom_site_label
  _atom_site_symmetry_multiplicity
  _atom_site_fract_x
  _atom_site_fract_y
  _atom_site_fract_z
  _atom_site_occupancy
  Cd  Cd1       1.0  0.8849759101867676  0.35864511132240295  0.548554539680481  1.0000
  Cd  Cd2       1.0  0.10720722377300262  0.6780776381492615  0.4081757962703705  1.0000
  Ge  Ge1       1.0  0.6218199133872986  0.10385216027498245  0.7127416729927063  1.0000
  Ge  Ge2       1.0  0.7969802618026733  0.47324296832084656  0.8325884342193604  1.0000
  Ge  Ge3       1.0  0.3662305772304535  0.5627548098564148  0.648537278175354  1.0000
  H   H1        1.0  0.19257397949695587  0.7022483348846436  0.7664190530776978  1.0000
  Pd  Pd1       1.0  0.3814757168292999  0.1757696270942688  0.4853428602218628  1.0000
  Pd  Pd2       1.0  0.3602258861064911  0.09790355712175369  0.0038274640683084726  1.0000
  Zn  Zn1       1.0  0.8637309074401855  0.56947922706604  0.03380646929144859  1.0000
