data_image0
_chemical_formula_structural       Cd2Ge3Pd4
_chemical_formula_sum              "Cd2 Ge3 Pd4"
_cell_length_a       5.125597547548953
_cell_length_b       5.375786314651058
_cell_length_c       5.5173139572143555
_cell_angle_alpha    90.30462250292103
_cell_angle_beta     90.71294088776324
_cell_angle_gamma    97.6144139447928

_space_group_name_H-M_alt    "P 1"
_space_group_IT_number       1

loop_
  _space_group_symop_operation_xyz
  'x, y, z'

loop_
  _atom_site_type_symbol
  _atom_site_label
  _atom_site_symmetry_multiplicity
  _atom_site_fract_x
  _atom_site_fract_y
  _atom_site_fract_z
  _atom_site_occupancy
  Cd  Cd1       1.0  0.5064949989318848  0.47390916943550104  0.3712194859981537  1.0000
  Cd  Cd2       1.0  0.4282912313938141  0.46991980075836176  0.4790141880512237  1.0000
  Ge  Ge1       1.0  0.5239738821983337  0.667417049407959  0.7566832304000854  1.0000
  Ge  Ge2       1.0  0.5142024755477905  0.06728710979223251  0.6444467306137085  1.0000
  Ge  Ge3       1.0  0.17181098461151123  0.1066509038209915  0.5671021342277527  1.0000
  Pd  Pd1       1.0  0.9324131608009338  0.5347523093223572  0.6049835085868835  1.0000
  Pd  Pd2       1.0  0.5224239230155945  0.3765317499637604  0.8452017903327941  1.0000
  Pd  Pd3       1.0  0.027650780975818634  0.3001822829246521  0.6961522102355957  1.0000
  Pd  Pd4       1.0  0.010046948678791523  0.6085768342018127  0.47125050425529474  1.0000
