data_image0
_chemical_formula_structural       Cd2Ge3Pd3Si
_chemical_formula_sum              "Cd2 Ge3 Pd3 Si1"
_cell_length_a       4.909293980970522
_cell_length_b       5.779314839858231
_cell_length_c       5.889383316040039
_cell_angle_alpha    89.57494428461321
_cell_angle_beta     91.40984370863482
_cell_angle_gamma    112.85897155105728

_space_group_name_H-M_alt    "P 1"
_space_group_IT_number       1

loop_
  _space_group_symop_operation_xyz
  'x, y, z'

loop_
  _atom_site_type_symbol
  _atom_site_label
  _atom_site_symmetry_multiplicity
  _atom_site_fract_x
  _atom_site_fract_y
  _atom_site_fract_z
  _atom_site_occupancy
  Cd  Cd1       1.0  0.1847294420003891  0.27280527353286743  0.3679986894130706  1.0000
  Cd  Cd2       1.0  0.43854933977127075  0.02449248544871807  0.14695702493190765  1.0000
  Ge  Ge1       1.0  0.8436554074287415  0.411135733127594  0.3579859733581543  1.0000
  Ge  Ge2       1.0  0.05632852390408516  0.47267910838127136  0.17999526858329773  1.0000
  Ge  Ge3       1.0  0.11238296329975128  0.980969250202179  0.8765145540237427  1.0000
  Pd  Pd1       1.0  0.6672833561897278  0.04636625200510025  0.23621581494808197  1.0000
  Pd  Pd2       1.0  0.6724771857261658  0.00031256675720214844  0.2822849154472351  1.0000
  Pd  Pd3       1.0  0.6599848866462708  0.7736813426017761  0.24847348034381866  1.0000
  Si  Si1       1.0  0.09711694717407227  0.7863746285438538  0.6327071189880371  1.0000
