data_image0
_chemical_formula_structural       Cd2DyGe4Pd2
_chemical_formula_sum              "Cd2 Dy1 Ge4 Pd2"
_cell_length_a       4.937813748140387
_cell_length_b       5.834033654258241
_cell_length_c       6.789150238037109
_cell_angle_alpha    87.7625188075816
_cell_angle_beta     89.77481491382271
_cell_angle_gamma    99.36662258107458

_space_group_name_H-M_alt    "P 1"
_space_group_IT_number       1

loop_
  _space_group_symop_operation_xyz
  'x, y, z'

loop_
  _atom_site_type_symbol
  _atom_site_label
  _atom_site_symmetry_multiplicity
  _atom_site_fract_x
  _atom_site_fract_y
  _atom_site_fract_z
  _atom_site_occupancy
  Cd  Cd1       1.0  0.9068753719329834  0.07325075566768646  0.1948557794094086  1.0000
  Cd  Cd2       1.0  0.9215093851089478  0.48862677812576294  0.6430009603500366  1.0000
  Dy  Dy1       1.0  0.4150882959365845  0.09378427267074585  0.71991765499115  1.0000
  Ge  Ge1       1.0  0.8788493871688843  0.13545776903629303  0.4025083780288697  1.0000
  Ge  Ge2       1.0  0.4221579432487488  0.5993709564208984  0.412699043750763  1.0000
  Ge  Ge3       1.0  0.3684971332550049  0.945277750492096  0.7596846818923951  1.0000
  Ge  Ge4       1.0  0.8629476428031921  0.004594807978719473  0.8690266609191896  1.0000
  Pd  Pd1       1.0  0.2743598520755768  0.38763564825057983  0.9592397809028627  1.0000
  Pd  Pd2       1.0  0.36168617010116577  0.21239805221557617  0.5418556928634644  1.0000
