data_image0
_chemical_formula_structural       AlF3Li6SiSr3
_chemical_formula_sum              "Al1 F3 Li6 Si1 Sr3"
_cell_length_a       6.838233936308487
_cell_length_b       8.07415420965863
_cell_length_c       9.190631866455078
_cell_angle_alpha    109.27603270137638
_cell_angle_beta     109.16536732539802
_cell_angle_gamma    90.42235382285031

_space_group_name_H-M_alt    "P 1"
_space_group_IT_number       1

loop_
  _space_group_symop_operation_xyz
  'x, y, z'

loop_
  _atom_site_type_symbol
  _atom_site_label
  _atom_site_symmetry_multiplicity
  _atom_site_fract_x
  _atom_site_fract_y
  _atom_site_fract_z
  _atom_site_occupancy
  Al  Al1       1.0  0.5681324601173401  0.5255845785140991  0.09679141640663147  1.0000
  F   F1        1.0  0.12924359738826752  0.78379225730896  0.6817745566368103  1.0000
  F   F2        1.0  0.4965885281562805  0.07234547287225723  0.3891485929489136  1.0000
  F   F3        1.0  0.6580093502998352  0.8346244096755981  0.6364798545837402  1.0000
  Li  Li1       1.0  0.7867602705955505  0.9556583166122437  0.3758741021156311  1.0000
  Li  Li2       1.0  0.567558228969574  0.05130106583237648  0.1334577202796936  1.0000
  Li  Li3       1.0  0.7084524631500244  0.2832734286785126  0.3107398450374603  1.0000
  Li  Li4       1.0  0.06996721029281616  0.514013946056366  0.10703647881746292  1.0000
  Li  Li5       1.0  0.7151967287063599  0.2799549102783203  0.14532901346683502  1.0000
  Li  Li6       1.0  0.01037895493209362  0.8005714416503906  0.9632602334022522  1.0000
  Si  Si1       1.0  0.7045447826385498  0.1335727721452713  0.9671658873558044  1.0000
  Sr  Sr1       1.0  0.4543827772140503  0.5779691934585571  0.8886741995811462  1.0000
  Sr  Sr2       1.0  0.9193845987319946  0.8010163903236389  0.7817569971084595  1.0000
  Sr  Sr3       1.0  0.4205563962459564  0.5992467999458313  0.2743009328842163  1.0000
