data_image0
_chemical_formula_structural       Al3F2Li6Sr3
_chemical_formula_sum              "Al3 F2 Li6 Sr3"
_cell_length_a       6.863912457996388
_cell_length_b       7.224944320362957
_cell_length_c       7.562280654907227
_cell_angle_alpha    112.52441986390261
_cell_angle_beta     112.59572536456035
_cell_angle_gamma    102.80532110048199

_space_group_name_H-M_alt    "P 1"
_space_group_IT_number       1

loop_
  _space_group_symop_operation_xyz
  'x, y, z'

loop_
  _atom_site_type_symbol
  _atom_site_label
  _atom_site_symmetry_multiplicity
  _atom_site_fract_x
  _atom_site_fract_y
  _atom_site_fract_z
  _atom_site_occupancy
  Al  Al1       1.0  0.349729984998703  0.031747426837682724  0.9175163507461548  1.0000
  Al  Al2       1.0  0.6256834268569946  0.5214917063713074  0.9216268658638  1.0000
  Al  Al3       1.0  0.3960983157157898  0.5291199684143066  0.15790392458438873  1.0000
  F   F1        1.0  0.5553916096687317  0.3035147786140442  0.46306297183036804  1.0000
  F   F2        1.0  0.5663799047470093  0.027509093284606934  0.21930095553398132  1.0000
  Li  Li1       1.0  0.3505474925041199  0.03431641682982445  0.775080680847168  1.0000
  Li  Li2       1.0  0.19450485706329346  0.811819851398468  0.4967476427555084  1.0000
  Li  Li3       1.0  0.8341889977455139  0.3061867952346802  0.9808709025382996  1.0000
  Li  Li4       1.0  0.17599572241306305  0.806771993637085  0.1613994985818863  1.0000
  Li  Li5       1.0  0.4911326169967652  0.5390698909759521  0.11745889484882355  1.0000
  Li  Li6       1.0  0.30200231075286865  0.5636129975318909  0.712390124797821  1.0000
  Sr  Sr1       1.0  0.5283476710319519  0.5594514608383179  0.3386978805065155  1.0000
  Sr  Sr2       1.0  0.8117932081222534  0.3095882833003998  0.8577670454978943  1.0000
  Sr  Sr3       1.0  0.14909452199935913  0.032847847789525986  0.13079828023910522  1.0000
