data_image0
_chemical_formula_structural       Al2F3Li6Sr3
_chemical_formula_sum              "Al2 F3 Li6 Sr3"
_cell_length_a       6.904443908745209
_cell_length_b       6.79528853185802
_cell_length_c       7.604882717132568
_cell_angle_alpha    67.16039726282587
_cell_angle_beta     63.592060829616585
_cell_angle_gamma    61.821428001390046

_space_group_name_H-M_alt    "P 1"
_space_group_IT_number       1

loop_
  _space_group_symop_operation_xyz
  'x, y, z'

loop_
  _atom_site_type_symbol
  _atom_site_label
  _atom_site_symmetry_multiplicity
  _atom_site_fract_x
  _atom_site_fract_y
  _atom_site_fract_z
  _atom_site_occupancy
  Al  Al1       1.0  0.47311940789222723  0.7704728245735168  0.32214131951332087  1.0000
  Al  Al2       1.0  0.7915509939193726  0.3940924406051636  0.6426061987876892  1.0000
  F   F1        1.0  0.4257762134075165  0.574853241443634  0.2512068748474121  1.0000
  F   F2        1.0  0.41018161177635193  0.09007711708545685  0.7306669354438782  1.0000
  F   F3        1.0  0.7520970106124878  0.22782281041145325  0.04249791800975794  1.0000
  Li  Li1       1.0  0.27176690101623535  0.549842894077301  0.3389318883419037  1.0000
  Li  Li2       1.0  0.40828412771224976  0.5568285584449768  0.9773772358894348  1.0000
  Li  Li3       1.0  0.25727200508117676  0.5137864947319031  0.6404942870140076  1.0000
  Li  Li4       1.0  0.888153612613678  0.786259651184082  0.6315920352935791  1.0000
  Li  Li5       1.0  0.9339767694473268  0.07282713055610657  0.8166756629943848  1.0000
  Li  Li6       1.0  0.7953166365623474  0.05260015279054642  0.03586420416831965  1.0000
  Sr  Sr1       1.0  0.6630420088768005  0.37592342495918274  0.1590433120727539  1.0000
  Sr  Sr2       1.0  0.005040764808654785  0.13005505502223969  0.5665058493614197  1.0000
  Sr  Sr3       1.0  0.2948682904243469  0.8898576498031616  0.9095739126205444  1.0000
