data_image0
_chemical_formula_structural       Al4F3Li3Sr4
_chemical_formula_sum              "Al4 F3 Li3 Sr4"
_cell_length_a       6.993046552744913
_cell_length_b       7.273955687847716
_cell_length_c       6.9322710037231445
_cell_angle_alpha    66.78883380046611
_cell_angle_beta     63.89859820293851
_cell_angle_gamma    62.749673020312024

_space_group_name_H-M_alt    "P 1"
_space_group_IT_number       1

loop_
  _space_group_symop_operation_xyz
  'x, y, z'

loop_
  _atom_site_type_symbol
  _atom_site_label
  _atom_site_symmetry_multiplicity
  _atom_site_fract_x
  _atom_site_fract_y
  _atom_site_fract_z
  _atom_site_occupancy
  Al  Al1       1.0  0.2989453375339508  0.0747431144118309  0.6049689650535583  1.0000
  Al  Al2       1.0  0.21056485176086426  0.730061411857605  0.7328090071678162  1.0000
  Al  Al3       1.0  0.3926336169242859  0.36349233984947205  0.29490208625793457  1.0000
  Al  Al4       1.0  0.12679454684257507  0.6400213241577148  0.17707453668117523  1.0000
  F   F1        1.0  0.9975410103797913  0.12468297779560089  0.9217281937599182  1.0000
  F   F2        1.0  0.9820624589920044  0.7045643925666809  0.28086647391319275  1.0000
  F   F3        1.0  0.2901824116706848  0.6177293658256531  0.6010744571685791  1.0000
  Li  Li1       1.0  0.7221530079841614  0.3715711832046509  0.9411755204200745  1.0000
  Li  Li2       1.0  0.1883639395236969  0.7428121566772461  0.9463012218475342  1.0000
  Li  Li3       1.0  0.7355782985687256  0.36518606543540955  0.2694266140460968  1.0000
  Sr  Sr1       1.0  0.6659337878227234  0.8545579314231873  0.9388798475265503  1.0000
  Sr  Sr2       1.0  0.1910221427679062  0.9918391704559326  0.29141348600387573  1.0000
  Sr  Sr3       1.0  0.08213721960783005  0.44684872031211853  0.4347822964191437  1.0000
  Sr  Sr4       1.0  0.8000234961509705  0.24416808784008026  0.48219460248947144  1.0000
