data_image0
_chemical_formula_structural       F3Li9Sr2
_chemical_formula_sum              "F3 Li9 Sr2"
_cell_length_a       9.091957758491857
_cell_length_b       9.404308003387483
_cell_length_c       8.69013500213623
_cell_angle_alpha    65.56947816303524
_cell_angle_beta     63.49477428146688
_cell_angle_gamma    63.1347007225119

_space_group_name_H-M_alt    "P 1"
_space_group_IT_number       1

loop_
  _space_group_symop_operation_xyz
  'x, y, z'

loop_
  _atom_site_type_symbol
  _atom_site_label
  _atom_site_symmetry_multiplicity
  _atom_site_fract_x
  _atom_site_fract_y
  _atom_site_fract_z
  _atom_site_occupancy
  F   F1        1.0  0.16644933819770813  0.6467307806015015  0.11552541702985764  1.0000
  F   F2        1.0  0.6947024464607239  0.48753052949905396  0.9156574010848999  1.0000
  F   F3        1.0  0.6216497421264648  0.23776492476463318  0.03402905911207199  1.0000
  Li  Li1       1.0  0.09984873235225677  0.19804689288139343  0.7157717347145081  1.0000
  Li  Li2       1.0  0.7074571251869202  0.7734903693199158  0.8577083945274353  1.0000
  Li  Li3       1.0  0.4315783977508545  0.2365759313106537  0.7310458421707153  1.0000
  Li  Li4       1.0  0.9648013114929199  0.8780254125595093  0.2600569725036621  1.0000
  Li  Li5       1.0  0.31481099128723145  0.5271490216255188  0.5410970449447632  1.0000
  Li  Li6       1.0  0.0921609029173851  0.15507416427135468  0.3490850627422333  1.0000
  Li  Li7       1.0  0.11086831241846085  0.517704427242279  0.821976363658905  1.0000
  Li  Li8       1.0  0.3147929608821869  0.04637303575873375  0.5706561207771301  1.0000
  Li  Li9       1.0  0.4325525164604187  0.6152150630950928  0.3264785408973694  1.0000
  Sr  Sr1       1.0  0.421809583902359  0.9196066856384277  0.719646155834198  1.0000
  Sr  Sr2       1.0  0.047446344047784805  0.1811372935771942  0.5461048483848572  1.0000
