data_image0
_chemical_formula_structural       Al2F3Li4ScSiSr3
_chemical_formula_sum              "Al2 F3 Li4 Sc1 Si1 Sr3"
_cell_length_a       7.299157355838932
_cell_length_b       7.5369515445312905
_cell_length_c       7.196465969085693
_cell_angle_alpha    65.35745628544534
_cell_angle_beta     59.62191369664269
_cell_angle_gamma    55.481986717311166

_space_group_name_H-M_alt    "P 1"
_space_group_IT_number       1

loop_
  _space_group_symop_operation_xyz
  'x, y, z'

loop_
  _atom_site_type_symbol
  _atom_site_label
  _atom_site_symmetry_multiplicity
  _atom_site_fract_x
  _atom_site_fract_y
  _atom_site_fract_z
  _atom_site_occupancy
  Al  Al1       1.0  0.6271141171455383  0.12728193402290344  0.02875379845499992  1.0000
  Al  Al2       1.0  0.4673202931880951  0.4681101143360138  0.6823341846466064  1.0000
  F   F1        1.0  0.22385112941265106  0.30923187732696533  0.1865660697221756  1.0000
  F   F2        1.0  0.6305992603302002  0.6200098991394043  0.04470860958099365  1.0000
  F   F3        1.0  0.6437958478927612  0.12024912238121033  0.4660270512104034  1.0000
  Li  Li1       1.0  0.37529221177101135  0.6390449404716492  0.389658123254776  1.0000
  Li  Li2       1.0  0.6936420202255249  0.44373852014541626  0.3072941303253173  1.0000
  Li  Li3       1.0  0.6491560339927673  0.12710332870483398  0.5094188451766968  1.0000
  Li  Li4       1.0  0.8126081824302673  0.5973232388496399  0.6644313931465149  1.0000
  Sc  Sc1       1.0  0.575613796710968  0.29681891202926636  0.1740269958972931  1.0000
  Si  Si1       1.0  0.10262886434793472  0.2976793646812439  0.4174469411373138  1.0000
  Sr  Sr1       1.0  0.16288307309150696  0.8526570200920105  0.7895368337631226  1.0000
  Sr  Sr2       1.0  0.0948936715722084  0.5583580136299133  0.4439367055892944  1.0000
  Sr  Sr3       1.0  0.13928455114364624  0.509891152381897  0.8045403361320496  1.0000
