data_image0
_chemical_formula_structural       AsB2Co2HfLiPrPtZr2
_chemical_formula_sum              "As1 B2 Co2 Hf1 Li1 Pr1 Pt1 Zr2"
_cell_length_a       5.381912676062518
_cell_length_b       5.363811243605837
_cell_length_c       6.814280033111572
_cell_angle_alpha    89.99680225434075
_cell_angle_beta     89.9767103778702
_cell_angle_gamma    120.06922326727215

_space_group_name_H-M_alt    "P 1"
_space_group_IT_number       1

loop_
  _space_group_symop_operation_xyz
  'x, y, z'

loop_
  _atom_site_type_symbol
  _atom_site_label
  _atom_site_symmetry_multiplicity
  _atom_site_fract_x
  _atom_site_fract_y
  _atom_site_fract_z
  _atom_site_occupancy
  As  As1       1.0  0.8560336828231812  0.19045285880565643  0.7030591368675232  1.0000
  B   B1        1.0  0.8484213352203369  0.1962878704071045  0.19671353697776794  1.0000
  B   B2        1.0  0.4242061376571655  0.5672217011451721  0.70687997341156  1.0000
  Co  Co1       1.0  0.17254933714866638  0.26098954677581787  0.9656729698181152  1.0000
  Co  Co2       1.0  0.17423571646213531  0.26256582140922546  0.43447908759117126  1.0000
  Hf  Hf1       1.0  0.4988080561161041  0.9311730265617371  0.9515740275382996  1.0000
  Li  Li1       1.0  0.18079836666584015  0.9483073353767395  0.2002224326133728  1.0000
  Pr  Pr1       1.0  0.8466703295707703  0.6015055179595947  0.4641392230987549  1.0000
  Pt  Pt1       1.0  0.49890512228012085  0.9285333156585693  0.4410589933395386  1.0000
  Zr  Zr1       1.0  0.8420496582984924  0.602321445941925  0.9492475390434264  1.0000
  Zr  Zr2       1.0  0.4566228985786438  0.5735524296760559  0.19808268547058105  1.0000
