data_image0
_chemical_formula_structural       B2Co2Hf3Pt4
_chemical_formula_sum              "B2 Co2 Hf3 Pt4"
_cell_length_a       4.0250363375313585
_cell_length_b       6.416905344392768
_cell_length_c       7.289697170257568
_cell_angle_alpha    115.41188509039382
_cell_angle_beta     106.07927774076295
_cell_angle_gamma    89.97994676534411

_space_group_name_H-M_alt    "P 1"
_space_group_IT_number       1

loop_
  _space_group_symop_operation_xyz
  'x, y, z'

loop_
  _atom_site_type_symbol
  _atom_site_label
  _atom_site_symmetry_multiplicity
  _atom_site_fract_x
  _atom_site_fract_y
  _atom_site_fract_z
  _atom_site_occupancy
  B   B1        1.0  0.5115085244178772  0.6051814556121826  0.8095769882202148  1.0000
  B   B2        1.0  0.008081166073679924  0.3537978231906891  0.8158181309700012  1.0000
  Co  Co1       1.0  0.5059604048728943  0.2645166516304016  0.8011845946311951  1.0000
  Co  Co2       1.0  0.9077095985412598  0.029658986255526543  0.6120145916938782  1.0000
  Hf  Hf1       1.0  0.8405399322509766  0.3948715925216675  0.4875553250312805  1.0000
  Hf  Hf2       1.0  0.1934724748134613  0.33901718258857727  0.1480790078639984  1.0000
  Hf  Hf3       1.0  0.714134693145752  0.6712773442268372  0.20039790868759155  1.0000
  Pt  Pt1       1.0  0.6354892253875732  0.024827858433127403  0.04904474318027498  1.0000
  Pt  Pt2       1.0  0.27596408128738403  0.03304518386721611  0.34428131580352783  1.0000
  Pt  Pt3       1.0  0.05310872569680214  0.7441850900650024  0.8923808336257935  1.0000
  Pt  Pt4       1.0  0.3842182159423828  0.7597070932388306  0.5583911538124084  1.0000
