data_image0
_chemical_formula_structural       B3Co2Hf3Pt3
_chemical_formula_sum              "B3 Co2 Hf3 Pt3"
_cell_length_a       4.808996709466524
_cell_length_b       5.56996588236414
_cell_length_c       6.259060382843018
_cell_angle_alpha    114.47641531697283
_cell_angle_beta     93.43434930061159
_cell_angle_gamma    93.43851400190462

_space_group_name_H-M_alt    "P 1"
_space_group_IT_number       1

loop_
  _space_group_symop_operation_xyz
  'x, y, z'

loop_
  _atom_site_type_symbol
  _atom_site_label
  _atom_site_symmetry_multiplicity
  _atom_site_fract_x
  _atom_site_fract_y
  _atom_site_fract_z
  _atom_site_occupancy
  B   B1        1.0  0.3770924210548401  0.7742257714271545  0.18057772517204285  1.0000
  B   B2        1.0  0.7670615911483765  0.043780840933322906  0.8896779417991638  1.0000
  B   B3        1.0  0.9021595120429993  0.4650260806083679  0.5655288696289062  1.0000
  Co  Co1       1.0  0.6716622114181519  0.6599782109260559  0.8973874449729919  1.0000
  Co  Co2       1.0  0.16686215996742249  0.5892271399497986  0.3599744737148285  1.0000
  Hf  Hf1       1.0  0.46440252661705017  0.2293453961610794  0.5627908110618591  1.0000
  Hf  Hf2       1.0  0.22741228342056274  0.8535428047180176  0.8098534345626831  1.0000
  Hf  Hf3       1.0  0.6076088547706604  0.36903560161590576  0.16072812676429749  1.0000
  Pt  Pt1       1.0  0.07324107736349106  0.3885541558265686  0.8926693201065063  1.0000
  Pt  Pt2       1.0  0.9814457297325134  0.04821980372071266  0.2617294490337372  1.0000
  Pt  Pt3       1.0  0.7003456354141235  0.7988206148147583  0.5149576663970947  1.0000
