data_image0
_chemical_formula_structural       B2CoHfNPr2PtTeWZr
_chemical_formula_sum              "B2 Co1 Hf1 N1 Pr2 Pt1 Te1 W1 Zr1"
_cell_length_a       6.208796586512314
_cell_length_b       6.206190025925965
_cell_length_c       6.212050914764404
_cell_angle_alpha    105.49736179368915
_cell_angle_beta     105.31847874243167
_cell_angle_gamma    105.00679430801482

_space_group_name_H-M_alt    "P 1"
_space_group_IT_number       1

loop_
  _space_group_symop_operation_xyz
  'x, y, z'

loop_
  _atom_site_type_symbol
  _atom_site_label
  _atom_site_symmetry_multiplicity
  _atom_site_fract_x
  _atom_site_fract_y
  _atom_site_fract_z
  _atom_site_occupancy
  B   B1        1.0  0.20340749621391296  0.6299183964729309  0.5735955238342285  1.0000
  B   B2        1.0  0.615056574344635  0.5136449337005615  0.18968386948108673  1.0000
  Co  Co1       1.0  0.4439634680747986  0.8183973431587219  0.43628373742103577  1.0000
  Hf  Hf1       1.0  0.9785210490226746  0.4501922130584717  0.055639930069446564  1.0000
  N   N1        1.0  0.44574177265167236  0.1517190933227539  0.5139724016189575  1.0000
  Pr  Pr1       1.0  0.3753688633441925  0.9793285727500916  0.9966059327125549  1.0000
  Pr  Pr2       1.0  0.9780662059783936  0.9486082792282104  0.43268486857414246  1.0000
  Pt  Pt1       1.0  0.3555394113063812  0.40489059686660767  0.36455512046813965  1.0000
  Te  Te1       1.0  0.8193318843841553  0.8870776295661926  0.8826123476028442  1.0000
  W   W1        1.0  0.4265613853931427  0.4608258306980133  0.8138131499290466  1.0000
  Zr  Zr1       1.0  0.8156686425209045  0.4349987208843231  0.542011559009552  1.0000
