data_image0
_chemical_formula_structural       Er3O2PSe4
_chemical_formula_sum              "Er3 O2 P1 Se4"
_cell_length_a       4.781023824768034
_cell_length_b       6.96268401695594
_cell_length_c       8.073981285095215
_cell_angle_alpha    90.3419386266175
_cell_angle_beta     94.755832509588
_cell_angle_gamma    89.84022604620819

_space_group_name_H-M_alt    "P 1"
_space_group_IT_number       1

loop_
  _space_group_symop_operation_xyz
  'x, y, z'

loop_
  _atom_site_type_symbol
  _atom_site_label
  _atom_site_symmetry_multiplicity
  _atom_site_fract_x
  _atom_site_fract_y
  _atom_site_fract_z
  _atom_site_occupancy
  Er  Er1       1.0  0.34341704845428467  0.41762274503707886  0.016054484993219372  1.0000
  Er  Er2       1.0  0.12600640952587128  0.9743904471397399  0.4606874883174896  1.0000
  Er  Er3       1.0  0.07685688883066177  0.7925228476524353  0.18767081201076508  1.0000
  O   O1        1.0  0.43424907326698303  0.21395441889762876  0.6602411270141602  1.0000
  O   O2        1.0  0.11038345843553543  0.8392577767372131  0.8004597425460815  1.0000
  P   P1        1.0  0.601675271987915  0.9596871137619017  0.6133309602737427  1.0000
  Se  Se1       1.0  0.8992705941200256  0.43509104847908014  0.4823879599571228  1.0000
  Se  Se2       1.0  0.8779478073120117  0.3819493055343628  0.9337385296821594  1.0000
  Se  Se3       1.0  0.40471524000167847  0.4722039401531219  0.7430741786956787  1.0000
  Se  Se4       1.0  0.5919478535652161  0.17822036147117615  0.5082475543022156  1.0000
