data_image0
_chemical_formula_structural       Er3O3Se3Si
_chemical_formula_sum              "Er3 O3 Se3 Si1"
_cell_length_a       4.287296375088969
_cell_length_b       7.137797202420439
_cell_length_c       8.957832336425781
_cell_angle_alpha    106.09123483660476
_cell_angle_beta     89.21532236583785
_cell_angle_gamma    89.58118240872057

_space_group_name_H-M_alt    "P 1"
_space_group_IT_number       1

loop_
  _space_group_symop_operation_xyz
  'x, y, z'

loop_
  _atom_site_type_symbol
  _atom_site_label
  _atom_site_symmetry_multiplicity
  _atom_site_fract_x
  _atom_site_fract_y
  _atom_site_fract_z
  _atom_site_occupancy
  Er  Er1       1.0  0.8149930834770203  0.8313857316970825  0.1474318504333496  1.0000
  Er  Er2       1.0  0.3290867507457733  0.028967097401618958  0.1856016367673874  1.0000
  Er  Er3       1.0  0.329347163438797  0.8863056302070618  0.700215220451355  1.0000
  O   O1        1.0  0.4093664288520813  0.6740886569023132  0.9454132318496704  1.0000
  O   O2        1.0  0.5070973634719849  0.19735722243785858  0.5501659512519836  1.0000
  O   O3        1.0  0.014850998297333717  0.16183693706989288  0.05804326385259628  1.0000
  Se  Se1       1.0  0.8313403725624084  0.3821081519126892  0.959453284740448  1.0000
  Se  Se2       1.0  0.7830859422683716  0.3911552429199219  0.4800163805484772  1.0000
  Se  Se3       1.0  0.2995442748069763  0.446176677942276  0.7059180736541748  1.0000
  Si  Si1       1.0  0.32484427094459534  0.2612473964691162  0.7133231163024902  1.0000
