data_image0
_chemical_formula_structural       Er3O2Se5
_chemical_formula_sum              "Er3 O2 Se5"
_cell_length_a       4.94119964084369
_cell_length_b       7.37316631048339
_cell_length_c       7.204482078552246
_cell_angle_alpha    124.01017146985936
_cell_angle_beta     91.83563927443879
_cell_angle_gamma    90.4847994743808

_space_group_name_H-M_alt    "P 1"
_space_group_IT_number       1

loop_
  _space_group_symop_operation_xyz
  'x, y, z'

loop_
  _atom_site_type_symbol
  _atom_site_label
  _atom_site_symmetry_multiplicity
  _atom_site_fract_x
  _atom_site_fract_y
  _atom_site_fract_z
  _atom_site_occupancy
  Er  Er1       1.0  0.9133252501487731  0.631539523601532  0.4105535745620728  1.0000
  Er  Er2       1.0  0.40113165974617004  0.9736039042472839  0.5925167798995972  1.0000
  Er  Er3       1.0  0.4209704101085663  0.47334766387939453  0.13062572479248047  1.0000
  O   O1        1.0  0.4011070728302002  0.0003964760107919574  0.1314060539007187  1.0000
  O   O2        1.0  0.9050248861312865  0.7320705652236938  0.06964195519685752  1.0000
  Se  Se1       1.0  0.9010568261146544  0.8623881340026855  0.742220938205719  1.0000
  Se  Se2       1.0  0.4096097946166992  0.9142813682556152  0.7747418880462648  1.0000
  Se  Se3       1.0  0.8989673852920531  0.24352772533893585  0.894887685775757  1.0000
  Se  Se4       1.0  0.41385477781295776  0.4822079539299011  0.3993398547172547  1.0000
  Se  Se5       1.0  0.9173438549041747  0.5928008556365967  0.02204039879143238  1.0000
