data_image0
_chemical_formula_structural       DyEr3O3Se3
_chemical_formula_sum              "Dy1 Er3 O3 Se3"
_cell_length_a       4.345131464725385
_cell_length_b       6.291889153410462
_cell_length_c       7.94420051574707
_cell_angle_alpha    106.24907054405654
_cell_angle_beta     104.70187744125101
_cell_angle_gamma    88.26678435839406

_space_group_name_H-M_alt    "P 1"
_space_group_IT_number       1

loop_
  _space_group_symop_operation_xyz
  'x, y, z'

loop_
  _atom_site_type_symbol
  _atom_site_label
  _atom_site_symmetry_multiplicity
  _atom_site_fract_x
  _atom_site_fract_y
  _atom_site_fract_z
  _atom_site_occupancy
  Dy  Dy1       1.0  0.46528977155685425  0.29529812932014465  0.4128909111022949  1.0000
  Er  Er1       1.0  0.3995409309864044  0.027049273252487183  0.6582568883895874  1.0000
  Er  Er2       1.0  0.46608221530914307  0.7656540870666504  0.38330844044685364  1.0000
  Er  Er3       1.0  0.019990114495158195  0.3256606459617615  0.7033465504646301  1.0000
  O   O1        1.0  0.05275645852088928  0.445812463760376  0.1880972683429718  1.0000
  O   O2        1.0  0.5242525339126587  0.7614601850509644  0.23432430624961853  1.0000
  O   O3        1.0  0.5308584570884705  0.4003218710422516  0.1590997874736786  1.0000
  Se  Se1       1.0  0.39026638865470886  0.01866583526134491  0.8995845913887024  1.0000
  Se  Se2       1.0  0.22255617380142212  0.0007770061492919922  0.3837950527667999  1.0000
  Se  Se3       1.0  0.9582095742225647  0.7737095952033997  0.05091835930943489  1.0000
