data_image0
_chemical_formula_structural       Er4O3Se3
_chemical_formula_sum              "Er4 O3 Se3"
_cell_length_a       4.755154237051115
_cell_length_b       6.614116060813591
_cell_length_c       8.240036964416504
_cell_angle_alpha    96.11907164598347
_cell_angle_beta     97.1480952619067
_cell_angle_gamma    90.39074683284146

_space_group_name_H-M_alt    "P 1"
_space_group_IT_number       1

loop_
  _space_group_symop_operation_xyz
  'x, y, z'

loop_
  _atom_site_type_symbol
  _atom_site_label
  _atom_site_symmetry_multiplicity
  _atom_site_fract_x
  _atom_site_fract_y
  _atom_site_fract_z
  _atom_site_occupancy
  Er  Er1       1.0  0.6581100821495056  0.7874833345413208  0.6802734136581421  1.0000
  Er  Er2       1.0  0.1531103551387787  0.024853000417351723  0.6691188216209412  1.0000
  Er  Er3       1.0  0.20069706439971924  0.5053420662879944  0.767275869846344  1.0000
  Er  Er4       1.0  0.6429694294929504  0.842232882976532  0.9498782157897949  1.0000
  O   O1        1.0  0.654145359992981  0.7641907930374146  0.18463799357414246  1.0000
  O   O2        1.0  0.6570101976394653  0.056539136916399  0.2766304016113281  1.0000
  O   O3        1.0  0.28660106658935547  0.26480644941329956  0.43976593017578125  1.0000
  Se  Se1       1.0  0.6592355966567993  0.0027978704310953617  0.9320808053016663  1.0000
  Se  Se2       1.0  0.1909167468547821  0.9826661348342896  0.03851513564586638  1.0000
  Se  Se3       1.0  0.14389865100383759  0.5047327876091003  0.8056690692901611  1.0000
