data_image0
_chemical_formula_structural       Er4O2Se4
_chemical_formula_sum              "Er4 O2 Se4"
_cell_length_a       5.364947728757864
_cell_length_b       6.492580952840983
_cell_length_c       6.873144149780273
_cell_angle_alpha    121.13561508146162
_cell_angle_beta     104.71626080557014
_cell_angle_gamma    88.23647892720606

_space_group_name_H-M_alt    "P 1"
_space_group_IT_number       1

loop_
  _space_group_symop_operation_xyz
  'x, y, z'

loop_
  _atom_site_type_symbol
  _atom_site_label
  _atom_site_symmetry_multiplicity
  _atom_site_fract_x
  _atom_site_fract_y
  _atom_site_fract_z
  _atom_site_occupancy
  Er  Er1       1.0  0.8090489506721497  0.1539965271949768  0.31256240606307983  1.0000
  Er  Er2       1.0  0.28038671612739563  0.9286397695541382  0.7822466492652893  1.0000
  Er  Er3       1.0  0.7328092455863953  0.4850839376449585  0.6062037348747253  1.0000
  Er  Er4       1.0  0.3045695126056671  0.6764441728591919  0.4409463405609131  1.0000
  O   O1        1.0  0.9738635420799254  0.9555025100708008  0.5939396619796753  1.0000
  O   O2        1.0  0.9844270944595336  0.21094359457492828  0.5612968802452087  1.0000
  Se  Se1       1.0  0.8861348628997803  0.4261028468608856  0.052997250109910965  1.0000
  Se  Se2       1.0  0.4347599744796753  0.18633583188056946  0.9373102784156799  1.0000
  Se  Se3       1.0  0.4716927409172058  0.7003726959228516  0.22314967215061188  1.0000
  Se  Se4       1.0  0.05441878363490105  0.42947763204574585  0.008729552850127253  1.0000
