data_image0
_chemical_formula_structural       AsGeI2PPbSV2Zn
_chemical_formula_sum              "As1 Ge1 I2 P1 Pb1 S1 V2 Zn1"
_cell_length_a       5.12874980450715
_cell_length_b       7.989856164754786
_cell_length_c       8.30661678314209
_cell_angle_alpha    69.64386859285972
_cell_angle_beta     73.35859622134038
_cell_angle_gamma    71.95710174863149

_space_group_name_H-M_alt    "P 1"
_space_group_IT_number       1

loop_
  _space_group_symop_operation_xyz
  'x, y, z'

loop_
  _atom_site_type_symbol
  _atom_site_label
  _atom_site_symmetry_multiplicity
  _atom_site_fract_x
  _atom_site_fract_y
  _atom_site_fract_z
  _atom_site_occupancy
  As  As1       1.0  0.206210657954216  0.21779797971248627  0.6185551285743713  1.0000
  Ge  Ge1       1.0  0.10589124262332916  0.20746199786663055  0.9970507621765137  1.0000
  I   I1        1.0  0.8953133225440979  0.6301149129867554  0.589629590511322  1.0000
  I   I2        1.0  0.4085404574871063  0.8168157935142517  0.14773355424404144  1.0000
  P   P1        1.0  0.676907479763031  0.5138124227523804  0.8798831105232239  1.0000
  Pb  Pb1       1.0  0.9664084315299988  0.4583425223827362  0.2390071153640747  1.0000
  S   S1        1.0  0.4048144519329071  0.5798540115356445  0.6983926296234131  1.0000
  V   V1        1.0  0.40352925658226013  0.5948594808578491  0.20253360271453857  1.0000
  V   V2        1.0  0.7521279454231262  0.852468729019165  0.9331546425819397  1.0000
  Zn  Zn1       1.0  0.23940014839172363  0.8396593332290649  0.28683871030807495  1.0000
