data_image0
_chemical_formula_structural       Cs2I2P2S2SbV
_chemical_formula_sum              "Cs2 I2 P2 S2 Sb1 V1"
_cell_length_a       5.615216329416476
_cell_length_b       5.816437056516946
_cell_length_c       7.508053302764893
_cell_angle_alpha    89.78820319795115
_cell_angle_beta     89.29590531978339
_cell_angle_gamma    92.35837458422922

_space_group_name_H-M_alt    "P 1"
_space_group_IT_number       1

loop_
  _space_group_symop_operation_xyz
  'x, y, z'

loop_
  _atom_site_type_symbol
  _atom_site_label
  _atom_site_symmetry_multiplicity
  _atom_site_fract_x
  _atom_site_fract_y
  _atom_site_fract_z
  _atom_site_occupancy
  Cs  Cs1       1.0  0.0782456248998642  0.34204837679862976  0.7364887595176697  1.0000
  Cs  Cs2       1.0  0.030440112575888634  0.5281297564506531  0.8595797419548035  1.0000
  I   I1        1.0  0.05417970195412636  0.8476055860519409  0.31934329867362976  1.0000
  I   I2        1.0  0.35408538579940796  0.15611054003238678  0.9401409029960632  1.0000
  P   P1        1.0  0.8515207767486572  0.9668653011322023  0.8324892520904541  1.0000
  P   P2        1.0  0.5675366520881653  0.6946293115615845  0.5411134362220764  1.0000
  S   S1        1.0  0.5380043387413025  0.685272753238678  0.539382815361023  1.0000
  S   S2        1.0  0.0418146476149559  0.9263986945152284  0.6196792721748352  1.0000
  Sb  Sb1       1.0  0.3098590672016144  0.5605640411376953  0.8460620641708374  1.0000
  V   V1        1.0  0.5516462922096252  0.8007885813713074  0.5529848337173462  1.0000
