data_image0
_chemical_formula_structural       Ag7CsS2
_chemical_formula_sum              "Ag7 Cs1 S2"
_cell_length_a       6.141892021762363
_cell_length_b       6.063798743743561
_cell_length_c       8.819323539733887
_cell_angle_alpha    94.15707022676806
_cell_angle_beta     95.49135886180217
_cell_angle_gamma    93.54364978381348

_space_group_name_H-M_alt    "P 1"
_space_group_IT_number       1

loop_
  _space_group_symop_operation_xyz
  'x, y, z'

loop_
  _atom_site_type_symbol
  _atom_site_label
  _atom_site_symmetry_multiplicity
  _atom_site_fract_x
  _atom_site_fract_y
  _atom_site_fract_z
  _atom_site_occupancy
  Ag  Ag1       1.0  0.7857210040092468  0.8450973629951477  0.3580281436443329  1.0000
  Ag  Ag2       1.0  0.7704346776008606  0.2695239782333374  0.10525470972061157  1.0000
  Ag  Ag3       1.0  0.6351533532142639  0.8506031036376953  0.397908478975296  1.0000
  Ag  Ag4       1.0  0.28322502970695496  0.9001083374023438  0.357337087392807  1.0000
  Ag  Ag5       1.0  0.16338859498500824  0.5492684841156006  0.0380825474858284  1.0000
  Ag  Ag6       1.0  0.08247683197259903  0.3563390076160431  0.4836159348487854  1.0000
  Ag  Ag7       1.0  0.2844527065753937  0.37739571928977966  0.6424033045768738  1.0000
  Cs  Cs1       1.0  0.612732470035553  0.5489181876182556  0.3409319519996643  1.0000
  S   S1        1.0  0.29294997453689575  0.13252463936805725  0.17454952001571655  1.0000
  S   S2        1.0  0.1486140340566635  0.17369356751441956  0.934123158454895  1.0000
