data_image0
_chemical_formula_structural       BaILiLuPbS3VZn
_chemical_formula_sum              "Ba1 I1 Li1 Lu1 Pb1 S3 V1 Zn1"
_cell_length_a       6.402631226605019
_cell_length_b       6.289962625627927
_cell_length_c       9.478116989135742
_cell_angle_alpha    89.48075942396356
_cell_angle_beta     90.68367260982322
_cell_angle_gamma    102.78314124183238

_space_group_name_H-M_alt    "P 1"
_space_group_IT_number       1

loop_
  _space_group_symop_operation_xyz
  'x, y, z'

loop_
  _atom_site_type_symbol
  _atom_site_label
  _atom_site_symmetry_multiplicity
  _atom_site_fract_x
  _atom_site_fract_y
  _atom_site_fract_z
  _atom_site_occupancy
  Ba  Ba1       1.0  0.6827598214149475  0.31778085231781006  0.7596813440322875  1.0000
  I   I1        1.0  0.6919643878936768  0.4503907263278961  0.09099286794662476  1.0000
  Li  Li1       1.0  0.20475703477859494  0.6165839433670044  0.1864498406648636  1.0000
  Lu  Lu1       1.0  0.33905187249183655  0.948327362537384  0.010069034062325953  1.0000
  Pb  Pb1       1.0  0.9126675724983214  0.05510853976011276  0.7153650522232056  1.0000
  S   S1        1.0  0.019257834181189537  0.8096725344657898  0.31494754552841187  1.0000
  S   S2        1.0  0.9222945570945739  0.6761488914489746  0.8423084020614624  1.0000
  S   S3        1.0  0.9891031384468078  0.22838003933429718  0.08027041703462601  1.0000
  V   V1        1.0  0.35583117604255676  0.3896147608757019  0.7844668626785278  1.0000
  Zn  Zn1       1.0  0.49079290032386774  0.19252049922943115  0.5182085633277893  1.0000
