data_image0
_chemical_formula_structural       AgCsI2LuPbS4
_chemical_formula_sum              "Ag1 Cs1 I2 Lu1 Pb1 S4"
_cell_length_a       6.36657428873757
_cell_length_b       6.512306036994707
_cell_length_c       7.538266658782959
_cell_angle_alpha    90.07830679650898
_cell_angle_beta     90.83062086878726
_cell_angle_gamma    90.04202048011128

_space_group_name_H-M_alt    "P 1"
_space_group_IT_number       1

loop_
  _space_group_symop_operation_xyz
  'x, y, z'

loop_
  _atom_site_type_symbol
  _atom_site_label
  _atom_site_symmetry_multiplicity
  _atom_site_fract_x
  _atom_site_fract_y
  _atom_site_fract_z
  _atom_site_occupancy
  Ag  Ag1       1.0  0.9700562357902527  0.2453559935092926  0.5248032212257385  1.0000
  Cs  Cs1       1.0  0.5029416680335999  0.4166759252548218  0.6494093537330627  1.0000
  I   I1        1.0  0.9732940793037415  0.7245771288871765  0.682431697845459  1.0000
  I   I2        1.0  0.8393385410308838  0.3517898619174957  0.10486195236444472  1.0000
  Lu  Lu1       1.0  0.5039483308792114  0.12900115549564362  0.0756460428237915  1.0000
  Pb  Pb1       1.0  0.9858759641647339  0.681136965751648  0.6072931289672852  1.0000
  S   S1        1.0  0.4655681252479553  0.2586551904678345  0.5235475301742554  1.0000
  S   S2        1.0  0.49776482582092285  0.5394805669784546  0.6325850486755371  1.0000
  S   S3        1.0  0.8525584936141968  0.3479710817337036  0.9021475315093993  1.0000
  S   S4        1.0  0.9993023872375488  0.39705991744995117  0.10329146683216094  1.0000
