data_image0
_chemical_formula_structural       Ag8S2
_chemical_formula_sum              "Ag8 S2"
_cell_length_a       6.077220462533479
_cell_length_b       5.453427813426617
_cell_length_c       10.092458724975586
_cell_angle_alpha    103.8943481080238
_cell_angle_beta     96.88848058835357
_cell_angle_gamma    86.2008522591531

_space_group_name_H-M_alt    "P 1"
_space_group_IT_number       1

loop_
  _space_group_symop_operation_xyz
  'x, y, z'

loop_
  _atom_site_type_symbol
  _atom_site_label
  _atom_site_symmetry_multiplicity
  _atom_site_fract_x
  _atom_site_fract_y
  _atom_site_fract_z
  _atom_site_occupancy
  Ag  Ag1       1.0  0.318154901266098  0.5973795652389526  0.7129950523376465  1.0000
  Ag  Ag2       1.0  0.8615790605545044  0.8539558053016663  0.5049864053726196  1.0000
  Ag  Ag3       1.0  0.8515406847000122  0.37628936767578125  0.515714704990387  1.0000
  Ag  Ag4       1.0  0.4265930950641632  0.11517371237277985  0.9636628031730652  1.0000
  Ag  Ag5       1.0  0.35576120018959045  0.8974767923355103  0.3990199565887451  1.0000
  Ag  Ag6       1.0  0.8499678373336792  0.8649458289146423  0.7058156728744507  1.0000
  Ag  Ag7       1.0  0.8891615271568298  0.8837288022041321  0.4672149121761322  1.0000
  Ag  Ag8       1.0  0.3620627522468567  0.816904604434967  0.5999373197555542  1.0000
  S   S1        1.0  0.38611453771591187  0.28756317496299744  0.38065066933631897  1.0000
  S   S2        1.0  0.9109536409378052  0.24483349919319153  0.9515818953514099  1.0000
