data_image0
_chemical_formula_structural       F2LiLuPt6
_chemical_formula_sum              "F2 Li1 Lu1 Pt6"
_cell_length_a       5.7569181013523645
_cell_length_b       5.9751769492526625
_cell_length_c       6.575379848480225
_cell_angle_alpha    66.18550091001858
_cell_angle_beta     58.93393925000791
_cell_angle_gamma    61.98285254955605

_space_group_name_H-M_alt    "P 1"
_space_group_IT_number       1

loop_
  _space_group_symop_operation_xyz
  'x, y, z'

loop_
  _atom_site_type_symbol
  _atom_site_label
  _atom_site_symmetry_multiplicity
  _atom_site_fract_x
  _atom_site_fract_y
  _atom_site_fract_z
  _atom_site_occupancy
  F   F1        1.0  0.977310299873352  0.20435580611228943  0.6442734003067017  1.0000
  F   F2        1.0  0.6278737783432007  0.3264380991458893  0.1669955998659134  1.0000
  Li  Li1       1.0  0.16402709484100342  0.25911182165145874  0.14635173976421356  1.0000
  Lu  Lu1       1.0  0.9271182417869568  0.36208173632621765  0.8116399645805358  1.0000
  Pt  Pt1       1.0  0.8801195025444031  0.5323954224586487  0.45854181051254267  1.0000
  Pt  Pt2       1.0  0.6462915539741516  0.572568416595459  0.1351357102394104  1.0000
  Pt  Pt3       1.0  0.8661647439002991  0.0629972368478775  0.4685629308223723  1.0000
  Pt  Pt4       1.0  0.09251812845468521  0.5790330767631531  0.9573872685432433  1.0000
  Pt  Pt5       1.0  0.35453173518180847  0.8201482892036438  0.14043143391609192  1.0000
  Pt  Pt6       1.0  0.00851188600063324  0.335166335105896  0.6512109041213989  1.0000
