data_image0
_chemical_formula_structural       F4Li2Pt4
_chemical_formula_sum              "F4 Li2 Pt4"
_cell_length_a       5.1508388703974575
_cell_length_b       5.741841729475728
_cell_length_c       5.665865421295166
_cell_angle_alpha    63.73383008933153
_cell_angle_beta     61.36320223145305
_cell_angle_gamma    60.74099551165871

_space_group_name_H-M_alt    "P 1"
_space_group_IT_number       1

loop_
  _space_group_symop_operation_xyz
  'x, y, z'

loop_
  _atom_site_type_symbol
  _atom_site_label
  _atom_site_symmetry_multiplicity
  _atom_site_fract_x
  _atom_site_fract_y
  _atom_site_fract_z
  _atom_site_occupancy
  F   F1        1.0  0.6140954494476318  0.4023659825325012  0.16833847761154175  1.0000
  F   F2        1.0  0.9348620176315308  0.9996539354324342  0.6392332315444946  1.0000
  F   F3        1.0  0.4747524559497833  0.6532933115959167  0.44547614455223083  1.0000
  F   F4        1.0  0.18837861716747284  0.6502953171730042  0.16624052822589874  1.0000
  Li  Li1       1.0  0.16247333586215973  0.6848070025444031  0.5097739100456238  1.0000
  Li  Li2       1.0  0.5819259285926819  0.16881759464740753  0.9871260523796082  1.0000
  Pt  Pt1       1.0  0.8085675835609436  0.00965823046863079  0.9984067678451538  1.0000
  Pt  Pt2       1.0  0.10717690736055374  0.7154108881950378  0.43287286162376404  1.0000
  Pt  Pt3       1.0  0.6022238731384277  0.22355255484580994  0.40298038721084595  1.0000
  Pt  Pt4       1.0  0.24273815751075745  0.0012721291277557611  0.33720254898071295  1.0000
