data_image0
_chemical_formula_structural       F5Pt5
_chemical_formula_sum              "F5 Pt5"
_cell_length_a       5.417483363044882
_cell_length_b       5.341572498150762
_cell_length_c       6.07791805267334
_cell_angle_alpha    62.75783308225541
_cell_angle_beta     62.61964876172303
_cell_angle_gamma    58.77420888163204

_space_group_name_H-M_alt    "P 1"
_space_group_IT_number       1

loop_
  _space_group_symop_operation_xyz
  'x, y, z'

loop_
  _atom_site_type_symbol
  _atom_site_label
  _atom_site_symmetry_multiplicity
  _atom_site_fract_x
  _atom_site_fract_y
  _atom_site_fract_z
  _atom_site_occupancy
  F   F1        1.0  0.5363646745681763  0.41200265288352966  0.20889799296855924  1.0000
  F   F2        1.0  0.12708032131195068  0.4340032935142517  0.8852562904357909  1.0000
  F   F3        1.0  0.8101246953010559  0.16580381989479065  0.5967791676521301  1.0000
  F   F4        1.0  0.0978449136018753  0.8907744884490967  0.22979095578193662  1.0000
  F   F5        1.0  0.8386019468307495  0.6859292387962341  0.8632895350456237  1.0000
  Pt  Pt1       1.0  0.10317955911159515  0.861065685749054  0.8161748647689818  1.0000
  Pt  Pt2       1.0  0.28646278381347656  0.17392663657665253  0.6754653453826904  1.0000
  Pt  Pt3       1.0  0.6222524642944336  0.36618006229400635  0.9169824719429015  1.0000
  Pt  Pt4       1.0  0.6996500492095947  0.6528473496437073  0.3773681819438934  1.0000
  Pt  Pt5       1.0  0.7958249449729919  0.8590948581695557  0.271571546792984  1.0000
