data_image0
_chemical_formula_structural       F3Li2Pt3Zn2
_chemical_formula_sum              "F3 Li2 Pt3 Zn2"
_cell_length_a       5.35700542643738
_cell_length_b       5.355951732325265
_cell_length_c       5.8656086921691895
_cell_angle_alpha    61.69286142180383
_cell_angle_beta     62.36051889561291
_cell_angle_gamma    57.9409317458667

_space_group_name_H-M_alt    "P 1"
_space_group_IT_number       1

loop_
  _space_group_symop_operation_xyz
  'x, y, z'

loop_
  _atom_site_type_symbol
  _atom_site_label
  _atom_site_symmetry_multiplicity
  _atom_site_fract_x
  _atom_site_fract_y
  _atom_site_fract_z
  _atom_site_occupancy
  F   F1        1.0  0.6014351844787598  0.34958821535110474  0.05203722417354583  1.0000
  F   F2        1.0  0.44192373752593994  0.3062838613986969  0.6800371408462524  1.0000
  F   F3        1.0  0.05350453034043312  0.8115072846412659  0.9345057606697081  1.0000
  Li  Li1       1.0  0.9431153535842896  0.7809007167816162  0.6763047575950623  1.0000
  Li  Li2       1.0  0.01458075363188982  0.2828216254711151  0.35716390609741205  1.0000
  Pt  Pt1       1.0  0.3164235055446625  0.7833753824234009  0.5933972001075745  1.0000
  Pt  Pt2       1.0  0.5086084604263306  0.7882499098777771  0.3830696046352386  1.0000
  Pt  Pt3       1.0  0.8301641941070557  0.7934399247169495  0.6182323098182678  1.0000
  Zn  Zn1       1.0  0.04629506915807724  0.5541991591453552  0.32546406984329224  1.0000
  Zn  Zn2       1.0  0.4399327337741852  0.1564311534166336  0.19605448842048642  1.0000
