data_image0
_chemical_formula_structural       F2Li4PdPt3
_chemical_formula_sum              "F2 Li4 Pd1 Pt3"
_cell_length_a       5.717650970987028
_cell_length_b       5.787676476288974
_cell_length_c       5.890563011169434
_cell_angle_alpha    59.440101007361186
_cell_angle_beta     61.90221186754436
_cell_angle_gamma    59.89713303346782

_space_group_name_H-M_alt    "P 1"
_space_group_IT_number       1

loop_
  _space_group_symop_operation_xyz
  'x, y, z'

loop_
  _atom_site_type_symbol
  _atom_site_label
  _atom_site_symmetry_multiplicity
  _atom_site_fract_x
  _atom_site_fract_y
  _atom_site_fract_z
  _atom_site_occupancy
  F   F1        1.0  0.14749334752559662  0.19539493322372437  0.9271071553230286  1.0000
  F   F2        1.0  0.9044191837310791  0.7103027701377869  0.5534194707870483  1.0000
  Li  Li1       1.0  0.028879662975668862  0.9945848584175111  0.2504666447639465  1.0000
  Li  Li2       1.0  0.7599714994430542  0.8749892711639404  0.14459328353405  1.0000
  Li  Li3       1.0  0.6010137796401978  0.21208643913269043  0.7711585760116577  1.0000
  Li  Li4       1.0  0.10607141256332397  0.20052561163902283  0.4678713381290436  1.0000
  Pd  Pd1       1.0  0.03603991121053696  0.6496655344963074  0.8938316106796265  1.0000
  Pt  Pt1       1.0  0.2587665319442749  0.37848201394081116  0.6454073190689087  1.0000
  Pt  Pt2       1.0  0.3916642665863037  0.878227949142456  0.16969439387321472  1.0000
  Pt  Pt3       1.0  0.336324542760849  0.2071216106414795  0.9918438196182251  1.0000
