data_image0
_chemical_formula_structural       F3Pt7
_chemical_formula_sum              "F3 Pt7"
_cell_length_a       5.2350889804757035
_cell_length_b       5.4870053986136424
_cell_length_c       5.907661437988281
_cell_angle_alpha    63.32059273535722
_cell_angle_beta     61.319562910771246
_cell_angle_gamma    58.2373278668869

_space_group_name_H-M_alt    "P 1"
_space_group_IT_number       1

loop_
  _space_group_symop_operation_xyz
  'x, y, z'

loop_
  _atom_site_type_symbol
  _atom_site_label
  _atom_site_symmetry_multiplicity
  _atom_site_fract_x
  _atom_site_fract_y
  _atom_site_fract_z
  _atom_site_occupancy
  F   F1        1.0  0.5253117084503174  0.4158957302570343  0.2968958914279938  1.0000
  F   F2        1.0  0.7688651084899902  0.05035164952278137  0.6886650323867798  1.0000
  F   F3        1.0  0.027517136186361313  0.6686662435531616  0.6970990300178528  1.0000
  Pt  Pt1       1.0  0.09515658766031265  0.8967272043228149  0.18143489956855774  1.0000
  Pt  Pt2       1.0  0.1808757781982422  0.3189994692802429  0.2930428981781006  1.0000
  Pt  Pt3       1.0  0.5252337455749512  0.13557398319244385  0.8078105449676514  1.0000
  Pt  Pt4       1.0  0.840320885181427  0.3935627341270447  0.44739121198654175  1.0000
  Pt  Pt5       1.0  0.0513329803943634  0.9045162796974182  0.9419484734535217  1.0000
  Pt  Pt6       1.0  0.48791107535362244  0.707330584526062  0.9609135985374451  1.0000
  Pt  Pt7       1.0  0.4930404722690582  0.411035418510437  0.844961404800415  1.0000
