data_image0
_chemical_formula_structural       SSc5
_chemical_formula_sum              "S1 Sc5"
_cell_length_a       4.480242958216779
_cell_length_b       5.098304298714901
_cell_length_c       7.051943302154541
_cell_angle_alpha    118.71360479529578
_cell_angle_beta     103.5070027350122
_cell_angle_gamma    88.85599497538873

_space_group_name_H-M_alt    "P 1"
_space_group_IT_number       1

loop_
  _space_group_symop_operation_xyz
  'x, y, z'

loop_
  _atom_site_type_symbol
  _atom_site_label
  _atom_site_symmetry_multiplicity
  _atom_site_fract_x
  _atom_site_fract_y
  _atom_site_fract_z
  _atom_site_occupancy
  S   S1        1.0  0.9809339642524719  0.6340247392654419  0.8439615964889527  1.0000
  Sc  Sc1       1.0  0.27688586711883545  0.8704478740692139  0.3529331982135772  1.0000
  Sc  Sc2       1.0  0.6226285696029663  0.8762918710708618  0.7849690914154054  1.0000
  Sc  Sc3       1.0  0.2866686284542084  0.24241006374359128  0.3040162920951844  1.0000
  Sc  Sc4       1.0  0.7843552231788635  0.3567435145378113  0.01387097127735615  1.0000
  Sc  Sc5       1.0  0.34168756008148193  0.5904325246810913  0.25476786494255066  1.0000
