data_image0
_chemical_formula_structural       F2Sc4
_chemical_formula_sum              "F2 Sc4"
_cell_length_a       4.541929847573821
_cell_length_b       5.051469480857692
_cell_length_c       8.046470642089844
_cell_angle_alpha    109.37709894384068
_cell_angle_beta     104.52656647447454
_cell_angle_gamma    90.98897371735814

_space_group_name_H-M_alt    "P 1"
_space_group_IT_number       1

loop_
  _space_group_symop_operation_xyz
  'x, y, z'

loop_
  _atom_site_type_symbol
  _atom_site_label
  _atom_site_symmetry_multiplicity
  _atom_site_fract_x
  _atom_site_fract_y
  _atom_site_fract_z
  _atom_site_occupancy
  F   F1        1.0  0.47851741313934326  0.5686569809913635  0.24673238396644592  1.0000
  F   F2        1.0  0.7071086764335632  0.7817392945289612  0.8802909255027771  1.0000
  Sc  Sc1       1.0  0.22888536751270294  0.608692467212677  0.5493963956832886  1.0000
  Sc  Sc2       1.0  0.24677589535713196  0.10280933976173401  0.939990222454071  1.0000
  Sc  Sc3       1.0  0.7088673710823059  0.15066926181316376  0.23368149995803833  1.0000
  Sc  Sc4       1.0  0.23113425076007843  0.3313206136226654  0.7264268398284912  1.0000
