data_image0
_chemical_formula_structural       Ba2FGeO2Zn
_chemical_formula_sum              "Ba2 F1 Ge1 O2 Zn1"
_cell_length_a       6.093110817634187
_cell_length_b       5.160659765254818
_cell_length_c       5.729348659515381
_cell_angle_alpha    41.082234826799194
_cell_angle_beta     68.22577313225945
_cell_angle_gamma    63.50194928958242

_space_group_name_H-M_alt    "P 1"
_space_group_IT_number       1

loop_
  _space_group_symop_operation_xyz
  'x, y, z'

loop_
  _atom_site_type_symbol
  _atom_site_label
  _atom_site_symmetry_multiplicity
  _atom_site_fract_x
  _atom_site_fract_y
  _atom_site_fract_z
  _atom_site_occupancy
  Ba  Ba1       1.0  0.783482551574707  0.21027533710002905  0.6986421942710876  1.0000
  Ba  Ba2       1.0  0.3381192982196808  0.5171743035316466  0.8686126470565797  1.0000
  F   F1        1.0  0.353689968585968  0.2711494565010071  0.2583338618278503  1.0000
  Ge  Ge1       1.0  0.9466411471366882  0.5641075968742372  0.28851753473281855  1.0000
  O   O1        1.0  0.9093000888824463  0.7910923957824706  0.7728978991508485  1.0000
  O   O2        1.0  0.8075389862060547  0.5324771404266356  0.09269444644451147  1.0000
  Zn  Zn1       1.0  0.39011380076408386  0.1846850216388703  0.7532556653022766  1.0000
