data_image0
_chemical_formula_structural       La3P2STl
_chemical_formula_sum              "La3 P2 S1 Tl1"
_cell_length_a       5.102958771345453
_cell_length_b       3.602723347464306
_cell_length_c       6.942958354949951
_cell_angle_alpha    123.2453212956106
_cell_angle_beta     112.1919912947392
_cell_angle_gamma    88.63579688353798

_space_group_name_H-M_alt    "P 1"
_space_group_IT_number       1

loop_
  _space_group_symop_operation_xyz
  'x, y, z'

loop_
  _atom_site_type_symbol
  _atom_site_label
  _atom_site_symmetry_multiplicity
  _atom_site_fract_x
  _atom_site_fract_y
  _atom_site_fract_z
  _atom_site_occupancy
  La  La1       1.0  0.05128731578588486  0.47567018866539  0.44214168190956116  1.0000
  La  La2       1.0  0.9480241537094117  0.27095112204551697  0.23872680962085732  1.0000
  La  La3       1.0  0.346862256526947  0.500155508518219  0.9294708967208862  1.0000
  P   P1        1.0  0.7752155065536499  0.7990302443504333  0.430544376373291  1.0000
  P   P2        1.0  0.7628285884857178  0.12428933382034302  0.897351861000061  1.0000
  S   S1        1.0  0.002301333239302039  0.12341680377721786  0.7510843873023987  1.0000
  Tl  Tl1       1.0  0.4313778579235077  0.12845556437969208  0.47658246755599976  1.0000
