data_image0
_chemical_formula_structural       La3NiP3
_chemical_formula_sum              "La3 Ni1 P3"
_cell_length_a       5.507922502122984
_cell_length_b       6.159048851099421
_cell_length_c       7.057287693023682
_cell_angle_alpha    117.44570966514803
_cell_angle_beta     117.01003293236495
_cell_angle_gamma    87.74455083850293

_space_group_name_H-M_alt    "P 1"
_space_group_IT_number       1

loop_
  _space_group_symop_operation_xyz
  'x, y, z'

loop_
  _atom_site_type_symbol
  _atom_site_label
  _atom_site_symmetry_multiplicity
  _atom_site_fract_x
  _atom_site_fract_y
  _atom_site_fract_z
  _atom_site_occupancy
  La  La1       1.0  0.25076597929000854  0.2595568895339966  0.12864114344120026  1.0000
  La  La2       1.0  0.8052710890769958  0.5553004741668701  0.19652816653251648  1.0000
  La  La3       1.0  0.9832836389541627  0.7793893218040466  0.46694469451904297  1.0000
  Ni  Ni1       1.0  0.23736682534217837  0.03108409233391285  0.1928422451019287  1.0000
  P   P1        1.0  0.6644784212112427  0.1894533783197403  0.31519055366516113  1.0000
  P   P2        1.0  0.6648223996162415  0.3797967731952667  0.751929521560669  1.0000
  P   P3        1.0  0.6533441543579102  0.696052610874176  0.3204762935638428  1.0000
