data_image0
_chemical_formula_structural       AgLa6
_chemical_formula_sum              "Ag1 La6"
_cell_length_a       5.088040166462825
_cell_length_b       6.713944143394133
_cell_length_c       7.2031145095825195
_cell_angle_alpha    114.9310907050243
_cell_angle_beta     109.16436727639223
_cell_angle_gamma    84.40457712161339

_space_group_name_H-M_alt    "P 1"
_space_group_IT_number       1

loop_
  _space_group_symop_operation_xyz
  'x, y, z'

loop_
  _atom_site_type_symbol
  _atom_site_label
  _atom_site_symmetry_multiplicity
  _atom_site_fract_x
  _atom_site_fract_y
  _atom_site_fract_z
  _atom_site_occupancy
  Ag  Ag1       1.0  0.6453666090965271  0.09149754792451859  0.9841477870941163  1.0000
  La  La1       1.0  0.21504242718219757  0.780402421951294  0.21267840266227722  1.0000
  La  La2       1.0  0.4788910150527954  0.35144737362861633  0.4215656518936157  1.0000
  La  La3       1.0  0.6576797366142273  0.7574760913848877  0.9007341861724855  1.0000
  La  La4       1.0  0.1592269390821457  0.13521280884742737  0.9268693923950196  1.0000
  La  La5       1.0  0.9241772294044495  0.8514700531959534  0.47888845205307  1.0000
  La  La6       1.0  0.4442690312862396  0.5912728309631348  0.49527409672737127  1.0000
