data_image0
_chemical_formula_structural       La5PS
_chemical_formula_sum              "La5 P1 S1"
_cell_length_a       5.137223470376294
_cell_length_b       6.472617854112289
_cell_length_c       7.405646324157715
_cell_angle_alpha    115.0179780899308
_cell_angle_beta     110.83443914109701
_cell_angle_gamma    83.24086368001876

_space_group_name_H-M_alt    "P 1"
_space_group_IT_number       1

loop_
  _space_group_symop_operation_xyz
  'x, y, z'

loop_
  _atom_site_type_symbol
  _atom_site_label
  _atom_site_symmetry_multiplicity
  _atom_site_fract_x
  _atom_site_fract_y
  _atom_site_fract_z
  _atom_site_occupancy
  La  La1       1.0  0.4080654978752136  0.4921974241733551  0.13256625831127167  1.0000
  La  La2       1.0  0.5336291790008545  0.9094783663749695  0.5743662118911743  1.0000
  La  La3       1.0  0.6698415875434875  0.15443769097328186  0.1439916342496872  1.0000
  La  La4       1.0  0.13865900039672852  0.15207450091838837  0.520876944065094  1.0000
  La  La5       1.0  0.32540708780288696  0.5890688896179199  0.4204901754856109  1.0000
  P   P1        1.0  0.0738818421959877  0.25024932622909546  0.3405099809169769  1.0000
  S   S1        1.0  0.9102428555488586  0.4858008921146393  0.13306918740272522  1.0000
