data_image0
_chemical_formula_structural       CaPd2Si3Tb
_chemical_formula_sum              "Ca1 Pd2 Si3 Tb1"
_cell_length_a       6.717564703070837
_cell_length_b       6.603417523478807
_cell_length_c       6.8992085456848145
_cell_angle_alpha    59.75947593795996
_cell_angle_beta     63.45353924537919
_cell_angle_gamma    60.57420060543073

_space_group_name_H-M_alt    "P 1"
_space_group_IT_number       1

loop_
  _space_group_symop_operation_xyz
  'x, y, z'

loop_
  _atom_site_type_symbol
  _atom_site_label
  _atom_site_symmetry_multiplicity
  _atom_site_fract_x
  _atom_site_fract_y
  _atom_site_fract_z
  _atom_site_occupancy
  Ca  Ca1       1.0  0.12820054590702057  0.9335165619850159  0.4619071185588836  1.0000
  Pd  Pd1       1.0  0.17857696115970612  0.4803985357284546  0.7732469439506531  1.0000
  Pd  Pd2       1.0  0.4283139705657959  0.9322036504745483  0.10867135971784592  1.0000
  Si  Si1       1.0  0.608947217464447  0.9266368746757507  0.9274469017982482  1.0000
  Si  Si2       1.0  0.1761174201965332  0.7306142449378967  0.018901770934462547  1.0000
  Si  Si3       1.0  0.6743878722190857  0.2608615458011627  0.8398226499557495  1.0000
  Tb  Tb1       1.0  0.6429401636123657  0.9813809394836426  0.9632690548896788  1.0000
