data_image0
_chemical_formula_structural       HPPbPtSi3
_chemical_formula_sum              "H1 P1 Pb1 Pt1 Si3"
_cell_length_a       4.545909401099438
_cell_length_b       4.963685792952568
_cell_length_c       5.727159023284912
_cell_angle_alpha    74.20093060551912
_cell_angle_beta     72.82375609621688
_cell_angle_gamma    65.04710602830987

_space_group_name_H-M_alt    "P 1"
_space_group_IT_number       1

loop_
  _space_group_symop_operation_xyz
  'x, y, z'

loop_
  _atom_site_type_symbol
  _atom_site_label
  _atom_site_symmetry_multiplicity
  _atom_site_fract_x
  _atom_site_fract_y
  _atom_site_fract_z
  _atom_site_occupancy
  H   H1        1.0  0.9797080755233765  0.6358245015144348  0.20782844722270966  1.0000
  P   P1        1.0  0.8773140907287598  0.7186111211776733  0.3103664219379425  1.0000
  Pb  Pb1       1.0  0.8193337321281433  0.8193078637123108  0.783776044845581  1.0000
  Pt  Pt1       1.0  0.2963502109050751  0.30858150124549866  0.2654643654823303  1.0000
  Si  Si1       1.0  0.4043566584587097  0.24485665559768677  0.03132871538400652  1.0000
  Si  Si2       1.0  0.30231112241744995  0.02773396298289299  0.09344940632581711  1.0000
  Si  Si3       1.0  0.7556931376457214  0.6211872100830078  0.006355850957334042  1.0000
