data_image0
_chemical_formula_structural       Pd2PtSi4
_chemical_formula_sum              "Pd2 Pt1 Si4"
_cell_length_a       5.050370146274388
_cell_length_b       5.777373980294112
_cell_length_c       5.918028354644775
_cell_angle_alpha    55.918088082379754
_cell_angle_beta     58.07935256978279
_cell_angle_gamma    60.40145030645099

_space_group_name_H-M_alt    "P 1"
_space_group_IT_number       1

loop_
  _space_group_symop_operation_xyz
  'x, y, z'

loop_
  _atom_site_type_symbol
  _atom_site_label
  _atom_site_symmetry_multiplicity
  _atom_site_fract_x
  _atom_site_fract_y
  _atom_site_fract_z
  _atom_site_occupancy
  Pd  Pd1       1.0  0.5388241410255432  0.26385992765426636  0.15010248124599457  1.0000
  Pd  Pd2       1.0  0.8000317215919495  0.5608429312705994  0.7258461713790894  1.0000
  Pt  Pt1       1.0  0.24593183398246765  0.659547746181488  0.1056286171078682  1.0000
  Si  Si1       1.0  0.8359401226043701  0.49899283051490784  0.3543463945388794  1.0000
  Si  Si2       1.0  0.8101983666419983  0.3131425678730011  0.9100877642631531  1.0000
  Si  Si3       1.0  0.2739790678024292  0.1923847794532776  0.6992751955986023  1.0000
  Si  Si4       1.0  0.2373971939086914  0.9497931599617004  0.6311527490615845  1.0000
