data_image0
_chemical_formula_structural       Ho4O4PSb
_chemical_formula_sum              "Ho4 O4 P1 Sb1"
_cell_length_a       5.092719546286394
_cell_length_b       5.694945149188441
_cell_length_c       6.239015102386475
_cell_angle_alpha    117.27683886918335
_cell_angle_beta     101.27199946418393
_cell_angle_gamma    92.59717152091376

_space_group_name_H-M_alt    "P 1"
_space_group_IT_number       1

loop_
  _space_group_symop_operation_xyz
  'x, y, z'

loop_
  _atom_site_type_symbol
  _atom_site_label
  _atom_site_symmetry_multiplicity
  _atom_site_fract_x
  _atom_site_fract_y
  _atom_site_fract_z
  _atom_site_occupancy
  Ho  Ho1       1.0  0.3690844774246216  0.13355590403079987  0.1627667397260666  1.0000
  Ho  Ho2       1.0  0.4005813002586365  0.21055302023887634  0.9360386729240417  1.0000
  Ho  Ho3       1.0  0.39405950903892517  0.6338918209075928  0.13417090475559235  1.0000
  Ho  Ho4       1.0  0.4428337812423706  0.6859762668609619  0.37565046548843384  1.0000
  O   O1        1.0  0.5532020330429077  0.7153543829917908  0.5719401836395265  1.0000
  O   O2        1.0  0.5535751581192017  0.31136107444763184  0.5891850590705872  1.0000
  O   O3        1.0  0.08434118330478668  0.6914620995521545  0.38477087020874023  1.0000
  O   O4        1.0  0.8885194063186646  0.6902738809585571  0.24054361879825592  1.0000
  P   P1        1.0  0.8786438703536987  0.1711128056049347  0.43178674578666687  1.0000
  Sb  Sb1       1.0  0.8854023814201355  0.3427140414714813  0.6285055875778198  1.0000
