data_image0
_chemical_formula_structural       CoHo4O5
_chemical_formula_sum              "Co1 Ho4 O5"
_cell_length_a       4.292959744205135
_cell_length_b       6.1909609608508385
_cell_length_c       6.119485855102539
_cell_angle_alpha    116.43645073915795
_cell_angle_beta     89.31197029165988
_cell_angle_gamma    92.112581082028

_space_group_name_H-M_alt    "P 1"
_space_group_IT_number       1

loop_
  _space_group_symop_operation_xyz
  'x, y, z'

loop_
  _atom_site_type_symbol
  _atom_site_label
  _atom_site_symmetry_multiplicity
  _atom_site_fract_x
  _atom_site_fract_y
  _atom_site_fract_z
  _atom_site_occupancy
  Co  Co1       1.0  0.5259543657302856  0.5260823965072632  0.1929954439401627  1.0000
  Ho  Ho1       1.0  0.10755935311317444  0.8200232982635498  0.2559161484241486  1.0000
  Ho  Ho2       1.0  0.004106640815734863  0.5205691456794739  0.06557671725749972  1.0000
  Ho  Ho3       1.0  0.5504096746444702  0.3464439809322357  0.0012213690206408863  1.0000
  Ho  Ho4       1.0  0.012744145467877388  0.038626715540885925  0.261603444814682  1.0000
  O   O1        1.0  0.2873881161212921  0.6106299161911011  0.12038883566856387  1.0000
  O   O2        1.0  0.47713303565979004  0.7666346430778503  0.12378836423158653  1.0000
  O   O3        1.0  0.2777833938598633  0.31667768955230713  0.7020393013954163  1.0000
  O   O4        1.0  0.7830109000205994  0.8579145669937134  0.7593570947647095  1.0000
  O   O5        1.0  0.8447297215461731  0.20723691582679749  0.8484151363372803  1.0000
