data_image0
_chemical_formula_structural       Ho3O7
_chemical_formula_sum              "Ho3 O7"
_cell_length_a       4.515035392431429
_cell_length_b       5.089513627990137
_cell_length_c       5.856838703155518
_cell_angle_alpha    114.66672760036056
_cell_angle_beta     110.1396204905619
_cell_angle_gamma    92.00780309935175

_space_group_name_H-M_alt    "P 1"
_space_group_IT_number       1

loop_
  _space_group_symop_operation_xyz
  'x, y, z'

loop_
  _atom_site_type_symbol
  _atom_site_label
  _atom_site_symmetry_multiplicity
  _atom_site_fract_x
  _atom_site_fract_y
  _atom_site_fract_z
  _atom_site_occupancy
  Ho  Ho1       1.0  0.46343284845352173  0.256317138671875  0.7035648822784424  1.0000
  Ho  Ho2       1.0  0.5451026558876038  0.06309864670038223  0.3007071614265442  1.0000
  Ho  Ho3       1.0  0.2084716260433197  0.7256611585617065  0.47741153836250305  1.0000
  O   O1        1.0  0.9436991214752197  0.47954094409942627  0.9710833430290222  1.0000
  O   O2        1.0  0.9577200412750244  0.706961452960968  0.9873576164245605  1.0000
  O   O3        1.0  0.930901288986206  0.38899853825569153  0.27379727363586426  1.0000
  O   O4        1.0  0.1483718305826187  0.706084132194519  0.7206212282180786  1.0000
  O   O5        1.0  0.3135147988796234  0.2741728723049164  0.918077826499939  1.0000
  O   O6        1.0  0.7942540645599365  0.6740750074386597  0.6216572523117065  1.0000
  O   O7        1.0  0.7102013826370239  0.9956648945808411  0.9333447217941284  1.0000
