data_image0
_chemical_formula_structural       Ho5O4Ta
_chemical_formula_sum              "Ho5 O4 Ta1"
_cell_length_a       4.125908861864951
_cell_length_b       5.236472902602664
_cell_length_c       7.029109001159668
_cell_angle_alpha    114.32056522607209
_cell_angle_beta     91.03107704272817
_cell_angle_gamma    87.39730375575515

_space_group_name_H-M_alt    "P 1"
_space_group_IT_number       1

loop_
  _space_group_symop_operation_xyz
  'x, y, z'

loop_
  _atom_site_type_symbol
  _atom_site_label
  _atom_site_symmetry_multiplicity
  _atom_site_fract_x
  _atom_site_fract_y
  _atom_site_fract_z
  _atom_site_occupancy
  Ho  Ho1       1.0  0.41908326745033264  0.6004370450973511  0.054643820971250534  1.0000
  Ho  Ho2       1.0  0.41663503646850586  0.2536836266517639  0.4971241056919098  1.0000
  Ho  Ho3       1.0  0.4142289161682129  0.12055617570877077  0.7722854018211365  1.0000
  Ho  Ho4       1.0  0.9081932306289673  0.9242632985115052  0.9864248633384705  1.0000
  Ho  Ho5       1.0  0.9141600131988525  0.8197874426841736  0.17846451699733737  1.0000
  O   O1        1.0  0.4213119447231293  0.42698255181312567  0.48198893666267395  1.0000
  O   O2        1.0  0.9260820150375366  0.4706615805625916  0.5284191370010376  1.0000
  O   O3        1.0  0.9202455878257751  0.41740337014198303  0.41774672269821167  1.0000
  O   O4        1.0  0.9303838610649109  0.2063339799642563  0.08964581042528152  1.0000
  Ta  Ta1       1.0  0.4102383852005005  0.26743459701538086  0.21328529715538025  1.0000
