data_image0
_chemical_formula_structural       Ho6O2TaTb
_chemical_formula_sum              "Ho6 O2 Ta1 Tb1"
_cell_length_a       4.987680954191188
_cell_length_b       6.323724793840599
_cell_length_c       6.5566301345825195
_cell_angle_alpha    121.52192364624884
_cell_angle_beta     91.74217703721185
_cell_angle_gamma    90.0160873592173

_space_group_name_H-M_alt    "P 1"
_space_group_IT_number       1

loop_
  _space_group_symop_operation_xyz
  'x, y, z'

loop_
  _atom_site_type_symbol
  _atom_site_label
  _atom_site_symmetry_multiplicity
  _atom_site_fract_x
  _atom_site_fract_y
  _atom_site_fract_z
  _atom_site_occupancy
  Ho  Ho1       1.0  0.2380465865135193  0.003875152673572302  0.5185425281524658  1.0000
  Ho  Ho2       1.0  0.774940550327301  0.3309484124183655  0.45860305428504944  1.0000
  Ho  Ho3       1.0  0.2620050609111786  0.11751481890678406  0.6404492259025574  1.0000
  Ho  Ho4       1.0  0.7717002630233765  0.7821587324142456  0.19234511256217962  1.0000
  Ho  Ho5       1.0  0.2583242952823639  0.23729489743709564  0.23809567093849182  1.0000
  Ho  Ho6       1.0  0.7618185877799988  0.9684566259384155  0.05314435064792639  1.0000
  O   O1        1.0  0.2474808692932129  0.59376060962677  0.9117753505706787  1.0000
  O   O2        1.0  0.744708240032196  0.7508753538131714  0.6746445894241333  1.0000
  Ta  Ta1       1.0  0.23309826850891113  0.7534521222114563  0.9791215658187866  1.0000
  Tb  Tb1       1.0  0.7652949690818787  0.4092184603214264  0.6896049976348877  1.0000
