data_image0
_chemical_formula_structural       Ho4O5Ta
_chemical_formula_sum              "Ho4 O5 Ta1"
_cell_length_a       3.506171825744345
_cell_length_b       5.821822642026752
_cell_length_c       7.959010124206543
_cell_angle_alpha    118.41200977822119
_cell_angle_beta     81.49337741831174
_cell_angle_gamma    90.06683636596152

_space_group_name_H-M_alt    "P 1"
_space_group_IT_number       1

loop_
  _space_group_symop_operation_xyz
  'x, y, z'

loop_
  _atom_site_type_symbol
  _atom_site_label
  _atom_site_symmetry_multiplicity
  _atom_site_fract_x
  _atom_site_fract_y
  _atom_site_fract_z
  _atom_site_occupancy
  Ho  Ho1       1.0  0.14313706755638123  0.7132039666175842  0.015480260364711255  1.0000
  Ho  Ho2       1.0  0.6335272789001465  0.0859067291021347  0.8292399048805237  1.0000
  Ho  Ho3       1.0  0.12422863394021988  0.018056169152259827  0.2514643967151642  1.0000
  Ho  Ho4       1.0  0.13483043015003204  0.25998902320861816  0.6169770956039429  1.0000
  O   O1        1.0  0.624666690826416  0.8920708298683167  0.6108104586601257  1.0000
  O   O2        1.0  0.6281091570854187  0.6126320958137512  0.2933817505836487  1.0000
  O   O3        1.0  0.13001365959644318  0.42863860726356506  0.584947943687439  1.0000
  O   O4        1.0  0.6287904381752014  0.2599891722202301  0.07952677458524704  1.0000
  O   O5        1.0  0.6261391639709473  0.5912386178970337  0.16296841204166412  1.0000
  Ta  Ta1       1.0  0.14716513454914093  0.5922819375991821  0.20922677218914032  1.0000
