data_image0
_chemical_formula_structural       BLa6LuSTl
_chemical_formula_sum              "B1 La6 Lu1 S1 Tl1"
_cell_length_a       5.757536082621122
_cell_length_b       6.8078801121585775
_cell_length_c       8.42251205444336
_cell_angle_alpha    111.97462323254514
_cell_angle_beta     114.1926477331382
_cell_angle_gamma    87.97279132355783

_space_group_name_H-M_alt    "P 1"
_space_group_IT_number       1

loop_
  _space_group_symop_operation_xyz
  'x, y, z'

loop_
  _atom_site_type_symbol
  _atom_site_label
  _atom_site_symmetry_multiplicity
  _atom_site_fract_x
  _atom_site_fract_y
  _atom_site_fract_z
  _atom_site_occupancy
  B   B1        1.0  0.1181352287530899  0.4935545027256012  0.4100383222103119  1.0000
  La  La1       1.0  0.4028686583042145  0.3016149401664734  0.9759061336517334  1.0000
  La  La2       1.0  0.5452979803085327  0.8115866184234619  0.7950628995895386  1.0000
  La  La3       1.0  0.7546265125274658  0.50813227891922  0.013328095898032188  1.0000
  La  La4       1.0  0.6797882318496704  0.30718910694122314  0.3586428761482239  1.0000
  La  La5       1.0  0.1213986948132515  0.5285966992378235  0.37336039543151855  1.0000
  La  La6       1.0  0.8743847608566284  0.8081938028335571  0.02864806354045868  1.0000
  Lu  Lu1       1.0  0.5016535520553589  0.869754433631897  0.5982682108879089  1.0000
  S   S1        1.0  0.1581657975912094  0.3072201907634735  0.9362661838531494  1.0000
  Tl  Tl1       1.0  0.09020671248435974  0.1647830307483673  0.6730972528457642  1.0000
