data_image0
_chemical_formula_structural       B2La5SSiTl
_chemical_formula_sum              "B2 La5 S1 Si1 Tl1"
_cell_length_a       6.086589876083122
_cell_length_b       6.763950666194015
_cell_length_c       7.813643932342529
_cell_angle_alpha    114.9304908325001
_cell_angle_beta     109.38013223418811
_cell_angle_gamma    88.57901831915801

_space_group_name_H-M_alt    "P 1"
_space_group_IT_number       1

loop_
  _space_group_symop_operation_xyz
  'x, y, z'

loop_
  _atom_site_type_symbol
  _atom_site_label
  _atom_site_symmetry_multiplicity
  _atom_site_fract_x
  _atom_site_fract_y
  _atom_site_fract_z
  _atom_site_occupancy
  B   B1        1.0  0.4209042489528656  0.07368893176317215  0.6668619513511658  1.0000
  B   B2        1.0  0.16150327026844025  0.5385957360267639  0.9315861463546753  1.0000
  La  La1       1.0  0.682372510433197  0.3411921560764313  0.6627210378646851  1.0000
  La  La2       1.0  0.17387272417545319  0.6176930665969849  0.4885355532169342  1.0000
  La  La3       1.0  0.0015782684786245227  0.3489585220813751  0.21491816639900208  1.0000
  La  La4       1.0  0.19885507225990295  0.8438752293586732  0.7497288584709167  1.0000
  La  La5       1.0  0.6657518148422241  0.5327813625335693  0.9709209203720093  1.0000
  S   S1        1.0  0.17942535877227783  0.8902675509452821  0.7182037830352783  1.0000
  Si  Si1       1.0  0.0050651500932872295  0.37421372532844543  0.2545348405838012  1.0000
  Tl  Tl1       1.0  0.7302601933479309  0.6651234030723572  0.41142794489860535  1.0000
