data_image0
_chemical_formula_structural       La7S2Si
_chemical_formula_sum              "La7 S2 Si1"
_cell_length_a       6.190768211983017
_cell_length_b       7.53095131713345
_cell_length_c       8.521689414978027
_cell_angle_alpha    117.3310539576971
_cell_angle_beta     110.16125123762912
_cell_angle_gamma    87.78180184739344

_space_group_name_H-M_alt    "P 1"
_space_group_IT_number       1

loop_
  _space_group_symop_operation_xyz
  'x, y, z'

loop_
  _atom_site_type_symbol
  _atom_site_label
  _atom_site_symmetry_multiplicity
  _atom_site_fract_x
  _atom_site_fract_y
  _atom_site_fract_z
  _atom_site_occupancy
  La  La1       1.0  0.7786726951599121  0.41347703337669367  0.1614769548177719  1.0000
  La  La2       1.0  0.13534675538539886  0.6846948862075805  0.9102733135223389  1.0000
  La  La3       1.0  0.1065022423863411  0.20869277417659757  0.5426951050758362  1.0000
  La  La4       1.0  0.990293025970459  0.7886930108070372  0.8073708415031433  1.0000
  La  La5       1.0  0.23292040824890137  0.38988408446311945  0.43671441078186035  1.0000
  La  La6       1.0  0.2275596559047699  0.04854935407638549  0.279591828584671  1.0000
  La  La7       1.0  0.6203781366348267  0.681051194667816  0.5063132047653198  1.0000
  S   S1        1.0  0.3612937331199646  0.542445182800293  0.07212724536657333  1.0000
  S   S2        1.0  0.6396507024765015  0.6998036503791808  0.9741355180740356  1.0000
  Si  Si1       1.0  0.31094199419021606  0.12935389578342438  0.35972219705581665  1.0000
