data_image0
_chemical_formula_structural       BCuLa7Pb
_chemical_formula_sum              "B1 Cu1 La7 Pb1"
_cell_length_a       5.367033447177869
_cell_length_b       5.672793183835945
_cell_length_c       11.348295211791992
_cell_angle_alpha    92.03924030116939
_cell_angle_beta     91.0993842165954
_cell_angle_gamma    117.23292232017745

_space_group_name_H-M_alt    "P 1"
_space_group_IT_number       1

loop_
  _space_group_symop_operation_xyz
  'x, y, z'

loop_
  _atom_site_type_symbol
  _atom_site_label
  _atom_site_symmetry_multiplicity
  _atom_site_fract_x
  _atom_site_fract_y
  _atom_site_fract_z
  _atom_site_occupancy
  B   B1        1.0  0.24757543206214905  0.5510692000389099  0.5147725343704224  1.0000
  Cu  Cu1       1.0  0.9104905724525452  0.6419605612754822  0.875226616859436  1.0000
  La  La1       1.0  0.4079841673374176  0.295057088136673  0.768112301826477  1.0000
  La  La2       1.0  0.8406690359115601  0.1568196564912796  0.09371648728847504  1.0000
  La  La3       1.0  0.39181625843048096  0.6480687856674194  0.7910829782485962  1.0000
  La  La4       1.0  0.8645964860916138  0.8036530613899231  0.18813098967075348  1.0000
  La  La5       1.0  0.23764018714427948  0.1385817676782608  0.22434651851654053  1.0000
  La  La6       1.0  0.8585105538368225  0.5867648124694824  0.29192090034484863  1.0000
  La  La7       1.0  0.8743510842323303  0.8852835893630981  0.013666607439517975  1.0000
  Pb  Pb1       1.0  0.3385438323020935  0.038768187165260315  0.23508907854557037  1.0000
