data_image0
_chemical_formula_structural       BLa7S2
_chemical_formula_sum              "B1 La7 S2"
_cell_length_a       6.592520532804206
_cell_length_b       7.297621868361901
_cell_length_c       9.348340034484863
_cell_angle_alpha    113.69692284257809
_cell_angle_beta     110.95010947225256
_cell_angle_gamma    88.78300964008669

_space_group_name_H-M_alt    "P 1"
_space_group_IT_number       1

loop_
  _space_group_symop_operation_xyz
  'x, y, z'

loop_
  _atom_site_type_symbol
  _atom_site_label
  _atom_site_symmetry_multiplicity
  _atom_site_fract_x
  _atom_site_fract_y
  _atom_site_fract_z
  _atom_site_occupancy
  B   B1        1.0  0.9161445498466492  0.6556246876716614  0.007000414654612541  1.0000
  La  La1       1.0  0.3397541642189026  0.9821203947067261  0.9263205528259277  1.0000
  La  La2       1.0  0.06002255529165268  0.171980619430542  0.32484230399131775  1.0000
  La  La3       1.0  0.7644945383071899  0.4024941027164459  0.38356703519821167  1.0000
  La  La4       1.0  0.5229799747467041  0.8777948021888733  0.4347817599773407  1.0000
  La  La5       1.0  0.6508171558380127  0.6294735074043274  0.6773689389228821  1.0000
  La  La6       1.0  0.9291177988052368  0.15674597024917603  0.8498985171318054  1.0000
  La  La7       1.0  0.9758931398391724  0.8093088865280151  0.7210603952407837  1.0000
  S   S1        1.0  0.6448712944984436  0.8389461040496826  0.7265511155128479  1.0000
  S   S2        1.0  0.8628700375556946  0.4946584105491638  0.9383476376533508  1.0000
