data_image0
_chemical_formula_structural       CuLa9
_chemical_formula_sum              "Cu1 La9"
_cell_length_a       5.443307067674638
_cell_length_b       5.899509792561802
_cell_length_c       11.699612617492676
_cell_angle_alpha    92.22507360792231
_cell_angle_beta     92.84048087392283
_cell_angle_gamma    116.10596673928157

_space_group_name_H-M_alt    "P 1"
_space_group_IT_number       1

loop_
  _space_group_symop_operation_xyz
  'x, y, z'

loop_
  _atom_site_type_symbol
  _atom_site_label
  _atom_site_symmetry_multiplicity
  _atom_site_fract_x
  _atom_site_fract_y
  _atom_site_fract_z
  _atom_site_occupancy
  Cu  Cu1       1.0  0.8551713228225708  0.996395707130432  0.6339759230613708  1.0000
  La  La1       1.0  0.6891598701477051  0.4938534200191497  0.0022253701463341713  1.0000
  La  La2       1.0  0.3620027601718902  0.9923868179321288  0.9786317944526672  1.0000
  La  La3       1.0  0.39820051193237305  0.14067496359348297  0.09578500688076019  1.0000
  La  La4       1.0  0.1662563234567642  0.4915760457515716  0.3387628197669983  1.0000
  La  La5       1.0  0.12713684141635892  0.477892518043518  0.968513011932373  1.0000
  La  La6       1.0  0.4157821834087371  0.9934470653533934  0.507698655128479  1.0000
  La  La7       1.0  0.8629365563392639  0.991596221923828  0.6028473377227783  1.0000
  La  La8       1.0  0.8800802826881409  0.15773776173591614  0.2991037964820862  1.0000
  La  La9       1.0  0.4111369550228119  0.6178309917449951  0.1453624963760376  1.0000
