data_image0
_chemical_formula_structural       CaFIO3PbTbZn2
_chemical_formula_sum              "Ca1 F1 I1 O3 Pb1 Tb1 Zn2"
_cell_length_a       4.912367582865282
_cell_length_b       4.036729841119807
_cell_length_c       6.158947944641113
_cell_angle_alpha    111.97524869931677
_cell_angle_beta     107.86665602038215
_cell_angle_gamma    129.1707035590742

_space_group_name_H-M_alt    "P 1"
_space_group_IT_number       1

loop_
  _space_group_symop_operation_xyz
  'x, y, z'

loop_
  _atom_site_type_symbol
  _atom_site_label
  _atom_site_symmetry_multiplicity
  _atom_site_fract_x
  _atom_site_fract_y
  _atom_site_fract_z
  _atom_site_occupancy
  Ca  Ca1       1.0  0.6905273795127868  0.13432332873344396  0.9789326786994933  1.0000
  F   F1        1.0  0.45612895488739014  0.25046271085739136  0.0805080235004425  1.0000
  I   I1        1.0  0.6943423151969909  0.7258923649787902  0.4481759369373321  1.0000
  O   O1        1.0  0.19067217409610787  0.5066555142402654  0.9095749855041506  1.0000
  O   O2        1.0  0.8242024779319764  0.18812888860702529  0.4015935361385346  1.0000
  O   O3        1.0  0.5224491357803345  0.4909777939319611  0.7350228428840637  1.0000
  Pb  Pb1       1.0  0.03964557498693476  0.8657591342926027  0.35830098390579224  1.0000
  Tb  Tb1       1.0  0.18036878108978283  0.5774147510528566  0.9316853880882263  1.0000
  Zn  Zn1       1.0  0.19402982294559498  0.6488070487976076  0.4415125250816346  1.0000
  Zn  Zn2       1.0  0.6735953092575073  0.6073517799377441  0.26966696977615356  1.0000
