data_image0
_chemical_formula_structural       FGeIO3PTiZn2
_chemical_formula_sum              "F1 Ge1 I1 O3 P1 Ti1 Zn2"
_cell_length_a       4.941032783322088
_cell_length_b       5.05361079471642
_cell_length_c       9.326345443725586
_cell_angle_alpha    112.0312601224555
_cell_angle_beta     88.59805689031613
_cell_angle_gamma    89.33959039914288

_space_group_name_H-M_alt    "P 1"
_space_group_IT_number       1

loop_
  _space_group_symop_operation_xyz
  'x, y, z'

loop_
  _atom_site_type_symbol
  _atom_site_label
  _atom_site_symmetry_multiplicity
  _atom_site_fract_x
  _atom_site_fract_y
  _atom_site_fract_z
  _atom_site_occupancy
  F   F1        1.0  0.62625652551651  0.7176784873008728  0.5343000888824463  1.0000
  Ge  Ge1       1.0  0.12781012058258057  0.4809916913509369  0.690487265586853  1.0000
  I   I1        1.0  0.12894001603126526  0.7651821374893188  0.08433160185813904  1.0000
  O   O1        1.0  0.1436333954334259  0.8376904726028442  0.46240395307540894  1.0000
  O   O2        1.0  0.6574168801307678  0.1929899901151657  0.08952543139457703  1.0000
  O   O3        1.0  0.14546167850494385  0.9480665922164917  0.4217367172241211  1.0000
  P   P1        1.0  0.6265061497688293  0.5079386830329895  0.19466771185398102  1.0000
  Ti  Ti1       1.0  0.13214409351348877  0.7855398654937744  0.5691599249839783  1.0000
  Zn  Zn1       1.0  0.6306450366973877  0.5737642049789429  0.5196415185928345  1.0000
  Zn  Zn2       1.0  0.6358246803283691  0.2334379404783249  0.7432666420936584  1.0000
