data_image0
_chemical_formula_structural       Ca8O2
_chemical_formula_sum              "Ca8 O2"
_cell_length_a       4.414110174726723
_cell_length_b       4.51719063137213
_cell_length_c       8.776813507080078
_cell_angle_alpha    121.19774239364065
_cell_angle_beta     108.78520547264652
_cell_angle_gamma    77.76307481349833

_space_group_name_H-M_alt    "P 1"
_space_group_IT_number       1

loop_
  _space_group_symop_operation_xyz
  'x, y, z'

loop_
  _atom_site_type_symbol
  _atom_site_label
  _atom_site_symmetry_multiplicity
  _atom_site_fract_x
  _atom_site_fract_y
  _atom_site_fract_z
  _atom_site_occupancy
  Ca  Ca1       1.0  0.7240339517593384  0.8758211731910706  0.5228525996208191  1.0000
  Ca  Ca2       1.0  0.24505655467510223  0.12859134376049042  0.7628512978553772  1.0000
  Ca  Ca3       1.0  0.2422933131456375  0.9031116366386414  0.03139287978410721  1.0000
  Ca  Ca4       1.0  0.7323209047317505  0.4617535173892975  0.7822033762931824  1.0000
  Ca  Ca5       1.0  0.7396093010902405  0.9232054352760315  0.6865823268890381  1.0000
  Ca  Ca6       1.0  0.2415592223405838  0.6496451497077942  0.7315148711204529  1.0000
  Ca  Ca7       1.0  0.2272302657365799  0.15745694935321808  0.48976683616638184  1.0000
  Ca  Ca8       1.0  0.7398577332496643  0.39327922463417053  0.2613059878349304  1.0000
  O   O1        1.0  0.9240070581436157  0.7627895474433899  0.04286287724971771  1.0000
  O   O2        1.0  0.0675106942653656  0.5078447461128235  0.26538708806037903  1.0000
