data_image0
_chemical_formula_structural       Ca5O4Zn
_chemical_formula_sum              "Ca5 O4 Zn1"
_cell_length_a       5.521314191234833
_cell_length_b       5.34888650180086
_cell_length_c       9.87627124786377
_cell_angle_alpha    103.19433688147967
_cell_angle_beta     89.90747217135839
_cell_angle_gamma    86.31826919416699

_space_group_name_H-M_alt    "P 1"
_space_group_IT_number       1

loop_
  _space_group_symop_operation_xyz
  'x, y, z'

loop_
  _atom_site_type_symbol
  _atom_site_label
  _atom_site_symmetry_multiplicity
  _atom_site_fract_x
  _atom_site_fract_y
  _atom_site_fract_z
  _atom_site_occupancy
  Ca  Ca1       1.0  0.01090345997363329  0.026929887011647224  0.22624561190605164  1.0000
  Ca  Ca2       1.0  0.00638261204585433  0.25448015332221985  0.3044589161872863  1.0000
  Ca  Ca3       1.0  0.5188702940940857  0.3093821108341217  0.7999523282051086  1.0000
  Ca  Ca4       1.0  0.006671086419373751  0.15964755415916443  0.7803424000740051  1.0000
  Ca  Ca5       1.0  0.2837858200073242  0.4586816728115082  0.5948006510734558  1.0000
  O   O1        1.0  0.4973779022693634  0.3868301510810852  0.05502012372016907  1.0000
  O   O2        1.0  0.49838343262672424  0.38294434547424316  0.8076313734054565  1.0000
  O   O3        1.0  0.7678784728050232  0.9931882619857788  0.4332861304283142  1.0000
  O   O4        1.0  0.004321083892136812  0.9233027100563049  0.9600943326950073  1.0000
  Zn  Zn1       1.0  0.5046181082725525  0.7095916271209717  0.505634069442749  1.0000
