data_image0
_chemical_formula_structural       Ca6MnO3
_chemical_formula_sum              "Ca6 Mn1 O3"
_cell_length_a       3.720208409225308
_cell_length_b       2.337872648609548
_cell_length_c       5.794098854064941
_cell_angle_alpha    147.93653962172442
_cell_angle_beta     109.22967144769737
_cell_angle_gamma    102.59875731739261

_space_group_name_H-M_alt    "P 1"
_space_group_IT_number       1

loop_
  _space_group_symop_operation_xyz
  'x, y, z'

loop_
  _atom_site_type_symbol
  _atom_site_label
  _atom_site_symmetry_multiplicity
  _atom_site_fract_x
  _atom_site_fract_y
  _atom_site_fract_z
  _atom_site_occupancy
  Ca  Ca1       1.0  0.8564726710319519  0.1261411160230637  0.2554345428943634  1.0000
  Ca  Ca2       1.0  0.4186110198497772  0.4488623440265656  0.5474770665168762  1.0000
  Ca  Ca3       1.0  0.8605729937553406  0.978048801422119  0.5097694396972655  1.0000
  Ca  Ca4       1.0  0.8774359822273254  0.8956897854804992  0.43121963739395136  1.0000
  Ca  Ca5       1.0  0.37318614125251764  0.969973862171173  0.4928136765956878  1.0000
  Ca  Ca6       1.0  0.11271250993013375  0.8930553793907163  0.4253049492835998  1.0000
  Mn  Mn1       1.0  0.39218980073928833  0.607233762741089  0.7653037309646606  1.0000
  O   O1        1.0  0.561498999595642  0.4117289483547209  0.9185433983802794  1.0000
  O   O2        1.0  0.9937965869903564  0.45888975262641907  0.7972681522369385  1.0000
  O   O3        1.0  0.9181525111198425  0.3065079450607299  0.06408797204494476  1.0000
