data_image0
_chemical_formula_structural       CaILiO3PPbZn2
_chemical_formula_sum              "Ca1 I1 Li1 O3 P1 Pb1 Zn2"
_cell_length_a       5.950218838192293
_cell_length_b       5.747430474732119
_cell_length_c       6.4482808113098145
_cell_angle_alpha    108.47493039886946
_cell_angle_beta     100.35354709980169
_cell_angle_gamma    116.69761366487401

_space_group_name_H-M_alt    "P 1"
_space_group_IT_number       1

loop_
  _space_group_symop_operation_xyz
  'x, y, z'

loop_
  _atom_site_type_symbol
  _atom_site_label
  _atom_site_symmetry_multiplicity
  _atom_site_fract_x
  _atom_site_fract_y
  _atom_site_fract_z
  _atom_site_occupancy
  Ca  Ca1       1.0  0.6725477576255798  0.15233437716960907  0.9681290984153746  1.0000
  I   I1        1.0  0.19431573152542114  0.6409649848937988  0.8309536576271056  1.0000
  Li  Li1       1.0  0.42926198244094854  0.2942153811454773  0.36710733175277704  1.0000
  O   O1        1.0  0.8306131958961488  0.7213358879089355  0.29136747121810913  1.0000
  O   O2        1.0  0.42876952886581426  0.5061007738113403  0.85415780544281  1.0000
  O   O3        1.0  0.4331700205802918  0.867761492729187  0.759584069252014  1.0000
  P   P1        1.0  0.1455354541540146  0.23121269047260284  0.8226148486137389  1.0000
  Pb  Pb1       1.0  0.13097043335437775  0.7016028165817261  0.2674078345298767  1.0000
  Zn  Zn1       1.0  0.8963353037834169  0.4653916358947754  0.8136824369430541  1.0000
  Zn  Zn2       1.0  0.41039311885833746  0.1489046812057495  0.6071683764457703  1.0000
