data_image0
_chemical_formula_structural       F2Lu2O9RbUZr
_chemical_formula_sum              "F2 Lu2 O9 Rb1 U1 Zr1"
_cell_length_a       7.2721323178404145
_cell_length_b       7.067144734216596
_cell_length_c       7.079856872558594
_cell_angle_alpha    61.609458359783304
_cell_angle_beta     60.76669543839633
_cell_angle_gamma    60.31047127781983

_space_group_name_H-M_alt    "P 1"
_space_group_IT_number       1

loop_
  _space_group_symop_operation_xyz
  'x, y, z'

loop_
  _atom_site_type_symbol
  _atom_site_label
  _atom_site_symmetry_multiplicity
  _atom_site_fract_x
  _atom_site_fract_y
  _atom_site_fract_z
  _atom_site_occupancy
  F   F1        1.0  0.5671930313110352  0.10410767793655396  0.1915984302759171  1.0000
  F   F2        1.0  0.40962594747543335  0.0017264275811612606  0.2368047833442688  1.0000
  Lu  Lu1       1.0  0.529566764831543  0.3478502631187439  0.6975665092468262  1.0000
  Lu  Lu2       1.0  0.9393022656440734  0.6529802680015564  0.27509021759033203  1.0000
  O   O1        1.0  0.7562704682350159  0.8620280623435974  0.22600413858890533  1.0000
  O   O2        1.0  0.6320518255233765  0.393211305141449  0.818330705165863  1.0000
  O   O3        1.0  0.14333342015743256  0.8259543180465698  0.8305560946464539  1.0000
  O   O4        1.0  0.2606406807899475  0.9649651050567627  0.25670474767684937  1.0000
  O   O5        1.0  0.4096624553203583  0.35038653016090393  0.6529929041862488  1.0000
  O   O6        1.0  0.30321210622787476  0.8725899457931519  0.9561968445777893  1.0000
  O   O7        1.0  0.8911283016204833  0.00374916335567832  0.8569046258926393  1.0000
  O   O8        1.0  0.5553455352783203  0.6207953691482544  0.6549986600875854  1.0000
  O   O9        1.0  0.878583788871765  0.44516655802726746  0.1955901235342027  1.0000
  Rb  Rb1       1.0  0.9494326710700988  0.9662451148033142  0.4832932651042938  1.0000
  U   U1        1.0  0.9277366995811461  0.3302340805530548  0.7057232260704042  1.0000
  Zr  Zr1       1.0  0.9461802840232848  0.3492658734321594  0.42671066522598267  1.0000
