data_image0
_chemical_formula_structural       F2O10Rb2Zr2
_chemical_formula_sum              "F2 O10 Rb2 Zr2"
_cell_length_a       6.88058705649884
_cell_length_b       6.9072443508057395
_cell_length_c       6.923919677734375
_cell_angle_alpha    62.808135350419334
_cell_angle_beta     63.10146965876842
_cell_angle_gamma    63.68731109819325

_space_group_name_H-M_alt    "P 1"
_space_group_IT_number       1

loop_
  _space_group_symop_operation_xyz
  'x, y, z'

loop_
  _atom_site_type_symbol
  _atom_site_label
  _atom_site_symmetry_multiplicity
  _atom_site_fract_x
  _atom_site_fract_y
  _atom_site_fract_z
  _atom_site_occupancy
  F   F1        1.0  0.9653156995773315  0.4389242827892304  0.3284529149532318  1.0000
  F   F2        1.0  0.4619392454624176  0.49506443738937383  0.8414195775985718  1.0000
  O   O1        1.0  0.14357756078243256  0.07437754422426224  0.20054957270622253  1.0000
  O   O2        1.0  0.16151420772075653  0.18039605021476746  0.6708294749259949  1.0000
  O   O3        1.0  0.32441359758377075  0.765190601348877  0.2801407277584076  1.0000
  O   O4        1.0  0.6618310809135437  0.8221015930175782  0.8890514373779297  1.0000
  O   O5        1.0  0.1643322557210922  0.9514198899269105  0.857026696205139  1.0000
  O   O6        1.0  0.6666649580001831  0.9823236465454103  0.12920832633972168  1.0000
  O   O7        1.0  0.622077226638794  0.8281565904617311  0.8604847192764282  1.0000
  O   O8        1.0  0.6379324197769165  0.42332583665847784  0.8052771687507629  1.0000
  O   O9        1.0  0.6584393978118896  0.4481217563152314  0.3934665024280548  1.0000
  O   O10       1.0  0.15577639639377594  0.5193489193916321  0.4129091501235962  1.0000
  Rb  Rb1       1.0  0.014208017848432028  0.8274385333061219  0.4634990096092224  1.0000
  Rb  Rb2       1.0  0.4899849593639374  0.9677959084510804  0.03526908904314041  1.0000
  Zr  Zr1       1.0  0.5063202977180481  0.3254539668560028  0.5141592025756836  1.0000
  Zr  Zr2       1.0  0.22656042873859406  0.7480837106704712  0.9501053690910339  1.0000
