data_image0
_chemical_formula_structural       B2F3O8UZr2
_chemical_formula_sum              "B2 F3 O8 U1 Zr2"
_cell_length_a       6.52034589158473
_cell_length_b       6.891893792890934
_cell_length_c       7.360648155212402
_cell_angle_alpha    65.3588248242863
_cell_angle_beta     65.05853578732433
_cell_angle_gamma    63.64338742686892

_space_group_name_H-M_alt    "P 1"
_space_group_IT_number       1

loop_
  _space_group_symop_operation_xyz
  'x, y, z'

loop_
  _atom_site_type_symbol
  _atom_site_label
  _atom_site_symmetry_multiplicity
  _atom_site_fract_x
  _atom_site_fract_y
  _atom_site_fract_z
  _atom_site_occupancy
  B   B1        1.0  0.9398592710494995  0.3167160749435425  0.8281207084655761  1.0000
  B   B2        1.0  0.6785982251167297  0.6770678162574768  0.5043599009513855  1.0000
  F   F1        1.0  0.15821991860866547  0.68198162317276  0.5064520835876465  1.0000
  F   F2        1.0  0.6840248703956604  0.9674696326255798  0.5126340389251709  1.0000
  F   F3        1.0  0.703563928604126  0.5881653428077698  0.22764523327350614  1.0000
  O   O1        1.0  0.004640227183699608  0.5511587262153625  0.8219462633132933  1.0000
  O   O2        1.0  0.44686418771743774  0.620496392250061  0.14837047457695007  1.0000
  O   O3        1.0  0.5230311751365662  0.9327847361564636  0.8290508985519408  1.0000
  O   O4        1.0  0.026037948206067085  0.8842342495918274  0.2964359223842621  1.0000
  O   O5        1.0  0.8837808966636658  0.125420480966568  0.5235087871551514  1.0000
  O   O6        1.0  0.7613463401794434  0.39825505018234253  0.15896394848823547  1.0000
  O   O7        1.0  0.22475215792655945  0.6119518876075745  0.31922587752342224  1.0000
  O   O8        1.0  0.1482248604297638  0.7971676588058472  0.6698892712593079  1.0000
  U   U1        1.0  0.14769232273101807  0.44848471879959106  0.5038155317306519  1.0000
  Zr  Zr1       1.0  0.6871817708015442  0.9275040030479431  0.6934855580329895  1.0000
  Zr  Zr2       1.0  0.15080076456069946  0.4523736238479614  0.11196603626012801  1.0000
