data_image0
_chemical_formula_structural       Au2F4O7Rb2U
_chemical_formula_sum              "Au2 F4 O7 Rb2 U1"
_cell_length_a       6.325811670886709
_cell_length_b       7.015079840455065
_cell_length_c       6.876365661621094
_cell_angle_alpha    105.87385102755891
_cell_angle_beta     97.76829406210908
_cell_angle_gamma    115.80433847242801

_space_group_name_H-M_alt    "P 1"
_space_group_IT_number       1

loop_
  _space_group_symop_operation_xyz
  'x, y, z'

loop_
  _atom_site_type_symbol
  _atom_site_label
  _atom_site_symmetry_multiplicity
  _atom_site_fract_x
  _atom_site_fract_y
  _atom_site_fract_z
  _atom_site_occupancy
  Au  Au1       1.0  0.2779105305671692  0.6388110518455505  0.9264366030693054  1.0000
  Au  Au2       1.0  0.2700643539428711  0.4598952531814575  0.02922234497964382  1.0000
  F   F1        1.0  0.027739821001887318  0.2998288869857788  0.5047808289527893  1.0000
  F   F2        1.0  0.7937910556793212  0.24060392379760742  0.9051156640052795  1.0000
  F   F3        1.0  0.7800235152244568  0.38178548216819763  0.6697636246681213  1.0000
  F   F4        1.0  0.025210766121745106  0.8779579401016235  0.6665180921554565  1.0000
  O   O1        1.0  0.2693134844303131  0.1809341460466385  0.14708812534809113  1.0000
  O   O2        1.0  0.2737727165222168  0.15779522061347961  0.020832804962992668  1.0000
  O   O3        1.0  0.783434271812439  0.11264316737651825  0.43862664699554443  1.0000
  O   O4        1.0  0.7370807528495789  0.661712646484375  0.529671847820282  1.0000
  O   O5        1.0  0.7907636165618895  0.71950364112854  0.6448007225990295  1.0000
  O   O6        1.0  0.014643055386841295  0.2905210852622986  0.016760876402258873  1.0000
  O   O7        1.0  0.06325666606426239  0.3665691614151001  0.7238178849220276  1.0000
  Rb  Rb1       1.0  0.5340649485588074  0.6510490775108337  0.15057241916656494  1.0000
  Rb  Rb2       1.0  0.5512635707855225  0.9884787201881409  0.9881834387779236  1.0000
  U   U1        1.0  0.29632970690727234  0.691648006439209  0.4320683181285858  1.0000
