data_image0
_chemical_formula_structural       BF5O9U
_chemical_formula_sum              "B1 F5 O9 U1"
_cell_length_a       7.114149419708103
_cell_length_b       6.804123229512867
_cell_length_c       6.8108906745910645
_cell_angle_alpha    59.91631449993861
_cell_angle_beta     60.25530852280397
_cell_angle_gamma    59.30970134582949

_space_group_name_H-M_alt    "P 1"
_space_group_IT_number       1

loop_
  _space_group_symop_operation_xyz
  'x, y, z'

loop_
  _atom_site_type_symbol
  _atom_site_label
  _atom_site_symmetry_multiplicity
  _atom_site_fract_x
  _atom_site_fract_y
  _atom_site_fract_z
  _atom_site_occupancy
  B   B1        1.0  0.8604798316955565  0.17842866480350494  0.8677765727043152  1.0000
  F   F1        1.0  0.21645015478134152  0.3011273443698883  0.3058270215988159  1.0000
  F   F2        1.0  0.7016357779502869  0.5512435436248779  0.5520120859146118  1.0000
  F   F3        1.0  0.4896495342254638  0.8423022627830505  0.62140953540802  1.0000
  F   F4        1.0  0.27988481521606445  0.8775780200958252  0.9824284911155701  1.0000
  F   F5        1.0  0.996702492237091  0.05062110349535942  0.10590548813343048  1.0000
  O   O1        1.0  0.09797602891921997  0.16890324652194977  0.48255661129951477  1.0000
  O   O2        1.0  0.45597380399703974  0.8399807214736938  0.47324809432029724  1.0000
  O   O3        1.0  0.2076401561498642  0.8226325511932373  0.9654991626739502  1.0000
  O   O4        1.0  0.1075814664363861  0.4145152270793915  0.011017194017767906  1.0000
  O   O5        1.0  0.49333000183105463  0.3452020287513733  0.32002440094947815  1.0000
  O   O6        1.0  0.6047310829162598  0.8660858273506165  0.09146665781736374  1.0000
  O   O7        1.0  0.9984566569328307  0.8531812429428101  0.043053776025772095  1.0000
  O   O8        1.0  0.693338930606842  0.6567713022232056  0.5201860070228577  1.0000
  O   O9        1.0  0.4625826179981231  0.5553440451622009  0.5615952014923096  1.0000
  U   U1        1.0  0.6925243139266968  0.546065628528595  0.00885707233101123  1.0000
