data_image0
_chemical_formula_structural       Au3BF5O5Pt2
_chemical_formula_sum              "Au3 B1 F5 O5 Pt2"
_cell_length_a       5.849952048839732
_cell_length_b       5.9459730808500595
_cell_length_c       7.074488162994385
_cell_angle_alpha    99.17745352781365
_cell_angle_beta     93.4381699392417
_cell_angle_gamma    117.19104766564621

_space_group_name_H-M_alt    "P 1"
_space_group_IT_number       1

loop_
  _space_group_symop_operation_xyz
  'x, y, z'

loop_
  _atom_site_type_symbol
  _atom_site_label
  _atom_site_symmetry_multiplicity
  _atom_site_fract_x
  _atom_site_fract_y
  _atom_site_fract_z
  _atom_site_occupancy
  Au  Au1       1.0  0.16636477410793304  0.18091586232185364  0.2916865944862366  1.0000
  Au  Au2       1.0  0.6636959910392761  0.5044612884521484  0.02731564082205297  1.0000
  Au  Au3       1.0  0.43258374929428106  0.9004937410354615  0.30956724286079407  1.0000
  B   B1        1.0  0.4552465081214905  0.5034932494163513  0.2783457338809967  1.0000
  F   F1        1.0  0.4750544726848603  0.9137443304061891  0.7863420248031616  1.0000
  F   F2        1.0  0.1603257805109024  0.5582544803619385  0.5673806667327881  1.0000
  F   F3        1.0  0.5486575365066528  0.8152424693107605  0.952353298664093  1.0000
  F   F4        1.0  0.17460326850414276  0.7388132214546204  0.2800178527832031  1.0000
  F   F5        1.0  0.15446580946445465  0.5659762620925903  0.03931020200252534  1.0000
  O   O1        1.0  0.8461007475852966  0.8903369307518006  0.0743168294429779  1.0000
  O   O2        1.0  0.9733955860137938  0.6232455372810364  0.9257616996765137  1.0000
  O   O3        1.0  0.20565102994441986  0.6047097444534302  0.07852639257907869  1.0000
  O   O4        1.0  0.9942274689674376  0.8909378647804261  0.22120967507362368  1.0000
  O   O5        1.0  0.7453450560569763  0.6400576233863831  0.30158254504203796  1.0000
  Pt  Pt1       1.0  0.45425090193748474  0.22378109395504  0.5799039602279663  1.0000
  Pt  Pt2       1.0  0.7222980260848999  0.15524612367153168  0.10509043186903  1.0000
