data_image0
_chemical_formula_structural       AlCoGaHNiTb6
_chemical_formula_sum              "Al1 Co1 Ga1 H1 Ni1 Tb6"
_cell_length_a       4.832300563768102
_cell_length_b       5.291103460184524
_cell_length_c       5.934678077697754
_cell_angle_alpha    64.39910802924838
_cell_angle_beta     65.64170940129682
_cell_angle_gamma    61.41155399623523

_space_group_name_H-M_alt    "P 1"
_space_group_IT_number       1

loop_
  _space_group_symop_operation_xyz
  'x, y, z'

loop_
  _atom_site_type_symbol
  _atom_site_label
  _atom_site_symmetry_multiplicity
  _atom_site_fract_x
  _atom_site_fract_y
  _atom_site_fract_z
  _atom_site_occupancy
  Al  Al1       1.0  0.3949623703956604  0.653311550617218  0.16860078275203705  1.0000
  Co  Co1       1.0  0.25381964445114136  0.9828647375106812  0.24081976711750033  1.0000
  Ga  Ga1       1.0  0.6065802574157715  0.45654743909835815  0.506641149520874  1.0000
  H   H1        1.0  0.7804712057113647  0.9837338328361511  0.7161497473716736  1.0000
  Ni  Ni1       1.0  0.5226791501045227  0.4014017581939697  0.7418760061264038  1.0000
  Tb  Tb1       1.0  0.26649928092956543  0.9829461574554443  0.732352614402771  1.0000
  Tb  Tb2       1.0  0.4534289240837097  0.7043938040733337  0.9471609592437745  1.0000
  Tb  Tb3       1.0  0.8080993294715881  0.3816756308078766  0.9572301506996156  1.0000
  Tb  Tb4       1.0  0.8091411590576172  0.7045342922210693  0.6408033967018127  1.0000
  Tb  Tb5       1.0  0.8146182298660278  0.9640904068946838  0.9802559018135072  1.0000
  Tb  Tb6       1.0  0.35924819111824036  0.8104620575904846  0.23960363864898684  1.0000
