data_image0
_chemical_formula_structural       CoGaHNiSc2Tb5
_chemical_formula_sum              "Co1 Ga1 H1 Ni1 Sc2 Tb5"
_cell_length_a       5.382913200828772
_cell_length_b       5.5987055645017865
_cell_length_c       6.46340274810791
_cell_angle_alpha    64.93586565234281
_cell_angle_beta     61.99918409095963
_cell_angle_gamma    65.65394443394072

_space_group_name_H-M_alt    "P 1"
_space_group_IT_number       1

loop_
  _space_group_symop_operation_xyz
  'x, y, z'

loop_
  _atom_site_type_symbol
  _atom_site_label
  _atom_site_symmetry_multiplicity
  _atom_site_fract_x
  _atom_site_fract_y
  _atom_site_fract_z
  _atom_site_occupancy
  Co  Co1       1.0  0.3031039535999298  0.012974031269550323  0.26594671607017517  1.0000
  Ga  Ga1       1.0  0.9317106604576111  0.20068217813968658  0.2333274930715561  1.0000
  H   H1        1.0  0.5724002718925476  0.23513033986091614  0.22192688286304474  1.0000
  Ni  Ni1       1.0  0.7135105729103088  0.21528160572052002  0.4176705479621887  1.0000
  Sc  Sc1       1.0  0.6942551732063293  0.4660704731941223  0.03846926614642143  1.0000
  Sc  Sc2       1.0  0.6611437797546387  0.9340828657150269  0.5209954977035522  1.0000
  Tb  Tb1       1.0  0.28110477328300476  0.24120402336120605  0.7596281170845032  1.0000
  Tb  Tb2       1.0  0.6492515206336975  0.6802528500556946  0.11799781024456024  1.0000
  Tb  Tb3       1.0  0.9534900784492493  0.5763466954231262  0.4409835934638977  1.0000
  Tb  Tb4       1.0  0.30569902062416077  0.524030864238739  0.9334664940834045  1.0000
  Tb  Tb5       1.0  0.9439763426780701  0.5795021057128906  0.7136833071708679  1.0000
