data_image0
_chemical_formula_structural       Ga2HoNi2Tb6
_chemical_formula_sum              "Ga2 Ho1 Ni2 Tb6"
_cell_length_a       5.328415598071607
_cell_length_b       6.305614428995297
_cell_length_c       6.738811016082764
_cell_angle_alpha    66.98427678030298
_cell_angle_beta     65.37586267398275
_cell_angle_gamma    62.63569250965868

_space_group_name_H-M_alt    "P 1"
_space_group_IT_number       1

loop_
  _space_group_symop_operation_xyz
  'x, y, z'

loop_
  _atom_site_type_symbol
  _atom_site_label
  _atom_site_symmetry_multiplicity
  _atom_site_fract_x
  _atom_site_fract_y
  _atom_site_fract_z
  _atom_site_occupancy
  Ga  Ga1       1.0  0.7632319927215576  0.723965048789978  0.7198132276535033  1.0000
  Ga  Ga2       1.0  0.9460028409957886  0.44199660420417786  0.36351183056831354  1.0000
  Ho  Ho1       1.0  0.9534667730331421  0.9347291588783264  0.8584035634994506  1.0000
  Ni  Ni1       1.0  0.30364057421684265  0.47119438648223877  0.885439097881317  1.0000
  Ni  Ni2       1.0  0.7359201908111572  0.2108476459980011  0.8476085662841796  1.0000
  Tb  Tb1       1.0  0.7792612910270691  0.5322657227516174  0.077426441013813  1.0000
  Tb  Tb2       1.0  0.2736310064792633  0.028485335409641266  0.059954587370157235  1.0000
  Tb  Tb3       1.0  0.2665933668613434  0.7235622406005859  0.23727880418300626  1.0000
  Tb  Tb4       1.0  0.7743808031082153  0.1935226023197174  0.5736200213432312  1.0000
  Tb  Tb5       1.0  0.2736372947692871  0.22715461254119873  0.5533300638198853  1.0000
  Tb  Tb6       1.0  0.2842791676521301  0.7762663960456848  0.3528284132480621  1.0000
