data_image0
_chemical_formula_structural       CoGa2Ni4Tb4
_chemical_formula_sum              "Co1 Ga2 Ni4 Tb4"
_cell_length_a       4.669951810153995
_cell_length_b       3.275286358369224
_cell_length_c       7.673446178436279
_cell_angle_alpha    122.44037342948316
_cell_angle_beta     106.27114599454589
_cell_angle_gamma    82.1195177557475

_space_group_name_H-M_alt    "P 1"
_space_group_IT_number       1

loop_
  _space_group_symop_operation_xyz
  'x, y, z'

loop_
  _atom_site_type_symbol
  _atom_site_label
  _atom_site_symmetry_multiplicity
  _atom_site_fract_x
  _atom_site_fract_y
  _atom_site_fract_z
  _atom_site_occupancy
  Co  Co1       1.0  0.986920177936554  0.5560290217399597  0.3299183249473572  1.0000
  Ga  Ga1       1.0  0.5736272931098938  0.8260295987129211  0.10534536838531494  1.0000
  Ga  Ga2       1.0  0.980136513710022  0.17497049272060394  0.3218843936920166  1.0000
  Ni  Ni1       1.0  0.34702831506729126  0.18869276344776154  0.9009668827056885  1.0000
  Ni  Ni2       1.0  0.8400987982749939  0.18896089494228363  0.6501950621604919  1.0000
  Ni  Ni3       1.0  0.25474098324775696  0.8843129873275757  0.1583888679742813  1.0000
  Ni  Ni4       1.0  0.6811795234680176  0.4626847505569458  0.09649910777807236  1.0000
  Tb  Tb1       1.0  0.5627708435058594  0.3238491714000702  0.587138831615448  1.0000
  Tb  Tb2       1.0  0.3849547803401947  0.5447244048118591  0.8781851530075073  1.0000
  Tb  Tb3       1.0  0.03786105290055275  0.8598446249961853  0.17046913504600528  1.0000
  Tb  Tb4       1.0  0.06988251954317093  0.8179453015327454  0.11315480619668963  1.0000
