data_image0
_chemical_formula_structural       CoGaNi2Tb7
_chemical_formula_sum              "Co1 Ga1 Ni2 Tb7"
_cell_length_a       5.2598522192028945
_cell_length_b       6.334576445050871
_cell_length_c       7.627112865447998
_cell_angle_alpha    112.36777147635452
_cell_angle_beta     84.58369148533225
_cell_angle_gamma    111.17967304354664

_space_group_name_H-M_alt    "P 1"
_space_group_IT_number       1

loop_
  _space_group_symop_operation_xyz
  'x, y, z'

loop_
  _atom_site_type_symbol
  _atom_site_label
  _atom_site_symmetry_multiplicity
  _atom_site_fract_x
  _atom_site_fract_y
  _atom_site_fract_z
  _atom_site_occupancy
  Co  Co1       1.0  0.25122910737991333  0.30553534626960754  0.25967755913734436  1.0000
  Ga  Ga1       1.0  0.8580193519592285  0.8696773648262024  0.06920282542705536  1.0000
  Ni  Ni1       1.0  0.5031927227973938  0.11723405122756958  0.19458964467048645  1.0000
  Ni  Ni2       1.0  0.3079373836517334  0.8230013847351074  0.5566402673721313  1.0000
  Tb  Tb1       1.0  0.49943652749061584  0.5051838159561157  0.009694323875010014  1.0000
  Tb  Tb2       1.0  0.7502234578132629  0.8202458024024963  0.6936862468719482  1.0000
  Tb  Tb3       1.0  0.7504045367240906  0.31520068645477295  0.7028939723968506  1.0000
  Tb  Tb4       1.0  0.7592552304267883  0.32278111577033997  0.9068899750709533  1.0000
  Tb  Tb5       1.0  0.25020965933799744  0.967280924320221  0.37815770506858826  1.0000
  Tb  Tb6       1.0  0.2443266063928604  0.3260597884654999  0.0473918579518795  1.0000
  Tb  Tb7       1.0  0.24877527356147766  0.8112015128135681  0.40822452306747437  1.0000
