data_image0
_chemical_formula_structural       CoGaHNiScTb6
_chemical_formula_sum              "Co1 Ga1 H1 Ni1 Sc1 Tb6"
_cell_length_a       4.969177191088607
_cell_length_b       5.63043413882831
_cell_length_c       6.080464839935303
_cell_angle_alpha    68.21808072256061
_cell_angle_beta     63.86812469679972
_cell_angle_gamma    64.27108225834131

_space_group_name_H-M_alt    "P 1"
_space_group_IT_number       1

loop_
  _space_group_symop_operation_xyz
  'x, y, z'

loop_
  _atom_site_type_symbol
  _atom_site_label
  _atom_site_symmetry_multiplicity
  _atom_site_fract_x
  _atom_site_fract_y
  _atom_site_fract_z
  _atom_site_occupancy
  Co  Co1       1.0  0.14652207493782043  0.622404158115387  0.40113481879234314  1.0000
  Ga  Ga1       1.0  0.46171948313713074  0.41658785939216614  0.16508150100708008  1.0000
  H   H1        1.0  0.4764891564846039  0.7018784880638123  0.2292899191379547  1.0000
  Ni  Ni1       1.0  0.4344780445098877  0.8996772170066833  0.45341578125953674  1.0000
  Sc  Sc1       1.0  0.6606765985488892  0.08434557914733887  0.7098662853240967  1.0000
  Tb  Tb1       1.0  0.148334339261055  0.2498694658279419  0.9079685807228088  1.0000
  Tb  Tb2       1.0  0.4584222137928009  0.40148335695266724  0.9916659593582153  1.0000
  Tb  Tb3       1.0  0.14216580986976624  0.8910959362983704  0.5410805940628052  1.0000
  Tb  Tb4       1.0  0.7049906253814697  0.40291839838027954  0.5208426713943481  1.0000
  Tb  Tb5       1.0  0.7840778231620789  0.9070895314216614  0.9593976140022278  1.0000
  Tb  Tb6       1.0  0.14319762587547302  0.10911007225513458  0.8924381732940674  1.0000
