data_image0
_chemical_formula_structural       HI6NaU
_chemical_formula_sum              "H1 I6 Na1 U1"
_cell_length_a       7.140311359500196
_cell_length_b       7.157727003285162
_cell_length_c       8.78206729888916
_cell_angle_alpha    78.26370069728453
_cell_angle_beta     71.91743435447646
_cell_angle_gamma    65.13783792854697

_space_group_name_H-M_alt    "P 1"
_space_group_IT_number       1

loop_
  _space_group_symop_operation_xyz
  'x, y, z'

loop_
  _atom_site_type_symbol
  _atom_site_label
  _atom_site_symmetry_multiplicity
  _atom_site_fract_x
  _atom_site_fract_y
  _atom_site_fract_z
  _atom_site_occupancy
  H   H1        1.0  0.6590619683265686  0.008775335736572742  0.9339609742164612  1.0000
  I   I1        1.0  0.0886169895529747  0.9834161996841431  0.43862396478652954  1.0000
  I   I2        1.0  0.8977344036102295  0.702710747718811  0.9970930814743042  1.0000
  I   I3        1.0  0.09780090302228928  0.021601097658276558  0.6200054287910461  1.0000
  I   I4        1.0  0.6796055436134338  0.7988486289978027  0.8867672681808472  1.0000
  I   I5        1.0  0.5030012130737305  0.10042207688093185  0.39249223470687866  1.0000
  I   I6        1.0  0.1959509700536728  0.4161677956581116  0.9427046775817871  1.0000
  Na  Na1       1.0  0.2027512639760971  0.4843912422657013  0.26219093799591064  1.0000
  U   U1        1.0  0.09436813741922379  0.8644811511039734  0.5617399215698242  1.0000
