data_image0
_chemical_formula_structural       I6OPS
_chemical_formula_sum              "I6 O1 P1 S1"
_cell_length_a       6.239984413345112
_cell_length_b       7.190878045367961
_cell_length_c       7.933594226837158
_cell_angle_alpha    111.75528658052804
_cell_angle_beta     90.5718569152421
_cell_angle_gamma    91.31272391047919

_space_group_name_H-M_alt    "P 1"
_space_group_IT_number       1

loop_
  _space_group_symop_operation_xyz
  'x, y, z'

loop_
  _atom_site_type_symbol
  _atom_site_label
  _atom_site_symmetry_multiplicity
  _atom_site_fract_x
  _atom_site_fract_y
  _atom_site_fract_z
  _atom_site_occupancy
  I   I1        1.0  0.1978267878293991  0.5428793430328369  0.7500617504119874  1.0000
  I   I2        1.0  0.6961871385574341  0.5358660817146301  0.3610078394412995  1.0000
  I   I3        1.0  0.6965664029121399  0.05018633231520653  0.974180817604065  1.0000
  I   I4        1.0  0.6986883878707886  0.9110508561134337  0.2761507630348205  1.0000
  I   I5        1.0  0.4515639841556549  0.8900388479232787  0.6316007971763612  1.0000
  I   I6        1.0  0.2025914043188095  0.5569247603416443  0.08005219697952272  1.0000
  O   O1        1.0  0.7791007161140442  0.31570741534233093  0.0970776751637459  1.0000
  P   P1        1.0  0.22251836955547333  0.3568691909313202  0.5989629030227662  1.0000
  S   S1        1.0  0.015496158972382545  0.008942751213908195  0.8048595190048219  1.0000
