data_image0
_chemical_formula_structural       I6Na2O
_chemical_formula_sum              "I6 Na2 O1"
_cell_length_a       5.776160588828592
_cell_length_b       6.252338412886749
_cell_length_c       7.39895486831665
_cell_angle_alpha    121.43977106912263
_cell_angle_beta     94.02028279080133
_cell_angle_gamma    87.755306065154

_space_group_name_H-M_alt    "P 1"
_space_group_IT_number       1

loop_
  _space_group_symop_operation_xyz
  'x, y, z'

loop_
  _atom_site_type_symbol
  _atom_site_label
  _atom_site_symmetry_multiplicity
  _atom_site_fract_x
  _atom_site_fract_y
  _atom_site_fract_z
  _atom_site_occupancy
  I   I1        1.0  0.8117251396179199  0.38352033495903015  0.9698261618614196  1.0000
  I   I2        1.0  0.303084135055542  0.7377323508262634  0.9061633348464965  1.0000
  I   I3        1.0  0.8052500486373901  0.24559476971626285  0.8881302475929259  1.0000
  I   I4        1.0  0.3084069788455963  0.45191219449043274  0.4004462659358978  1.0000
  I   I5        1.0  0.3090272545814514  0.651214599609375  0.6409072875976562  1.0000
  I   I6        1.0  0.8099667429924011  0.7838580012321472  0.48479986190795893  1.0000
  Na  Na1       1.0  0.31254151463508606  0.49086293578147894  0.8568908572196959  1.0000
  Na  Na2       1.0  0.80947345495224  0.2781577706336975  0.16894960403442383  1.0000
  O   O1        1.0  0.3072066903114319  0.5555790066719055  0.8119807839393616  1.0000
