data_image0
_chemical_formula_structural       I4Na3O2
_chemical_formula_sum              "I4 Na3 O2"
_cell_length_a       5.8415957899890065
_cell_length_b       6.191686668093427
_cell_length_c       7.000485420227051
_cell_angle_alpha    119.5887258315522
_cell_angle_beta     111.68233101546653
_cell_angle_gamma    89.76120861620784

_space_group_name_H-M_alt    "P 1"
_space_group_IT_number       1

loop_
  _space_group_symop_operation_xyz
  'x, y, z'

loop_
  _atom_site_type_symbol
  _atom_site_label
  _atom_site_symmetry_multiplicity
  _atom_site_fract_x
  _atom_site_fract_y
  _atom_site_fract_z
  _atom_site_occupancy
  I   I1        1.0  0.24565258622169495  0.006441875360906124  0.20336444675922394  1.0000
  I   I2        1.0  0.2624521851539612  0.44770723581314087  0.5017510652542114  1.0000
  I   I3        1.0  0.5638301372528076  0.904424786567688  0.0023603844456374645  1.0000
  I   I4        1.0  0.0252454224973917  0.27637779712677  0.4535852372646332  1.0000
  Na  Na1       1.0  0.005311782006174326  0.7699671983718872  0.7654232978820801  1.0000
  Na  Na2       1.0  0.5525763630867004  0.10547877848148346  0.19751086831092834  1.0000
  Na  Na3       1.0  0.7353529930114746  0.800934374332428  0.8674907684326172  1.0000
  O   O1        1.0  0.9975550770759583  0.20785073935985565  0.5181138515472412  1.0000
  O   O2        1.0  0.5501512885093689  0.283491849899292  0.3700435757637024  1.0000
