data_image0
_chemical_formula_structural       I6LiNaP
_chemical_formula_sum              "I6 Li1 Na1 P1"
_cell_length_a       7.17432557920687
_cell_length_b       7.300878083949102
_cell_length_c       8.629537582397461
_cell_angle_alpha    107.7530005174156
_cell_angle_beta     89.89097840981763
_cell_angle_gamma    90.30830849469837

_space_group_name_H-M_alt    "P 1"
_space_group_IT_number       1

loop_
  _space_group_symop_operation_xyz
  'x, y, z'

loop_
  _atom_site_type_symbol
  _atom_site_label
  _atom_site_symmetry_multiplicity
  _atom_site_fract_x
  _atom_site_fract_y
  _atom_site_fract_z
  _atom_site_occupancy
  I   I1        1.0  0.47718945145606995  0.9683727025985718  0.6826892495155334  1.0000
  I   I2        1.0  0.9780696034431458  0.8395609259605408  0.5387617945671082  1.0000
  I   I3        1.0  0.4771691560745239  0.5673276782035828  0.7028633356094359  1.0000
  I   I4        1.0  0.987626314163208  0.6372626423835754  0.9425643086433411  1.0000
  I   I5        1.0  0.48061642050743103  0.987267792224884  0.8949522972106934  1.0000
  I   I6        1.0  0.48418527841567993  0.24150776863098145  0.9186744689941406  1.0000
  Li  Li1       1.0  0.9801453948020935  0.501757800579071  0.8252115249633789  1.0000
  Na  Na1       1.0  0.9810386300086975  0.7463717460632324  0.5597920417785645  1.0000
  P   P1        1.0  0.9842261672019958  0.14834992587566376  0.8436524868011475  1.0000
