data_image0
_chemical_formula_structural       I7OS
_chemical_formula_sum              "I7 O1 S1"
_cell_length_a       7.393285592911488
_cell_length_b       7.577728315182485
_cell_length_c       8.49290943145752
_cell_angle_alpha    98.70960829481662
_cell_angle_beta     89.92970937002713
_cell_angle_gamma    89.87112728510827

_space_group_name_H-M_alt    "P 1"
_space_group_IT_number       1

loop_
  _space_group_symop_operation_xyz
  'x, y, z'

loop_
  _atom_site_type_symbol
  _atom_site_label
  _atom_site_symmetry_multiplicity
  _atom_site_fract_x
  _atom_site_fract_y
  _atom_site_fract_z
  _atom_site_occupancy
  I   I1        1.0  0.4147294759750366  0.22181846201419833  0.3750044107437134  1.0000
  I   I2        1.0  0.6526573896408081  0.006642188876867295  0.7469660043716431  1.0000
  I   I3        1.0  0.6458141207695007  0.7886926531791688  0.4444319903850556  1.0000
  I   I4        1.0  0.9153638482093811  0.2332142144441605  0.911045253276825  1.0000
  I   I5        1.0  0.9126957654953003  0.4343960881233216  0.04301907494664193  1.0000
  I   I6        1.0  0.13732312619686127  0.6625240445137024  0.8376030921936035  1.0000
  I   I7        1.0  0.41539496183395386  0.8073107600212098  0.8950074315071106  1.0000
  O   O1        1.0  0.5442081689834595  0.8219779729843141  0.1877024620771408  1.0000
  S   S1        1.0  0.15963152050971985  0.4851543605327607  0.46430516242980957  1.0000
