data_image0
_chemical_formula_structural       Ca3Ge3Ni3
_chemical_formula_sum              "Ca3 Ge3 Ni3"
_cell_length_a       4.062116776516008
_cell_length_b       5.654572242197156
_cell_length_c       8.681111335754395
_cell_angle_alpha    106.47301982468716
_cell_angle_beta     90.34150597164535
_cell_angle_gamma    110.73363830576577

_space_group_name_H-M_alt    "P 1"
_space_group_IT_number       1

loop_
  _space_group_symop_operation_xyz
  'x, y, z'

loop_
  _atom_site_type_symbol
  _atom_site_label
  _atom_site_symmetry_multiplicity
  _atom_site_fract_x
  _atom_site_fract_y
  _atom_site_fract_z
  _atom_site_occupancy
  Ca  Ca1       1.0  0.16617155075073242  0.10174412280321121  0.5341999530792236  1.0000
  Ca  Ca2       1.0  0.8340029120445251  0.45293739438056946  0.21160674095153809  1.0000
  Ca  Ca3       1.0  0.07001622021198273  0.9371300935745239  0.9574166536331177  1.0000
  Ge  Ge1       1.0  0.552234947681427  0.9116241335868835  0.24818436801433563  1.0000
  Ge  Ge2       1.0  0.8813636302947998  0.5500350594520569  0.5880670547485352  1.0000
  Ge  Ge3       1.0  0.3590143322944641  0.5108070969581604  0.9519901275634766  1.0000
  Ni  Ni1       1.0  0.44525089859962463  0.66744464635849  0.4499143064022064  1.0000
  Ni  Ni2       1.0  0.7829952239990234  0.37499919533729553  0.8137708902359009  1.0000
  Ni  Ni3       1.0  0.41999009251594543  0.6297628283500671  0.7130215167999268  1.0000
