data_image0
_chemical_formula_structural       Ca3Ge4Ni2
_chemical_formula_sum              "Ca3 Ge4 Ni2"
_cell_length_a       4.0778468687605685
_cell_length_b       5.450154716842224
_cell_length_c       8.985086441040039
_cell_angle_alpha    103.81732818593058
_cell_angle_beta     89.93982475772269
_cell_angle_gamma    112.10516644493812

_space_group_name_H-M_alt    "P 1"
_space_group_IT_number       1

loop_
  _space_group_symop_operation_xyz
  'x, y, z'

loop_
  _atom_site_type_symbol
  _atom_site_label
  _atom_site_symmetry_multiplicity
  _atom_site_fract_x
  _atom_site_fract_y
  _atom_site_fract_z
  _atom_site_occupancy
  Ca  Ca1       1.0  0.16797533631324768  0.05794697627425194  0.3996005654335022  1.0000
  Ca  Ca2       1.0  0.06988318264484406  0.8714969158172607  0.9943429231643677  1.0000
  Ca  Ca3       1.0  0.9058161973953247  0.547564685344696  0.6104223132133484  1.0000
  Ge  Ge1       1.0  0.4494265019893646  0.6236668825149536  0.3483231365680694  1.0000
  Ge  Ge2       1.0  0.34000110626220703  0.38902968168258667  0.8133633732795715  1.0000
  Ge  Ge3       1.0  0.6221933364868164  0.9948663115501404  0.6820275187492371  1.0000
  Ge  Ge4       1.0  0.7900870442390442  0.30990368127822876  0.18175069987773895  1.0000
  Ni  Ni1       1.0  0.3553178012371063  0.45524829626083374  0.08680728077888489  1.0000
  Ni  Ni2       1.0  0.7756384611129761  0.2879921793937683  0.9121227264404297  1.0000
