data_image0
_chemical_formula_structural       CaErGeNiScTe3Y
_chemical_formula_sum              "Ca1 Er1 Ge1 Ni1 Sc1 Te3 Y1"
_cell_length_a       6.1275208554149305
_cell_length_b       6.115451903825531
_cell_length_c       6.067148685455322
_cell_angle_alpha    90.17123604192561
_cell_angle_beta     90.07365134914932
_cell_angle_gamma    90.04454806964468

_space_group_name_H-M_alt    "P 1"
_space_group_IT_number       1

loop_
  _space_group_symop_operation_xyz
  'x, y, z'

loop_
  _atom_site_type_symbol
  _atom_site_label
  _atom_site_symmetry_multiplicity
  _atom_site_fract_x
  _atom_site_fract_y
  _atom_site_fract_z
  _atom_site_occupancy
  Ca  Ca1       1.0  0.8711456656455994  0.7935425043106079  0.03483036532998085  1.0000
  Er  Er1       1.0  0.1493973582983017  0.5588696599006653  0.5356137752532959  1.0000
  Ge  Ge1       1.0  0.41065728664398193  0.7943052053451538  0.889771044254303  1.0000
  Ni  Ni1       1.0  0.16195230185985565  0.029426831752061844  0.7585073113441467  1.0000
  Sc  Sc1       1.0  0.6388669013977051  0.051815301179885864  0.5416420698165894  1.0000
  Te  Te1       1.0  0.1516672521829605  0.05598471313714981  0.3772173225879669  1.0000
  Te  Te2       1.0  0.8999319672584534  0.294527530670166  0.887143075466156  1.0000
  Te  Te3       1.0  0.6458961963653564  0.5499634146690369  0.4289208650588989  1.0000
  Y   Y1        1.0  0.4106534719467163  0.3029942512512207  0.024141056463122368  1.0000
