data_image0
_chemical_formula_structural       CaGe2La3NiSeTe
_chemical_formula_sum              "Ca1 Ge2 La3 Ni1 Se1 Te1"
_cell_length_a       4.301616358073728
_cell_length_b       4.322887590301406
_cell_length_c       13.946298599243164
_cell_angle_alpha    89.97596675343375
_cell_angle_beta     89.94374256328278
_cell_angle_gamma    119.62026668872899

_space_group_name_H-M_alt    "P 1"
_space_group_IT_number       1

loop_
  _space_group_symop_operation_xyz
  'x, y, z'

loop_
  _atom_site_type_symbol
  _atom_site_label
  _atom_site_symmetry_multiplicity
  _atom_site_fract_x
  _atom_site_fract_y
  _atom_site_fract_z
  _atom_site_occupancy
  Ca  Ca1       1.0  0.8594591617584229  0.8144515752792358  0.0234205424785614  1.0000
  Ge  Ge1       1.0  0.19480374455451965  0.4803778827190399  0.1666841357946396  1.0000
  Ge  Ge2       1.0  0.8604631423950195  0.8156413435935974  0.6906726956367492  1.0000
  La  La1       1.0  0.5254325270652771  0.1468908041715622  0.7969764471054076  1.0000
  La  La2       1.0  0.19431377947330475  0.4814189076423645  0.5646738409996032  1.0000
  La  La3       1.0  0.8626347780227661  0.8127052187919617  0.29699644446372986  1.0000
  Ni  Ni1       1.0  0.5292094349861145  0.15061092376708984  0.1519262045621872  1.0000
  Se  Se1       1.0  0.193572536110878  0.48284047842025757  0.9081048369407654  1.0000
  Te  Te1       1.0  0.5286739468574524  0.14594893157482147  0.43105626106262207  1.0000
