data_image0
_chemical_formula_structural       AlGa2Ir8
_chemical_formula_sum              "Al1 Ga2 Ir8"
_cell_length_a       5.222811609005398
_cell_length_b       5.95556590070618
_cell_length_c       7.189765453338623
_cell_angle_alpha    89.15422011773386
_cell_angle_beta     90.52099156390722
_cell_angle_gamma    110.4146430372737

_space_group_name_H-M_alt    "P 1"
_space_group_IT_number       1

loop_
  _space_group_symop_operation_xyz
  'x, y, z'

loop_
  _atom_site_type_symbol
  _atom_site_label
  _atom_site_symmetry_multiplicity
  _atom_site_fract_x
  _atom_site_fract_y
  _atom_site_fract_z
  _atom_site_occupancy
  Al  Al1       1.0  0.8132989406585693  0.12546294927597046  0.6592436432838439  1.0000
  Ga  Ga1       1.0  0.514414370059967  0.5685998797416687  0.27412769198417664  1.0000
  Ga  Ga2       1.0  0.8002482652664185  0.13171453773975372  0.46680980920791626  1.0000
  Ir  Ir1       1.0  0.3188176453113556  0.876562237739563  0.28581079840660095  1.0000
  Ir  Ir2       1.0  0.9932069182395935  0.8896909952163696  0.9907704591751099  1.0000
  Ir  Ir3       1.0  0.6369611024856567  0.38203907012939453  0.782882571220398  1.0000
  Ir  Ir4       1.0  0.30990391969680786  0.056267790496349335  0.6335923075675964  1.0000
  Ir  Ir5       1.0  0.31179845333099365  0.382304847240448  0.28823623061180115  1.0000
  Ir  Ir6       1.0  0.8946923613548279  0.6298240423202515  0.34259590506553644  1.0000
  Ir  Ir7       1.0  0.8346476554870605  0.12944823503494263  0.14366048574447632  1.0000
  Ir  Ir8       1.0  0.3228430449962616  0.617446780204773  0.5009588599205017  1.0000
