data_image0
_chemical_formula_structural       CuGeIr8V
_chemical_formula_sum              "Cu1 Ge1 Ir8 V1"
_cell_length_a       4.996610530611525
_cell_length_b       5.282753005268265
_cell_length_c       6.193429470062256
_cell_angle_alpha    88.89434301467465
_cell_angle_beta     88.86670151873678
_cell_angle_gamma    89.16427010599205

_space_group_name_H-M_alt    "P 1"
_space_group_IT_number       1

loop_
  _space_group_symop_operation_xyz
  'x, y, z'

loop_
  _atom_site_type_symbol
  _atom_site_label
  _atom_site_symmetry_multiplicity
  _atom_site_fract_x
  _atom_site_fract_y
  _atom_site_fract_z
  _atom_site_occupancy
  Cu  Cu1       1.0  0.4201492965221405  0.08834777027368546  0.4666352570056915  1.0000
  Ge  Ge1       1.0  0.22880946099758148  0.5733810663223267  0.7713891267776488  1.0000
  Ir  Ir1       1.0  0.4186338782310486  0.06629294902086258  0.8150339722633361  1.0000
  Ir  Ir2       1.0  0.9171411395072937  0.5596538186073303  0.039844490587711334  1.0000
  Ir  Ir3       1.0  0.4174886643886566  0.8040187954902649  0.9540281295776366  1.0000
  Ir  Ir4       1.0  0.41787979006767273  0.31539782881736755  0.21549539268016812  1.0000
  Ir  Ir5       1.0  0.9071118235588074  0.8024000525474548  0.9600704312324523  1.0000
  Ir  Ir6       1.0  0.9133191704750061  0.3099377155303955  0.38615387678146357  1.0000
  Ir  Ir7       1.0  0.4209699332714081  0.8112322092056274  0.2161348760128021  1.0000
  Ir  Ir8       1.0  0.9061644673347473  0.3068807125091553  0.7122586369514464  1.0000
  V   V1        1.0  0.15942370891571045  0.818864643573761  0.24416640400886533  1.0000
