data_image0
_chemical_formula_structural       BrIr9K
_chemical_formula_sum              "Br1 Ir9 K1"
_cell_length_a       5.511864962856071
_cell_length_b       5.85202401643383
_cell_length_c       7.233879089355469
_cell_angle_alpha    89.57536298418844
_cell_angle_beta     89.3024539864128
_cell_angle_gamma    113.92784139109739

_space_group_name_H-M_alt    "P 1"
_space_group_IT_number       1

loop_
  _space_group_symop_operation_xyz
  'x, y, z'

loop_
  _atom_site_type_symbol
  _atom_site_label
  _atom_site_symmetry_multiplicity
  _atom_site_fract_x
  _atom_site_fract_y
  _atom_site_fract_z
  _atom_site_occupancy
  Br  Br1       1.0  0.9969225525856018  0.4940928816795349  0.41199645400047297  1.0000
  Ir  Ir1       1.0  0.26792821288108826  0.6421270966529846  0.2820760905742645  1.0000
  Ir  Ir2       1.0  0.7623862624168396  0.23523107171058655  0.41169127821922297  1.0000
  Ir  Ir3       1.0  0.2679552733898163  0.636073648929596  0.7168760299682616  1.0000
  Ir  Ir4       1.0  0.2662063241004944  0.9772660136222839  0.40879169106483454  1.0000
  Ir  Ir5       1.0  0.8777811527252197  0.23008672893047333  0.822140336036682  1.0000
  Ir  Ir6       1.0  0.7635380625724792  0.0027936133556067944  0.1369655579328537  1.0000
  Ir  Ir7       1.0  0.7617607116699219  0.9791894555091858  0.9100714921951293  1.0000
  Ir  Ir8       1.0  0.26619887351989746  0.972694993019104  0.8456104993820189  1.0000
  Ir  Ir9       1.0  0.7598767280578613  0.49204978346824646  0.4165345132350921  1.0000
  K   K1        1.0  0.3750285506248474  0.22591657936573029  0.3411315679550171  1.0000
