data_image0
_chemical_formula_structural       BrIr10
_chemical_formula_sum              "Br1 Ir10"
_cell_length_a       5.127038542711718
_cell_length_b       5.854161301825703
_cell_length_c       7.537617206573486
_cell_angle_alpha    89.67769632653679
_cell_angle_beta     89.01615269424344
_cell_angle_gamma    90.7468514830671

_space_group_name_H-M_alt    "P 1"
_space_group_IT_number       1

loop_
  _space_group_symop_operation_xyz
  'x, y, z'

loop_
  _atom_site_type_symbol
  _atom_site_label
  _atom_site_symmetry_multiplicity
  _atom_site_fract_x
  _atom_site_fract_y
  _atom_site_fract_z
  _atom_site_occupancy
  Br  Br1       1.0  0.839478611946106  0.9107679128646851  0.3671819269657135  1.0000
  Ir  Ir1       1.0  0.34365811944007874  0.9266273975372314  0.32709816098213196  1.0000
  Ir  Ir2       1.0  0.8540149927139282  0.6144490838050842  0.10391315072774887  1.0000
  Ir  Ir3       1.0  0.8468465209007263  0.41319483518600464  0.6025280952453613  1.0000
  Ir  Ir4       1.0  0.84122633934021  0.9174087643623352  0.8073835968971251  1.0000
  Ir  Ir5       1.0  0.3430849015712738  0.41790473461151123  0.8219199180603027  1.0000
  Ir  Ir6       1.0  0.3448560833930969  0.9107392430305481  0.8335816860198975  1.0000
  Ir  Ir7       1.0  0.8539003133773804  0.16223855316638947  0.10187897086143494  1.0000
  Ir  Ir8       1.0  0.34517109394073486  0.19415605068206787  0.0964089184999466  1.0000
  Ir  Ir9       1.0  0.8426114916801453  0.4093749225139618  0.3290679156780243  1.0000
  Ir  Ir10      1.0  0.3439839780330658  0.689653217792511  0.10398207604885101  1.0000
