data_image0
_chemical_formula_structural       BrFIr8Nb
_chemical_formula_sum              "Br1 F1 Ir8 Nb1"
_cell_length_a       5.285104696865642
_cell_length_b       5.979632339578367
_cell_length_c       7.05248498916626
_cell_angle_alpha    89.14980490217077
_cell_angle_beta     89.22310586836478
_cell_angle_gamma    90.82325069719444

_space_group_name_H-M_alt    "P 1"
_space_group_IT_number       1

loop_
  _space_group_symop_operation_xyz
  'x, y, z'

loop_
  _atom_site_type_symbol
  _atom_site_label
  _atom_site_symmetry_multiplicity
  _atom_site_fract_x
  _atom_site_fract_y
  _atom_site_fract_z
  _atom_site_occupancy
  Br  Br1       1.0  0.5076426267623901  0.6969189047813416  0.801777720451355  1.0000
  F   F1        1.0  0.5033242106437683  0.17423398792743683  0.20272035896778107  1.0000
  Ir  Ir1       1.0  0.0015850067138671875  0.6804907321929932  0.34384721517562866  1.0000
  Ir  Ir2       1.0  0.004375766962766647  0.21534469723701477  0.4008094370365143  1.0000
  Ir  Ir3       1.0  0.5060100555419922  0.21950818598270416  0.7204575538635254  1.0000
  Ir  Ir4       1.0  0.5022354125976562  0.9884642958641052  0.14654546976089478  1.0000
  Ir  Ir5       1.0  0.503632128238678  0.2199684977531433  0.04730368033051491  1.0000
  Ir  Ir6       1.0  0.002911806106567383  0.7134395241737366  0.7260112762451172  1.0000
  Ir  Ir7       1.0  0.002896808786317706  0.9948830604553223  0.8161885738372803  1.0000
  Ir  Ir8       1.0  0.0040117590688169  0.46008574962615967  0.7197230458259583  1.0000
  Nb  Nb1       1.0  0.0018442950677126646  0.21529130637645721  0.22070299088954926  1.0000
