data_image0
_chemical_formula_structural       BrIr9Nb
_chemical_formula_sum              "Br1 Ir9 Nb1"
_cell_length_a       4.958345053738815
_cell_length_b       6.092278196815744
_cell_length_c       6.132174491882324
_cell_angle_alpha    88.03995137299246
_cell_angle_beta     89.36517996891887
_cell_angle_gamma    90.1027278772299

_space_group_name_H-M_alt    "P 1"
_space_group_IT_number       1

loop_
  _space_group_symop_operation_xyz
  'x, y, z'

loop_
  _atom_site_type_symbol
  _atom_site_label
  _atom_site_symmetry_multiplicity
  _atom_site_fract_x
  _atom_site_fract_y
  _atom_site_fract_z
  _atom_site_occupancy
  Br  Br1       1.0  0.5848472714424133  0.7391052842140198  0.022609550505876538  1.0000
  Ir  Ir1       1.0  0.06585606932640076  0.7380824089050293  0.5208938717842102  1.0000
  Ir  Ir2       1.0  0.570979654788971  0.23355454206466675  0.28023070096969604  1.0000
  Ir  Ir3       1.0  0.07294327765703201  0.23868894577026367  0.360376089811325  1.0000
  Ir  Ir4       1.0  0.0711381584405899  0.23444898426532745  0.9752014875411986  1.0000
  Ir  Ir5       1.0  0.5750359296798706  0.23545828461647034  0.5236367583274841  1.0000
  Ir  Ir6       1.0  0.5719675421714783  0.42512816190719604  0.33614614605903625  1.0000
  Ir  Ir7       1.0  0.06729160249233246  0.7376061081886292  0.5141282081604004  1.0000
  Ir  Ir8       1.0  0.5717512965202332  0.6372886896133423  0.020558908581733704  1.0000
  Ir  Ir9       1.0  0.5590589642524719  0.7367978096008301  0.7833647727966307  1.0000
  Nb  Nb1       1.0  0.07227678596973419  0.23760178685188293  0.042693093419075005  1.0000
