data_image0
_chemical_formula_structural       Cl2FePtRh3
_chemical_formula_sum              "Cl2 Fe1 Pt1 Rh3"
_cell_length_a       5.347946748184003
_cell_length_b       5.649075339697218
_cell_length_c       6.024558067321777
_cell_angle_alpha    64.79227535612362
_cell_angle_beta     63.243336726954595
_cell_angle_gamma    60.36834220947402

_space_group_name_H-M_alt    "P 1"
_space_group_IT_number       1

loop_
  _space_group_symop_operation_xyz
  'x, y, z'

loop_
  _atom_site_type_symbol
  _atom_site_label
  _atom_site_symmetry_multiplicity
  _atom_site_fract_x
  _atom_site_fract_y
  _atom_site_fract_z
  _atom_site_occupancy
  Cl  Cl1       1.0  0.11903588473796844  0.4017188847064972  0.38578054308891296  1.0000
  Cl  Cl2       1.0  0.42835813760757446  0.04901203513145447  0.6944180727005005  1.0000
  Fe  Fe1       1.0  0.07223198562860489  0.05725231394171715  0.46838557720184326  1.0000
  Pt  Pt1       1.0  0.12379810959100723  0.34882089495658875  0.16668516397476196  1.0000
  Rh  Rh1       1.0  0.6187750101089478  0.5680350661277771  0.05724760890007019  1.0000
  Rh  Rh2       1.0  0.09418404847383499  0.5640629529953003  0.5485954284667969  1.0000
  Rh  Rh3       1.0  0.8974831700325012  0.06090317294001579  0.7240226864814758  1.0000
