data_image0
_chemical_formula_structural       AlBaBeBiCdF
_chemical_formula_sum              "Al1 Ba1 Be1 Bi1 Cd1 F1"
_cell_length_a       5.7401148742923205
_cell_length_b       5.742004444275381
_cell_length_c       6.368414402008057
_cell_angle_alpha    63.09386773477522
_cell_angle_beta     63.11414669545566
_cell_angle_gamma    59.63759260649304

_space_group_name_H-M_alt    "P 1"
_space_group_IT_number       1

loop_
  _space_group_symop_operation_xyz
  'x, y, z'

loop_
  _atom_site_type_symbol
  _atom_site_label
  _atom_site_symmetry_multiplicity
  _atom_site_fract_x
  _atom_site_fract_y
  _atom_site_fract_z
  _atom_site_occupancy
  Al  Al1       1.0  0.2563926875591278  0.980684220790863  0.7720798850059509  1.0000
  Ba  Ba1       1.0  0.4577470123767853  0.14221608638763428  0.1738322675228119  1.0000
  Be  Be1       1.0  0.027791662141680717  0.733740508556366  0.8503699898719788  1.0000
  Bi  Bi1       1.0  0.017023496329784393  0.7087113857269287  0.45037585496902466  1.0000
  Cd  Cd1       1.0  0.6719298362731934  0.3581124544143677  0.5207676291465759  1.0000
  F   F1        1.0  0.3910880982875824  0.5874174237251282  0.8389986157417297  1.0000
