data_image0
_chemical_formula_structural       Au2BiHScTa
_chemical_formula_sum              "Au2 Bi1 H1 Sc1 Ta1"
_cell_length_a       5.1960980997488075
_cell_length_b       5.152434111908412
_cell_length_c       5.722343921661377
_cell_angle_alpha    62.97670172159521
_cell_angle_beta     63.00031506403202
_cell_angle_gamma    59.53808471406629

_space_group_name_H-M_alt    "P 1"
_space_group_IT_number       1

loop_
  _space_group_symop_operation_xyz
  'x, y, z'

loop_
  _atom_site_type_symbol
  _atom_site_label
  _atom_site_symmetry_multiplicity
  _atom_site_fract_x
  _atom_site_fract_y
  _atom_site_fract_z
  _atom_site_occupancy
  Au  Au1       1.0  0.22722779214382172  0.39444437623023987  0.5415663123130798  1.0000
  Au  Au2       1.0  0.644248366355896  0.8103137612342834  0.30617663264274597  1.0000
  Bi  Bi1       1.0  0.4512687921524048  0.6099726557731628  0.8995698094367981  1.0000
  H   H1        1.0  0.9286568760871887  0.6050894260406494  0.9625651836395263  1.0000
  Sc  Sc1       1.0  0.03163156285881996  0.19507423043251038  0.15359443426132202  1.0000
  Ta  Ta1       1.0  0.851736843585968  0.009946471080183983  0.6974714398384095  1.0000
