data_image0
_chemical_formula_structural       Au3Pt3
_chemical_formula_sum              "Au3 Pt3"
_cell_length_a       4.783686144190638
_cell_length_b       4.869336266764531
_cell_length_c       4.8975372314453125
_cell_angle_alpha    116.21471029703139
_cell_angle_beta     89.85311895044423
_cell_angle_gamma    89.94052470537662

_space_group_name_H-M_alt    "P 1"
_space_group_IT_number       1

loop_
  _space_group_symop_operation_xyz
  'x, y, z'

loop_
  _atom_site_type_symbol
  _atom_site_label
  _atom_site_symmetry_multiplicity
  _atom_site_fract_x
  _atom_site_fract_y
  _atom_site_fract_z
  _atom_site_occupancy
  Au  Au1       1.0  0.6229968070983887  0.45277535915374756  0.41978222131729126  1.0000
  Au  Au2       1.0  0.506452739238739  0.10255840420722961  0.7356224060058594  1.0000
  Au  Au3       1.0  0.6228345036506653  0.770529568195343  0.05040707811713214  1.0000
  Pt  Pt1       1.0  0.12283795326948166  0.6444193720817566  0.7135657668113708  1.0000
  Pt  Pt2       1.0  0.014974783174693584  0.31462395191192627  0.026828179135918617  1.0000
  Pt  Pt3       1.0  0.11909226328134537  0.9678223729133606  0.3293921947479248  1.0000
