data_image0
_chemical_formula_structural       P2Pb8Ti
_chemical_formula_sum              "P2 Pb8 Ti1"
_cell_length_a       5.914382730307031
_cell_length_b       6.298455703805993
_cell_length_c       11.340473175048828
_cell_angle_alpha    91.2653583468756
_cell_angle_beta     91.88971811785765
_cell_angle_gamma    90.0780956389916

_space_group_name_H-M_alt    "P 1"
_space_group_IT_number       1

loop_
  _space_group_symop_operation_xyz
  'x, y, z'

loop_
  _atom_site_type_symbol
  _atom_site_label
  _atom_site_symmetry_multiplicity
  _atom_site_fract_x
  _atom_site_fract_y
  _atom_site_fract_z
  _atom_site_occupancy
  P   P1        1.0  0.9246419072151185  0.4085726439952851  0.12799471616744995  1.0000
  P   P2        1.0  0.9556894302368165  0.12892252206802368  0.5223438739776611  1.0000
  Pb  Pb1       1.0  0.1843549013137818  0.478831559419632  0.7288022041320801  1.0000
  Pb  Pb2       1.0  0.4356149137020111  0.005532810464501382  0.4494268596172333  1.0000
  Pb  Pb3       1.0  0.9074412584304811  0.26858657598495483  0.12353014200925827  1.0000
  Pb  Pb4       1.0  0.18851639330387115  0.9325622320175172  0.40892496705055237  1.0000
  Pb  Pb5       1.0  0.41536393761634827  0.9610736370086671  0.6944433450698853  1.0000
  Pb  Pb6       1.0  0.7006739974021912  0.3426499962806702  0.9324530363082886  1.0000
  Pb  Pb7       1.0  0.4261270761489868  0.15902698040008545  0.10371770709753036  1.0000
  Pb  Pb8       1.0  0.9306973218917849  0.9651962518692018  0.09032094478607178  1.0000
  Ti  Ti1       1.0  0.48724436759948736  0.04417656734585763  0.9978940486907959  1.0000
