data_image0
_chemical_formula_structural       I2PPb6Zn2
_chemical_formula_sum              "I2 P1 Pb6 Zn2"
_cell_length_a       5.599991972672122
_cell_length_b       7.1980374270185346
_cell_length_c       8.896098136901855
_cell_angle_alpha    90.41177075161397
_cell_angle_beta     97.36024190950143
_cell_angle_gamma    90.84970012704059

_space_group_name_H-M_alt    "P 1"
_space_group_IT_number       1

loop_
  _space_group_symop_operation_xyz
  'x, y, z'

loop_
  _atom_site_type_symbol
  _atom_site_label
  _atom_site_symmetry_multiplicity
  _atom_site_fract_x
  _atom_site_fract_y
  _atom_site_fract_z
  _atom_site_occupancy
  I   I1        1.0  0.3628302812576294  0.25454893708229065  0.5682371258735657  1.0000
  I   I2        1.0  0.3599039614200592  0.12909600138664246  0.024026019498705864  1.0000
  P   P1        1.0  0.8747509121894836  0.7063158750534058  0.3667754828929901  1.0000
  Pb  Pb1       1.0  0.37016552686691284  0.818901002407074  0.7689515948295593  1.0000
  Pb  Pb2       1.0  0.8654677271842957  0.15910834074020386  0.8149735331535339  1.0000
  Pb  Pb3       1.0  0.8657829761505127  0.7774826884269714  0.5992734432220459  1.0000
  Pb  Pb4       1.0  0.8683698177337646  0.8486494421958923  0.8288990259170532  1.0000
  Pb  Pb5       1.0  0.36975088715553284  0.7931311130523682  0.1378767192363739  1.0000
  Pb  Pb6       1.0  0.8693616986274719  0.8016293048858643  0.7963680028915405  1.0000
  Zn  Zn1       1.0  0.3672546148300171  0.5426295399665833  0.6934497356414795  1.0000
  Zn  Zn2       1.0  0.8642305731773376  0.6568178534507751  0.5906662344932556  1.0000
