data_image0
_chemical_formula_structural       Cs2PPb7Pt
_chemical_formula_sum              "Cs2 P1 Pb7 Pt1"
_cell_length_a       6.039052686233669
_cell_length_b       7.298186857548545
_cell_length_c       10.236138343811035
_cell_angle_alpha    88.64029359731751
_cell_angle_beta     90.48214933307746
_cell_angle_gamma    91.05645133356143

_space_group_name_H-M_alt    "P 1"
_space_group_IT_number       1

loop_
  _space_group_symop_operation_xyz
  'x, y, z'

loop_
  _atom_site_type_symbol
  _atom_site_label
  _atom_site_symmetry_multiplicity
  _atom_site_fract_x
  _atom_site_fract_y
  _atom_site_fract_z
  _atom_site_occupancy
  Cs  Cs1       1.0  0.9361062049865724  0.22505544126033783  0.4997474849224091  1.0000
  Cs  Cs2       1.0  0.5154813528060913  0.5099018812179565  0.9693388342857361  1.0000
  P   P1        1.0  0.9681629538536073  0.483249694108963  0.8511506915092468  1.0000
  Pb  Pb1       1.0  0.42018157243728643  0.8260511159896851  0.06712751090526581  1.0000
  Pb  Pb2       1.0  0.9572244882583619  0.8257916569709778  0.8896689414978027  1.0000
  Pb  Pb3       1.0  0.20903378725051883  0.0764506533741951  0.7671352624893188  1.0000
  Pb  Pb4       1.0  0.48994815349578863  0.6388676166534424  0.6933098435401917  1.0000
  Pb  Pb5       1.0  0.9692448973655702  0.4994432032108307  0.440543532371521  1.0000
  Pb  Pb6       1.0  0.4305351376533509  0.7864477634429932  0.5245466828346252  1.0000
  Pb  Pb7       1.0  0.5196424126625061  0.5174944996833801  0.37206560373306274  1.0000
  Pt  Pt1       1.0  0.9967726469039918  0.831464946269989  0.31045904755592346  1.0000
