data_image0
_chemical_formula_structural       Cs2NaPb8
_chemical_formula_sum              "Cs2 Na1 Pb8"
_cell_length_a       6.092547150826026
_cell_length_b       4.7972988242852805
_cell_length_c       20.05463218688965
_cell_angle_alpha    90.81754597392309
_cell_angle_beta     93.43376195275665
_cell_angle_gamma    141.37748606969353

_space_group_name_H-M_alt    "P 1"
_space_group_IT_number       1

loop_
  _space_group_symop_operation_xyz
  'x, y, z'

loop_
  _atom_site_type_symbol
  _atom_site_label
  _atom_site_symmetry_multiplicity
  _atom_site_fract_x
  _atom_site_fract_y
  _atom_site_fract_z
  _atom_site_occupancy
  Cs  Cs1       1.0  0.962708055973053  0.6151122450828552  0.29821833968162537  1.0000
  Cs  Cs2       1.0  0.09055563062429428  0.5016592741012573  0.706956148147583  1.0000
  Na  Na1       1.0  0.01791462115943432  0.3293885886669159  0.6774197220802307  1.0000
  Pb  Pb1       1.0  0.5383560061454773  0.5341036915779114  0.43853503465652466  1.0000
  Pb  Pb2       1.0  0.3225574493408203  0.03157098963856697  0.2695558965206146  1.0000
  Pb  Pb3       1.0  0.7513144016265869  0.8699799776077272  0.9742135405540466  1.0000
  Pb  Pb4       1.0  0.6490510106086732  0.7590882778167726  0.030613437294960022  1.0000
  Pb  Pb5       1.0  0.2650196850299836  0.3535290360450745  0.4289964139461518  1.0000
  Pb  Pb6       1.0  0.6281025409698486  0.5688269734382629  0.6836351752281189  1.0000
  Pb  Pb7       1.0  0.6834856867790222  0.4102848172187806  0.24412256479263306  1.0000
  Pb  Pb8       1.0  0.19421528279781342  0.501304566860199  0.7863861918449402  1.0000
