data_image0
_chemical_formula_structural       CsIP2Pb6Zn
_chemical_formula_sum              "Cs1 I1 P2 Pb6 Zn1"
_cell_length_a       6.547581264949795
_cell_length_b       6.290608232803839
_cell_length_c       9.390594482421875
_cell_angle_alpha    90.07575353651781
_cell_angle_beta     90.51242129811736
_cell_angle_gamma    98.28273172763112

_space_group_name_H-M_alt    "P 1"
_space_group_IT_number       1

loop_
  _space_group_symop_operation_xyz
  'x, y, z'

loop_
  _atom_site_type_symbol
  _atom_site_label
  _atom_site_symmetry_multiplicity
  _atom_site_fract_x
  _atom_site_fract_y
  _atom_site_fract_z
  _atom_site_occupancy
  Cs  Cs1       1.0  0.34504154324531555  0.8155288696289061  0.8002058863639832  1.0000
  I   I1        1.0  0.09821385145187378  0.3851097524166107  0.01629338599741459  1.0000
  P   P1        1.0  0.3517862558364868  0.2112750709056854  0.7658278346061707  1.0000
  P   P2        1.0  0.6212804913520813  0.6301838159561157  0.4340171813964844  1.0000
  Pb  Pb1       1.0  0.8450156450271606  0.5341027975082397  0.3326389193534851  1.0000
  Pb  Pb2       1.0  0.3483727276325226  0.9419904947280883  0.2625296711921692  1.0000
  Pb  Pb3       1.0  0.6117689609527588  0.07746537029743195  0.919447124004364  1.0000
  Pb  Pb4       1.0  0.08150187879800795  0.8575758934020995  0.5741257071495056  1.0000
  Pb  Pb5       1.0  0.8455979824066162  0.6200364232063293  0.5206471085548401  1.0000
  Pb  Pb6       1.0  0.33839213848114014  0.3942886590957641  0.422732412815094  1.0000
  Zn  Zn1       1.0  0.32803207635879517  0.17199210822582245  0.5722495913505554  1.0000
