data_image0
_chemical_formula_structural       Cs2Na2Pb7
_chemical_formula_sum              "Cs2 Na2 Pb7"
_cell_length_a       5.5701952528255925
_cell_length_b       7.268056664975975
_cell_length_c       14.87489128112793
_cell_angle_alpha    84.96100935419737
_cell_angle_beta     94.90703052970265
_cell_angle_gamma    99.00504222389297

_space_group_name_H-M_alt    "P 1"
_space_group_IT_number       1

loop_
  _space_group_symop_operation_xyz
  'x, y, z'

loop_
  _atom_site_type_symbol
  _atom_site_label
  _atom_site_symmetry_multiplicity
  _atom_site_fract_x
  _atom_site_fract_y
  _atom_site_fract_z
  _atom_site_occupancy
  Cs  Cs1       1.0  0.2463015764951706  0.5745531916618347  0.020712524652481083  1.0000
  Cs  Cs2       1.0  0.29907992482185364  0.9917261004447937  0.17925523221492767  1.0000
  Na  Na1       1.0  0.8080207109451294  0.8440200090408325  0.2854693830013275  1.0000
  Na  Na2       1.0  0.30567821860313416  0.7175045609474182  0.14227956533432007  1.0000
  Pb  Pb1       1.0  0.7318509817123413  0.4335503578186035  0.17635683715343475  1.0000
  Pb  Pb2       1.0  0.8159790635108948  0.95216304063797  0.8274036645889282  1.0000
  Pb  Pb3       1.0  0.2636895179748535  0.5262171030044556  0.6068041324615479  1.0000
  Pb  Pb4       1.0  0.11779461801052094  0.23445291817188263  0.8057292699813843  1.0000
  Pb  Pb5       1.0  0.7894541025161743  0.059736426919698715  0.3096255958080292  1.0000
  Pb  Pb6       1.0  0.2989298701286316  0.3731190860271454  0.9370861053466797  1.0000
  Pb  Pb7       1.0  0.7237662672996521  0.5230750441551208  0.668648362159729  1.0000
