data_image0
_chemical_formula_structural       CI2Sb7Sc
_chemical_formula_sum              "C1 I2 Sb7 Sc1"
_cell_length_a       7.278582348041664
_cell_length_b       7.271537400491653
_cell_length_c       7.415080547332764
_cell_angle_alpha    111.90527914144899
_cell_angle_beta     111.83011253399988
_cell_angle_gamma    106.67082521056732

_space_group_name_H-M_alt    "P 1"
_space_group_IT_number       1

loop_
  _space_group_symop_operation_xyz
  'x, y, z'

loop_
  _atom_site_type_symbol
  _atom_site_label
  _atom_site_symmetry_multiplicity
  _atom_site_fract_x
  _atom_site_fract_y
  _atom_site_fract_z
  _atom_site_occupancy
  C   C1        1.0  0.28761178255081177  0.19967375695705414  0.3146852552890778  1.0000
  I   I1        1.0  0.14131833612918854  0.7809435725212097  0.3347269296646119  1.0000
  I   I2        1.0  0.334138810634613  0.622863233089447  0.057618588209152284  1.0000
  Sb  Sb1       1.0  0.2828383147716522  0.26993462443351746  0.38005426526069647  1.0000
  Sb  Sb2       1.0  0.4066111743450164  0.7363994121551514  0.7685409784317018  1.0000
  Sb  Sb3       1.0  0.6510758996009827  0.5929788947105408  0.7788112163543702  1.0000
  Sb  Sb4       1.0  0.522553026676178  0.181010439991951  0.005272603128105403  1.0000
  Sb  Sb5       1.0  0.7687176465988158  0.7455238103866577  0.887833058834076  1.0000
  Sb  Sb6       1.0  0.5689622759819031  0.9736843109130859  0.9698876142501832  1.0000
  Sb  Sb7       1.0  0.2718777358531952  0.8170766234397888  0.3177586495876313  1.0000
  Sc  Sc1       1.0  0.27856501936912537  0.4040546715259552  0.460962861776352  1.0000
