data_image0
_chemical_formula_structural       CoHfNbPdSb7
_chemical_formula_sum              "Co1 Hf1 Nb1 Pd1 Sb7"
_cell_length_a       6.940530684640046
_cell_length_b       6.816486619522128
_cell_length_c       6.9364423751831055
_cell_angle_alpha    59.76954822496206
_cell_angle_beta     63.252710362285534
_cell_angle_gamma    60.64143745437259

_space_group_name_H-M_alt    "P 1"
_space_group_IT_number       1

loop_
  _space_group_symop_operation_xyz
  'x, y, z'

loop_
  _atom_site_type_symbol
  _atom_site_label
  _atom_site_symmetry_multiplicity
  _atom_site_fract_x
  _atom_site_fract_y
  _atom_site_fract_z
  _atom_site_occupancy
  Co  Co1       1.0  0.27803143858909607  0.18390516936779022  0.29249271750450134  1.0000
  Hf  Hf1       1.0  0.3875119090080261  0.7761608362197876  0.5342049598693848  1.0000
  Nb  Nb1       1.0  0.8674958348274231  0.14709393680095673  0.18894273042678833  1.0000
  Pd  Pd1       1.0  0.9470826983451843  0.6680746674537659  0.28908276557922363  1.0000
  Sb  Sb1       1.0  0.7112804651260376  0.30069100856781006  0.44959157705307007  1.0000
  Sb  Sb2       1.0  0.17627397179603577  0.19937381148338318  0.8603256344795227  1.0000
  Sb  Sb3       1.0  0.40619155764579773  0.9864950180053711  0.28328749537467957  1.0000
  Sb  Sb4       1.0  0.020902354270219803  0.8500747680664062  0.8667276501655578  1.0000
  Sb  Sb5       1.0  0.6969380974769592  0.4719984233379364  0.45845863223075867  1.0000
  Sb  Sb6       1.0  0.6990942358970642  0.7676261067390442  0.4531998932361603  1.0000
  Sb  Sb7       1.0  0.8959375023841858  0.7223055958747864  0.05289575830101967  1.0000
