data_image0
_chemical_formula_structural       DyI2PSb7
_chemical_formula_sum              "Dy1 I2 P1 Sb7"
_cell_length_a       6.558915762900131
_cell_length_b       7.470023819109979
_cell_length_c       8.055229187011719
_cell_angle_alpha    121.81479767668252
_cell_angle_beta     99.04287268284693
_cell_angle_gamma    90.93059297460799

_space_group_name_H-M_alt    "P 1"
_space_group_IT_number       1

loop_
  _space_group_symop_operation_xyz
  'x, y, z'

loop_
  _atom_site_type_symbol
  _atom_site_label
  _atom_site_symmetry_multiplicity
  _atom_site_fract_x
  _atom_site_fract_y
  _atom_site_fract_z
  _atom_site_occupancy
  Dy  Dy1       1.0  0.9631781578063965  0.6401997208595276  0.4242262542247773  1.0000
  I   I1        1.0  0.4631604850292206  0.07591075450181961  0.4182042181491852  1.0000
  I   I2        1.0  0.4685613811016083  0.8927048444747926  0.8862496614456178  1.0000
  P   P1        1.0  0.976917564868927  0.424026906490326  0.36685985326766973  1.0000
  Sb  Sb1       1.0  0.46463605761528015  0.16055691242218018  0.8699777722358704  1.0000
  Sb  Sb2       1.0  0.4554826319217682  0.6063770651817322  0.343006581068039  1.0000
  Sb  Sb3       1.0  0.4620594382286072  0.23678608238697055  0.45527946949005127  1.0000
  Sb  Sb4       1.0  0.9681663513183594  0.5078687071800232  0.9922915697097778  1.0000
  Sb  Sb5       1.0  0.9640433192253113  0.9370031356811525  0.054252054542303196  1.0000
  Sb  Sb6       1.0  0.970676839351654  0.9251971244812013  0.389610379934311  1.0000
  Sb  Sb7       1.0  0.9602450728416443  0.601806104183197  0.027337219566106852  1.0000
