data_image0
_chemical_formula_structural       CCaFHfI3PSb2Zn
_chemical_formula_sum              "C1 Ca1 F1 Hf1 I3 P1 Sb2 Zn1"
_cell_length_a       6.719240342305795
_cell_length_b       6.918635278065867
_cell_length_c       7.238792419433594
_cell_angle_alpha    114.12650061374286
_cell_angle_beta     108.58312685359327
_cell_angle_gamma    105.94306112823404

_space_group_name_H-M_alt    "P 1"
_space_group_IT_number       1

loop_
  _space_group_symop_operation_xyz
  'x, y, z'

loop_
  _atom_site_type_symbol
  _atom_site_label
  _atom_site_symmetry_multiplicity
  _atom_site_fract_x
  _atom_site_fract_y
  _atom_site_fract_z
  _atom_site_occupancy
  C   C1        1.0  0.06266873329877853  0.17821405827999115  0.01403335388749838  1.0000
  Ca  Ca1       1.0  0.3165934085845947  0.6229609847068787  0.5585599541664124  1.0000
  F   F1        1.0  0.8810815811157227  0.984756052494049  0.683577597141266  1.0000
  Hf  Hf1       1.0  0.8565710783004761  0.9603670835494994  0.24415145814418796  1.0000
  I   I1        1.0  0.30459266901016235  0.1604095697402954  0.20607247948646548  1.0000
  I   I2        1.0  0.31045204401016235  0.5965222120285034  0.12967421114444733  1.0000
  I   I3        1.0  0.3028753101825714  0.8271570205688477  0.7534115910530091  1.0000
  P   P1        1.0  0.8582170605659485  0.5560961365699768  0.274964302778244  1.0000
  Sb  Sb1       1.0  0.8369510173797607  0.10098300874233246  0.649811327457428  1.0000
  Sb  Sb2       1.0  0.30173149704933167  0.8113158345222473  0.3326919674873352  1.0000
  Zn  Zn1       1.0  0.0457514189183712  0.32699915766716003  0.979534685611725  1.0000
