data_image0
_chemical_formula_structural       CuNd8SSb
_chemical_formula_sum              "Cu1 Nd8 S1 Sb1"
_cell_length_a       5.798747621087006
_cell_length_b       7.701472650686691
_cell_length_c       7.823718547821045
_cell_angle_alpha    121.74254689873234
_cell_angle_beta     91.53275097387782
_cell_angle_gamma    94.63932928144108

_space_group_name_H-M_alt    "P 1"
_space_group_IT_number       1

loop_
  _space_group_symop_operation_xyz
  'x, y, z'

loop_
  _atom_site_type_symbol
  _atom_site_label
  _atom_site_symmetry_multiplicity
  _atom_site_fract_x
  _atom_site_fract_y
  _atom_site_fract_z
  _atom_site_occupancy
  Cu  Cu1       1.0  0.3389909863471985  0.3743796646595001  0.9126369357109069  1.0000
  Nd  Nd1       1.0  0.9328417778015137  0.46638879179954523  0.16497790813446042  1.0000
  Nd  Nd2       1.0  0.8734933733940125  0.7153553366661072  0.3056315779685974  1.0000
  Nd  Nd3       1.0  0.37330442667007446  0.7351274490356445  0.6888059973716735  1.0000
  Nd  Nd4       1.0  0.042355749756097794  0.7668066620826721  0.5977848172187805  1.0000
  Nd  Nd5       1.0  0.34295541048049927  0.38255128264427185  0.46068966388702387  1.0000
  Nd  Nd6       1.0  0.8686460852622986  0.810478150844574  0.35628154873847956  1.0000
  Nd  Nd7       1.0  0.3338053524494171  0.39665889739990234  0.9460610151290892  1.0000
  Nd  Nd8       1.0  0.8645136952400208  0.12072980403900145  0.5962148308753967  1.0000
  S   S1        1.0  0.8272745609283447  0.9956753253936766  0.8640491366386412  1.0000
  Sb  Sb1       1.0  0.5804502964019775  0.15432703495025635  0.24783425033092496  1.0000
