data_image0
_chemical_formula_structural       Cu2Nd6Sb3
_chemical_formula_sum              "Cu2 Nd6 Sb3"
_cell_length_a       5.215497013641728
_cell_length_b       4.386563706406106
_cell_length_c       5.907392978668213
_cell_angle_alpha    150.73520411434373
_cell_angle_beta     96.58006961659599
_cell_angle_gamma    95.47404899491231

_space_group_name_H-M_alt    "P 1"
_space_group_IT_number       1

loop_
  _space_group_symop_operation_xyz
  'x, y, z'

loop_
  _atom_site_type_symbol
  _atom_site_label
  _atom_site_symmetry_multiplicity
  _atom_site_fract_x
  _atom_site_fract_y
  _atom_site_fract_z
  _atom_site_occupancy
  Cu  Cu1       1.0  0.0303440373390913  0.4121505916118622  0.11556824296712874  1.0000
  Cu  Cu2       1.0  0.48180028796195984  0.6714099645614624  0.016636637970805085  1.0000
  Nd  Nd1       1.0  0.5285667777061462  0.24261297285556793  0.5305188298225403  1.0000
  Nd  Nd2       1.0  0.021455569192767143  0.4206068515777588  0.6119080185890198  1.0000
  Nd  Nd3       1.0  0.9972450137138367  0.6149628758430482  0.3051524758338928  1.0000
  Nd  Nd4       1.0  0.7229168415069579  0.03817562386393546  0.6036397218704224  1.0000
  Nd  Nd5       1.0  0.49246957898139954  0.8872385025024414  0.46652221679687494  1.0000
  Nd  Nd6       1.0  0.4951658546924591  0.7941398024559022  0.5464672446250916  1.0000
  Sb  Sb1       1.0  0.4979549050331116  0.5636186003684996  0.14131964743137354  1.0000
  Sb  Sb2       1.0  0.9859256148338318  0.5316119194030761  0.945391297340393  1.0000
  Sb  Sb3       1.0  0.5223994255065918  0.22407548129558566  0.15123431384563446  1.0000
