data_image0
_chemical_formula_structural       K3NbPt4Te2
_chemical_formula_sum              "K3 Nb1 Pt4 Te2"
_cell_length_a       5.073256156316124
_cell_length_b       6.410336547497317
_cell_length_c       11.242652893066406
_cell_angle_alpha    88.96007749175814
_cell_angle_beta     89.47285602823824
_cell_angle_gamma    106.99895553358012

_space_group_name_H-M_alt    "P 1"
_space_group_IT_number       1

loop_
  _space_group_symop_operation_xyz
  'x, y, z'

loop_
  _atom_site_type_symbol
  _atom_site_label
  _atom_site_symmetry_multiplicity
  _atom_site_fract_x
  _atom_site_fract_y
  _atom_site_fract_z
  _atom_site_occupancy
  K   K1        1.0  0.6454170346260071  0.004663074389100075  0.7048589587211609  1.0000
  K   K2        1.0  0.8689295053482056  0.997228741645813  0.7209035754203796  1.0000
  K   K3        1.0  0.3691627085208893  0.18473556637763977  0.45794808864593506  1.0000
  Nb  Nb1       1.0  0.37209486961364746  0.4651344120502472  0.7992643117904663  1.0000
  Pt  Pt1       1.0  0.5648378133773804  0.4186244606971741  0.1894657164812088  1.0000
  Pt  Pt2       1.0  0.053702980279922485  0.48733553290367126  0.7707634568214417  1.0000
  Pt  Pt3       1.0  0.05075971782207489  0.8151808977127075  0.9801838994026184  1.0000
  Pt  Pt4       1.0  0.9703205823898315  0.9960005879402161  0.23819543421268463  1.0000
  Te  Te1       1.0  0.8531659245491028  0.6866409778594971  0.499919593334198  1.0000
  Te  Te2       1.0  0.340310275554657  0.6845250129699707  0.5807850956916809  1.0000
