data_image0
_chemical_formula_structural       K3Pt2RhSTe2Y
_chemical_formula_sum              "K3 Pt2 Rh1 S1 Te2 Y1"
_cell_length_a       5.532860403755491
_cell_length_b       6.7356858499482275
_cell_length_c       11.359211921691895
_cell_angle_alpha    89.1991725664333
_cell_angle_beta     89.68688826812938
_cell_angle_gamma    112.67388503395387

_space_group_name_H-M_alt    "P 1"
_space_group_IT_number       1

loop_
  _space_group_symop_operation_xyz
  'x, y, z'

loop_
  _atom_site_type_symbol
  _atom_site_label
  _atom_site_symmetry_multiplicity
  _atom_site_fract_x
  _atom_site_fract_y
  _atom_site_fract_z
  _atom_site_occupancy
  K   K1        1.0  0.29571065306663513  0.6373869776725769  0.28192055225372314  1.0000
  K   K2        1.0  0.7817493677139282  0.9891142249107361  0.47144365310668945  1.0000
  K   K3        1.0  0.2782129943370819  0.38635408878326416  0.7228732109069824  1.0000
  Pt  Pt1       1.0  0.22509542107582092  0.7184978127479553  0.4780762195587158  1.0000
  Pt  Pt2       1.0  0.10039814561605453  0.8958007097244263  0.19963115453720093  1.0000
  Rh  Rh1       1.0  0.8001623153686523  0.0616915263235569  0.7979902625083923  1.0000
  S   S1        1.0  0.5600041151046753  0.5823265314102173  0.7832310199737549  1.0000
  Te  Te1       1.0  0.12618814408779144  0.9012024998664856  0.624153733253479  1.0000
  Te  Te2       1.0  0.6368944644927979  0.3221614956855774  0.464149534702301  1.0000
  Y   Y1        1.0  0.9270703196525574  0.27944299578666687  0.9738548994064331  1.0000
