data_image0
_chemical_formula_structural       Pt4Te6
_chemical_formula_sum              "Pt4 Te6"
_cell_length_a       5.2378410509584965
_cell_length_b       5.593418048492224
_cell_length_c       15.184070587158203
_cell_angle_alpha    97.07668007845547
_cell_angle_beta     89.81895839395001
_cell_angle_gamma    117.39468192584363

_space_group_name_H-M_alt    "P 1"
_space_group_IT_number       1

loop_
  _space_group_symop_operation_xyz
  'x, y, z'

loop_
  _atom_site_type_symbol
  _atom_site_label
  _atom_site_symmetry_multiplicity
  _atom_site_fract_x
  _atom_site_fract_y
  _atom_site_fract_z
  _atom_site_occupancy
  Pt  Pt1       1.0  0.033448632806539536  0.1334531605243683  0.9478380680084227  1.0000
  Pt  Pt2       1.0  0.758529543876648  0.4877816438674927  0.5204012989997864  1.0000
  Pt  Pt3       1.0  0.6655944585800171  0.17329715192317963  0.4592083692550659  1.0000
  Pt  Pt4       1.0  0.1325678825378418  0.32131749391555786  0.36465689539909363  1.0000
  Te  Te1       1.0  0.8419010639190674  0.6586241126060486  0.12003841251134871  1.0000
  Te  Te2       1.0  0.9674042463302612  0.9854738712310791  0.44030165672302246  1.0000
  Te  Te3       1.0  0.3722676634788513  0.1734222173690796  0.012140437960624695  1.0000
  Te  Te4       1.0  0.6340154409408569  0.521946132183075  0.3155011534690857  1.0000
  Te  Te5       1.0  0.016633374616503716  0.32136568427085876  0.8519220352172852  1.0000
  Te  Te6       1.0  0.6247360706329346  0.30001798272132874  0.13898339867591858  1.0000
