data_image0
_chemical_formula_structural       K3Pt4Te2Y
_chemical_formula_sum              "K3 Pt4 Te2 Y1"
_cell_length_a       5.1004962013772
_cell_length_b       5.839033149877483
_cell_length_c       12.644743919372559
_cell_angle_alpha    89.85415432862703
_cell_angle_beta     89.80054876862825
_cell_angle_gamma    114.09184446577777

_space_group_name_H-M_alt    "P 1"
_space_group_IT_number       1

loop_
  _space_group_symop_operation_xyz
  'x, y, z'

loop_
  _atom_site_type_symbol
  _atom_site_label
  _atom_site_symmetry_multiplicity
  _atom_site_fract_x
  _atom_site_fract_y
  _atom_site_fract_z
  _atom_site_occupancy
  K   K1        1.0  0.5849746465682983  0.2619538903236389  0.7861661911010742  1.0000
  K   K2        1.0  0.04909173771739006  0.5304706692695618  0.7900049090385437  1.0000
  K   K3        1.0  0.5355361104011536  0.3518398106098175  0.9668323993682861  1.0000
  Pt  Pt1       1.0  0.03645622730255127  0.8839679956436157  0.6023874282836914  1.0000
  Pt  Pt2       1.0  0.4491767883300781  0.9275602102279663  0.391478568315506  1.0000
  Pt  Pt3       1.0  0.24697090685367584  0.3331242799758911  0.6102986335754396  1.0000
  Pt  Pt4       1.0  0.5519657135009766  0.7731476426124573  0.2795546352863312  1.0000
  Te  Te1       1.0  0.09605994075536728  0.8188362121582031  0.9618294835090637  1.0000
  Te  Te2       1.0  0.04564855247735977  0.28775671124458313  0.7830613255500793  1.0000
  Y   Y1        1.0  0.8246292471885681  0.9907328486442566  0.46565279364585876  1.0000
