data_image0
_chemical_formula_structural       HgK2NPPt4Te
_chemical_formula_sum              "Hg1 K2 N1 P1 Pt4 Te1"
_cell_length_a       5.018114147412036
_cell_length_b       5.934529749501447
_cell_length_c       11.175779342651367
_cell_angle_alpha    90.09658394614735
_cell_angle_beta     90.16962874337297
_cell_angle_gamma    88.65781039849034

_space_group_name_H-M_alt    "P 1"
_space_group_IT_number       1

loop_
  _space_group_symop_operation_xyz
  'x, y, z'

loop_
  _atom_site_type_symbol
  _atom_site_label
  _atom_site_symmetry_multiplicity
  _atom_site_fract_x
  _atom_site_fract_y
  _atom_site_fract_z
  _atom_site_occupancy
  Hg  Hg1       1.0  0.910932719707489  0.45165157318115234  0.15098974108695984  1.0000
  K   K1        1.0  0.419207364320755  0.4623296558856964  0.6509926915168762  1.0000
  K   K2        1.0  0.90793776512146  0.6990277171134949  0.4349334239959717  1.0000
  N   N1        1.0  0.4040948152542114  0.6944812536239624  0.050411757081747055  1.0000
  P   P1        1.0  0.8791404962539673  0.6944122910499573  0.7961803078651428  1.0000
  Pt  Pt1       1.0  0.4087677001953125  0.6982637643814087  0.7994529008865356  1.0000
  Pt  Pt2       1.0  0.40545129776000977  0.06503318250179291  0.13911522924900055  1.0000
  Pt  Pt3       1.0  0.8709427714347839  0.9731371998786926  0.5480618476867676  1.0000
  Pt  Pt4       1.0  0.4046801030635834  0.6857008934020996  0.930695116519928  1.0000
  Te  Te1       1.0  0.9093719720840454  0.9731526374816895  0.6507959961891174  1.0000
