data_image0
_chemical_formula_structural       KPt4Te5
_chemical_formula_sum              "K1 Pt4 Te5"
_cell_length_a       4.686366783775797
_cell_length_b       4.841425910856465
_cell_length_c       13.78286075592041
_cell_angle_alpha    91.84218052696998
_cell_angle_beta     88.95888358064813
_cell_angle_gamma    117.31892380568239

_space_group_name_H-M_alt    "P 1"
_space_group_IT_number       1

loop_
  _space_group_symop_operation_xyz
  'x, y, z'

loop_
  _atom_site_type_symbol
  _atom_site_label
  _atom_site_symmetry_multiplicity
  _atom_site_fract_x
  _atom_site_fract_y
  _atom_site_fract_z
  _atom_site_occupancy
  K   K1        1.0  0.7504357099533081  0.44177958369255066  0.6958327889442444  1.0000
  Pt  Pt1       1.0  0.12465737015008926  0.6896381378173828  0.7124962210655212  1.0000
  Pt  Pt2       1.0  0.7352461218833922  0.9632165431976317  0.400853544473648  1.0000
  Pt  Pt3       1.0  0.8031097650527954  0.7187570333480835  0.6016038060188293  1.0000
  Pt  Pt4       1.0  0.28999125957489014  0.1779320240020752  0.37312233448028564  1.0000
  Te  Te1       1.0  0.5758656859397888  0.20959725975990295  0.7705312967300415  1.0000
  Te  Te2       1.0  0.10774029046297073  0.7073744535446167  0.7203605771064758  1.0000
  Te  Te3       1.0  0.09579836577177048  0.6933296322822571  0.22357235848903656  1.0000
  Te  Te4       1.0  0.09442423284053802  0.020663008093833923  0.7656487822532654  1.0000
  Te  Te5       1.0  0.60506671667099  0.7057595252990723  0.2689696252346039  1.0000
