data_image0
_chemical_formula_structural       HLa5LuO2Ti
_chemical_formula_sum              "H1 La5 Lu1 O2 Ti1"
_cell_length_a       5.818472552100459
_cell_length_b       5.0653896954555355
_cell_length_c       6.586179256439209
_cell_angle_alpha    85.73074587140384
_cell_angle_beta     66.38466534252304
_cell_angle_gamma    58.232519835673074

_space_group_name_H-M_alt    "P 1"
_space_group_IT_number       1

loop_
  _space_group_symop_operation_xyz
  'x, y, z'

loop_
  _atom_site_type_symbol
  _atom_site_label
  _atom_site_symmetry_multiplicity
  _atom_site_fract_x
  _atom_site_fract_y
  _atom_site_fract_z
  _atom_site_occupancy
  H   H1        1.0  0.7469560503959656  0.7562418580055237  0.9652262330055237  1.0000
  La  La1       1.0  0.25843554735183716  0.2732964754104614  0.28819650411605835  1.0000
  La  La2       1.0  0.2541276812553406  0.6267082691192627  0.16983310878276825  1.0000
  La  La3       1.0  0.7602349519729614  0.3728991150856018  0.33165064454078674  1.0000
  La  La4       1.0  0.919870138168335  0.2318866103887558  0.09180450439453125  1.0000
  La  La5       1.0  0.23043112456798553  0.5441164374351501  0.0654206871986389  1.0000
  Lu  Lu1       1.0  0.787738025188446  0.3162587285041809  0.0013721762225031517  1.0000
  O   O1        1.0  0.7121890783309937  0.42639610171318054  0.4144049882888794  1.0000
  O   O2        1.0  0.39466556906700134  0.18424472212791443  0.5106459856033325  1.0000
  Ti  Ti1       1.0  0.49462926387786865  0.9072902202606201  0.7723426222801208  1.0000
