data_image0
_chemical_formula_structural       GaILa5NiOP
_chemical_formula_sum              "Ga1 I1 La5 Ni1 O1 P1"
_cell_length_a       5.202432601177404
_cell_length_b       5.223719675073868
_cell_length_c       9.090764999389648
_cell_angle_alpha    107.6717647404427
_cell_angle_beta     94.89477432674869
_cell_angle_gamma    104.58686010235168

_space_group_name_H-M_alt    "P 1"
_space_group_IT_number       1

loop_
  _space_group_symop_operation_xyz
  'x, y, z'

loop_
  _atom_site_type_symbol
  _atom_site_label
  _atom_site_symmetry_multiplicity
  _atom_site_fract_x
  _atom_site_fract_y
  _atom_site_fract_z
  _atom_site_occupancy
  Ga  Ga1       1.0  0.456623375415802  0.7607826590538025  0.19463038444519043  1.0000
  I   I1        1.0  0.743320643901825  0.9855234026908875  0.713605523109436  1.0000
  La  La1       1.0  0.466730535030365  0.6096040606498718  0.661345362663269  1.0000
  La  La2       1.0  0.4584629535675049  0.6542075872421265  0.3309068977832794  1.0000
  La  La3       1.0  0.750065267086029  0.258556991815567  0.7720708847045898  1.0000
  La  La4       1.0  0.986551821231842  0.628179669380188  0.5413275361061096  1.0000
  La  La5       1.0  0.4732363224029541  0.052417296916246414  0.1850215643644333  1.0000
  Ni  Ni1       1.0  0.9595590233802795  0.6345230937004089  0.3025534152984619  1.0000
  O   O1        1.0  0.9866032004356384  0.8933787941932678  0.9889689087867737  1.0000
  P   P1        1.0  0.46671217679977417  0.8562437295913696  0.5925650596618652  1.0000
