data_image0
_chemical_formula_structural       La6Ni3O
_chemical_formula_sum              "La6 Ni3 O1"
_cell_length_a       5.184121973184435
_cell_length_b       5.696915274809728
_cell_length_c       6.374728202819824
_cell_angle_alpha    76.40898585250315
_cell_angle_beta     64.28166968267298
_cell_angle_gamma    56.78046909918496

_space_group_name_H-M_alt    "P 1"
_space_group_IT_number       1

loop_
  _space_group_symop_operation_xyz
  'x, y, z'

loop_
  _atom_site_type_symbol
  _atom_site_label
  _atom_site_symmetry_multiplicity
  _atom_site_fract_x
  _atom_site_fract_y
  _atom_site_fract_z
  _atom_site_occupancy
  La  La1       1.0  0.2093103677034378  0.6546860337257385  0.49792182445526123  1.0000
  La  La2       1.0  0.07531238347291946  0.5795952677726746  0.7691695094108582  1.0000
  La  La3       1.0  0.7198672890663147  0.041878774762153625  0.5409685969352722  1.0000
  La  La4       1.0  0.22477750480175018  0.26018279790878296  0.8789601922035217  1.0000
  La  La5       1.0  0.7261256575584412  0.9603275656700134  0.9073514938354492  1.0000
  La  La6       1.0  0.7341203093528748  0.7542814016342163  0.8256274461746216  1.0000
  Ni  Ni1       1.0  0.2041701227426529  0.5634617805480957  0.8216148614883423  1.0000
  Ni  Ni2       1.0  0.583351731300354  0.09604056924581528  0.8147191405296326  1.0000
  Ni  Ni3       1.0  0.41046395897865295  0.5366516709327698  0.07632903009653091  1.0000
  O   O1        1.0  0.5902705788612366  0.953070878982544  0.5295668840408325  1.0000
