data_image0
_chemical_formula_structural       HLa7OZn
_chemical_formula_sum              "H1 La7 O1 Zn1"
_cell_length_a       4.906211602551837
_cell_length_b       5.989643693300024
_cell_length_c       7.81393575668335
_cell_angle_alpha    115.83709937489458
_cell_angle_beta     91.14917687998643
_cell_angle_gamma    91.99388893779452

_space_group_name_H-M_alt    "P 1"
_space_group_IT_number       1

loop_
  _space_group_symop_operation_xyz
  'x, y, z'

loop_
  _atom_site_type_symbol
  _atom_site_label
  _atom_site_symmetry_multiplicity
  _atom_site_fract_x
  _atom_site_fract_y
  _atom_site_fract_z
  _atom_site_occupancy
  H   H1        1.0  0.05868927761912346  0.45295777916908264  0.12181531637907025  1.0000
  La  La1       1.0  0.060366205871105194  0.40370863676071167  0.7055798172950745  1.0000
  La  La2       1.0  0.06217120215296745  0.3053146004676819  0.45959216356277466  1.0000
  La  La3       1.0  0.05556952580809593  0.17257143557071686  0.0430678054690361  1.0000
  La  La4       1.0  0.5705106258392334  0.28929874300956726  0.23835718631744385  1.0000
  La  La5       1.0  0.5627807378768921  0.31368333101272583  0.0446210615336895  1.0000
  La  La6       1.0  0.07151320576667786  0.06664037704467773  0.41268670558929443  1.0000
  La  La7       1.0  0.07559660077095032  0.07264194637537003  0.600911021232605  1.0000
  O   O1        1.0  0.5541753172874451  0.9369297623634338  0.8023557066917419  1.0000
  Zn  Zn1       1.0  0.5602638125419617  0.9542477130889893  0.497881144285202  1.0000
