data_image0
_chemical_formula_structural       AlILa3Ni2OPTl
_chemical_formula_sum              "Al1 I1 La3 Ni2 O1 P1 Tl1"
_cell_length_a       5.0971062278565675
_cell_length_b       5.231889350068176
_cell_length_c       6.843015670776367
_cell_angle_alpha    110.79839424846377
_cell_angle_beta     100.88924791802519
_cell_angle_gamma    94.028687160059

_space_group_name_H-M_alt    "P 1"
_space_group_IT_number       1

loop_
  _space_group_symop_operation_xyz
  'x, y, z'

loop_
  _atom_site_type_symbol
  _atom_site_label
  _atom_site_symmetry_multiplicity
  _atom_site_fract_x
  _atom_site_fract_y
  _atom_site_fract_z
  _atom_site_occupancy
  Al  Al1       1.0  0.41871288418769836  0.15668541193008423  0.7041317224502563  1.0000
  I   I1        1.0  0.9316752552986145  0.20294010639190674  0.07012267410755157  1.0000
  La  La1       1.0  0.021553296595811844  0.28303274512290955  0.4612303674221039  1.0000
  La  La2       1.0  0.7914348244667053  0.2622567415237427  0.026773160323500633  1.0000
  La  La3       1.0  0.12529103457927704  0.27211907505989075  0.7148473262786865  1.0000
  Ni  Ni1       1.0  0.4670095443725586  0.7624801993370056  0.8621959686279297  1.0000
  Ni  Ni2       1.0  0.46107083559036255  0.515326976776123  0.8377514481544495  1.0000
  O   O1        1.0  0.7704135179519653  0.44724950194358826  0.13214115798473358  1.0000
  P   P1        1.0  0.8683176636695862  0.5746797919273376  0.4277864694595337  1.0000
  Tl  Tl1       1.0  0.4601544737815857  0.9710529446601869  0.841292142868042  1.0000
