data_image0
_chemical_formula_structural       La5Ni3O2
_chemical_formula_sum              "La5 Ni3 O2"
_cell_length_a       4.457139969970464
_cell_length_b       2.984168097944103
_cell_length_c       6.847982406616211
_cell_angle_alpha    108.79342147079677
_cell_angle_beta     85.36147079708265
_cell_angle_gamma    83.28410156904037

_space_group_name_H-M_alt    "P 1"
_space_group_IT_number       1

loop_
  _space_group_symop_operation_xyz
  'x, y, z'

loop_
  _atom_site_type_symbol
  _atom_site_label
  _atom_site_symmetry_multiplicity
  _atom_site_fract_x
  _atom_site_fract_y
  _atom_site_fract_z
  _atom_site_occupancy
  La  La1       1.0  0.36497387290000916  0.6430231928825378  0.512617290019989  1.0000
  La  La2       1.0  0.8615316152572632  0.290156751871109  0.19728440046310425  1.0000
  La  La3       1.0  0.354159414768219  0.042140893638134  0.04045909643173218  1.0000
  La  La4       1.0  0.34598174691200256  0.7177388072013855  0.5237138271331787  1.0000
  La  La5       1.0  0.36070486903190613  0.8913192749023438  0.02516973949968815  1.0000
  Ni  Ni1       1.0  0.35834255814552307  0.037891488522291183  0.8945600986480713  1.0000
  Ni  Ni2       1.0  0.11291324347257614  0.8451409935951233  0.6451456546783447  1.0000
  Ni  Ni3       1.0  0.8534570336341858  0.6846922636032104  0.3608400225639343  1.0000
  O   O1        1.0  0.3147629499435425  0.6527661681175232  0.3333097994327545  1.0000
  O   O2        1.0  0.8111587762832642  0.6877584457397461  0.8867577314376831  1.0000
