data_image0
_chemical_formula_structural       PRhScSn2TmZr5
_chemical_formula_sum              "P1 Rh1 Sc1 Sn2 Tm1 Zr5"
_cell_length_a       4.455566245320758
_cell_length_b       7.75073779483271
_cell_length_c       7.6727399826049805
_cell_angle_alpha    120.36374941292483
_cell_angle_beta     89.15230162374425
_cell_angle_gamma    89.86311035614649

_space_group_name_H-M_alt    "P 1"
_space_group_IT_number       1

loop_
  _space_group_symop_operation_xyz
  'x, y, z'

loop_
  _atom_site_type_symbol
  _atom_site_label
  _atom_site_symmetry_multiplicity
  _atom_site_fract_x
  _atom_site_fract_y
  _atom_site_fract_z
  _atom_site_occupancy
  P   P1        1.0  0.5795310735702515  0.8425186276435852  0.3983919620513917  1.0000
  Rh  Rh1       1.0  0.07485102862119675  0.8607499599456787  0.3672384917736054  1.0000
  Sc  Sc1       1.0  0.07688892632722855  0.4943124353885651  0.15522520244121557  1.0000
  Sn  Sn1       1.0  0.5788248181343079  0.25525718927383423  0.5623573660850526  1.0000
  Sn  Sn2       1.0  0.5769649744033813  0.5453426241874695  0.9448034763336183  1.0000
  Tm  Tm1       1.0  0.5743293762207031  0.3123871088027954  0.24726787209510806  1.0000
  Zr  Zr1       1.0  0.5749981999397278  0.5117942094802856  0.8266276717185975  1.0000
  Zr  Zr2       1.0  0.07631563395261765  0.36333343386650085  0.5092191696166992  1.0000
  Zr  Zr3       1.0  0.5769826173782349  0.12469283491373064  0.6418033242225648  1.0000
  Zr  Zr4       1.0  0.0763348937034607  0.012129608541727066  0.12858884036540985  1.0000
  Zr  Zr5       1.0  0.07561500370502472  0.8487815856933594  0.6223610043525697  1.0000
