data_image0
_chemical_formula_structural       P2RhScSmSn2Zr4
_chemical_formula_sum              "P2 Rh1 Sc1 Sm1 Sn2 Zr4"
_cell_length_a       4.896109691810491
_cell_length_b       7.8522291927075205
_cell_length_c       7.9129319190979
_cell_angle_alpha    121.18336223376492
_cell_angle_beta     88.8219658582508
_cell_angle_gamma    89.8773797372176

_space_group_name_H-M_alt    "P 1"
_space_group_IT_number       1

loop_
  _space_group_symop_operation_xyz
  'x, y, z'

loop_
  _atom_site_type_symbol
  _atom_site_label
  _atom_site_symmetry_multiplicity
  _atom_site_fract_x
  _atom_site_fract_y
  _atom_site_fract_z
  _atom_site_occupancy
  P   P1        1.0  0.19006198644638062  0.9108453989028931  0.7293784618377686  1.0000
  P   P2        1.0  0.18506263196468353  0.5248554944992065  0.1693238615989685  1.0000
  Rh  Rh1       1.0  0.18768370151519775  0.1330181062221527  0.0036655545700341463  1.0000
  Sc  Sc1       1.0  0.691348135471344  0.9358788132667542  0.4762972891330719  1.0000
  Sm  Sm1       1.0  0.18619078397750854  0.6459800004959106  0.5638332962989807  1.0000
  Sn  Sn1       1.0  0.6884722113609314  0.1041007712483406  0.652295708656311  1.0000
  Sn  Sn2       1.0  0.1874769777059555  0.8071637153625488  0.6333260536193848  1.0000
  Zr  Zr1       1.0  0.6864665150642395  0.09802302718162537  0.7105798125267029  1.0000
  Zr  Zr2       1.0  0.18602557480335236  0.4776538908481598  0.1907881647348404  1.0000
  Zr  Zr3       1.0  0.6871147155761719  0.6446276903152466  0.031527481973171234  1.0000
  Zr  Zr4       1.0  0.6860175132751465  0.4055139422416687  0.4066550135612488  1.0000
