data_image0
_chemical_formula_structural       Rh3Sn5Zr3
_chemical_formula_sum              "Rh3 Sn5 Zr3"
_cell_length_a       4.567413466124803
_cell_length_b       7.531368021161811
_cell_length_c       7.26978874206543
_cell_angle_alpha    124.1596366701974
_cell_angle_beta     91.80927765032989
_cell_angle_gamma    89.55070424029859

_space_group_name_H-M_alt    "P 1"
_space_group_IT_number       1

loop_
  _space_group_symop_operation_xyz
  'x, y, z'

loop_
  _atom_site_type_symbol
  _atom_site_label
  _atom_site_symmetry_multiplicity
  _atom_site_fract_x
  _atom_site_fract_y
  _atom_site_fract_z
  _atom_site_occupancy
  Rh  Rh1       1.0  0.5699439644813538  0.25822120904922485  0.2096406668424606  1.0000
  Rh  Rh2       1.0  0.5674914717674255  0.6423516273498535  0.11088002473115915  1.0000
  Rh  Rh3       1.0  0.07158233970403671  0.9423199892044067  0.5721566677093505  1.0000
  Sn  Sn1       1.0  0.0726214349269867  0.5738909244537354  0.3707673251628876  1.0000
  Sn  Sn2       1.0  0.5800136923789978  0.831701934337616  0.2012053877115249  1.0000
  Sn  Sn3       1.0  0.5775108933448792  0.6197190284729004  0.8315093517303467  1.0000
  Sn  Sn4       1.0  0.5676219463348389  0.32806286215782166  0.5909693837165833  1.0000
  Sn  Sn5       1.0  0.566815197467804  0.1446705311536789  0.7590174078941345  1.0000
  Zr  Zr1       1.0  0.07210629433393478  0.8888165354728699  0.18673235177993763  1.0000
  Zr  Zr2       1.0  0.07071210443973541  0.13142943382263184  0.954137921333313  1.0000
  Zr  Zr3       1.0  0.5849778056144714  0.41086915135383606  0.8907575607299805  1.0000
