data_image0
_chemical_formula_structural       Rh4Sn4Zr3
_chemical_formula_sum              "Rh4 Sn4 Zr3"
_cell_length_a       4.695589327565501
_cell_length_b       7.577597780648374
_cell_length_c       7.669802665710449
_cell_angle_alpha    122.39137806960751
_cell_angle_beta     93.32083829397143
_cell_angle_gamma    88.77107587593993

_space_group_name_H-M_alt    "P 1"
_space_group_IT_number       1

loop_
  _space_group_symop_operation_xyz
  'x, y, z'

loop_
  _atom_site_type_symbol
  _atom_site_label
  _atom_site_symmetry_multiplicity
  _atom_site_fract_x
  _atom_site_fract_y
  _atom_site_fract_z
  _atom_site_occupancy
  Rh  Rh1       1.0  0.42520013451576233  0.9923912882804871  0.2245650589466095  1.0000
  Rh  Rh2       1.0  0.9243745803833008  0.6255650520324707  0.3401964604854583  1.0000
  Rh  Rh3       1.0  0.4264753460884094  0.6884255409240723  0.7624047994613647  1.0000
  Rh  Rh4       1.0  0.8973501324653625  0.4350481331348419  0.3033903241157532  1.0000
  Sn  Sn1       1.0  0.903129518032074  0.42502039670944214  0.4344790577888489  1.0000
  Sn  Sn2       1.0  0.42508774995803833  0.8684400320053101  0.9001962542533875  1.0000
  Sn  Sn3       1.0  0.42274224758148193  0.6187264919281006  0.011497979983687342  1.0000
  Sn  Sn4       1.0  0.41523170471191406  0.0674499049782753  0.08957371115684509  1.0000
  Zr  Zr1       1.0  0.9248787760734558  0.36616939306259155  0.5226386189460754  1.0000
  Zr  Zr2       1.0  0.917558491230011  0.860333263874054  0.5723762512207031  1.0000
  Zr  Zr3       1.0  0.9241093993186951  0.04117598384618759  0.8028317093849182  1.0000
