data_image0
_chemical_formula_structural       Rh2Sn4Zr5
_chemical_formula_sum              "Rh2 Sn4 Zr5"
_cell_length_a       4.888738076953148
_cell_length_b       8.060389608079552
_cell_length_c       7.982452392578125
_cell_angle_alpha    121.02681939757927
_cell_angle_beta     87.77467784073076
_cell_angle_gamma    89.36566823888849

_space_group_name_H-M_alt    "P 1"
_space_group_IT_number       1

loop_
  _space_group_symop_operation_xyz
  'x, y, z'

loop_
  _atom_site_type_symbol
  _atom_site_label
  _atom_site_symmetry_multiplicity
  _atom_site_fract_x
  _atom_site_fract_y
  _atom_site_fract_z
  _atom_site_occupancy
  Rh  Rh1       1.0  0.8325463533401489  0.34657391905784607  0.8279291987419128  1.0000
  Rh  Rh2       1.0  0.33286088705062866  0.8055019974708557  0.15293855965137476  1.0000
  Sn  Sn1       1.0  0.8357217907905579  0.009153559803962708  0.39099323749542236  1.0000
  Sn  Sn2       1.0  0.8311087489128113  0.5364459753036499  0.12227709591388697  1.0000
  Sn  Sn3       1.0  0.333874374628067  0.25974154472351074  0.7898598313331604  1.0000
  Sn  Sn4       1.0  0.33506321907043457  0.7343282699584961  0.458819568157196  1.0000
  Zr  Zr1       1.0  0.8326395750045776  0.8550986647605896  0.548084557056427  1.0000
  Zr  Zr2       1.0  0.8324301838874817  0.18351441621780396  0.5056828856468201  1.0000
  Zr  Zr3       1.0  0.8320727944374084  0.5082155466079712  0.9453524351119995  1.0000
  Zr  Zr4       1.0  0.33315110206604004  0.3156243860721588  0.7298282980918884  1.0000
  Zr  Zr5       1.0  0.830059826374054  0.8639464378356934  0.2733959257602691  1.0000
