data_image0
_chemical_formula_structural       ClRh3Sn2Zr5
_chemical_formula_sum              "Cl1 Rh3 Sn2 Zr5"
_cell_length_a       4.955022221998633
_cell_length_b       8.424097241216188
_cell_length_c       8.390097618103027
_cell_angle_alpha    119.8787875719039
_cell_angle_beta     89.17478855460382
_cell_angle_gamma    89.48307967619368

_space_group_name_H-M_alt    "P 1"
_space_group_IT_number       1

loop_
  _space_group_symop_operation_xyz
  'x, y, z'

loop_
  _atom_site_type_symbol
  _atom_site_label
  _atom_site_symmetry_multiplicity
  _atom_site_fract_x
  _atom_site_fract_y
  _atom_site_fract_z
  _atom_site_occupancy
  Cl  Cl1       1.0  0.39722949266433716  0.041028279811143875  0.13379453122615814  1.0000
  Rh  Rh1       1.0  0.4084797501564026  0.2725744843482971  0.3253277540206909  1.0000
  Rh  Rh2       1.0  0.9029271006584167  0.22511200606822965  0.6913531422615051  1.0000
  Rh  Rh3       1.0  0.40706777572631836  0.7404966354370117  0.4171208143234253  1.0000
  Sn  Sn1       1.0  0.9013001322746277  0.39631372690200806  0.9280722141265869  1.0000
  Sn  Sn2       1.0  0.3959774971008301  0.24812681972980496  0.7422826886177063  1.0000
  Zr  Zr1       1.0  0.3986639678478241  0.5759385228157043  0.6692823171615601  1.0000
  Zr  Zr2       1.0  0.4007793962955475  0.2536013126373291  0.9370577335357666  1.0000
  Zr  Zr3       1.0  0.9027225375175476  0.9153061509132384  0.7324634790420532  1.0000
  Zr  Zr4       1.0  0.9038062691688538  0.6687352061271667  0.3477398455142975  1.0000
  Zr  Zr5       1.0  0.9015010595321655  0.5648252367973328  0.2317325472831726  1.0000
