data_image0
_chemical_formula_structural       Mg3O5PSi
_chemical_formula_sum              "Mg3 O5 P1 Si1"
_cell_length_a       5.389506487913121
_cell_length_b       5.419918161426129
_cell_length_c       5.8026533126831055
_cell_angle_alpha    59.66660685072004
_cell_angle_beta     60.40282412139417
_cell_angle_gamma    57.5706450102

_space_group_name_H-M_alt    "P 1"
_space_group_IT_number       1

loop_
  _space_group_symop_operation_xyz
  'x, y, z'

loop_
  _atom_site_type_symbol
  _atom_site_label
  _atom_site_symmetry_multiplicity
  _atom_site_fract_x
  _atom_site_fract_y
  _atom_site_fract_z
  _atom_site_occupancy
  Mg  Mg1       1.0  0.13583000004291534  0.6213527321815491  0.2818674147129059  1.0000
  Mg  Mg2       1.0  0.2673569619655609  0.48726314306259155  0.995872437953949  1.0000
  Mg  Mg3       1.0  0.19455920159816742  0.9934501647949219  0.1813374012708664  1.0000
  O   O1        1.0  0.797637939453125  0.08899824321269989  0.6029993295669556  1.0000
  O   O2        1.0  0.48751014471054077  0.4074823558330536  0.6586021184921265  1.0000
  O   O3        1.0  0.08403467386960983  0.8185366988182068  0.8352124691009521  1.0000
  O   O4        1.0  0.46815812587738037  0.9108253717422485  0.13297311961650848  1.0000
  O   O5        1.0  0.5683561563491821  0.5643999576568604  0.4550046920776367  1.0000
  P   P1        1.0  0.7634736895561218  0.9984226226806641  0.46278610825538635  1.0000
  Si  Si1       1.0  0.7068771123886108  0.39816656708717346  0.21059922873973846  1.0000
