data_image0
_chemical_formula_structural       LuMg3O5Si
_chemical_formula_sum              "Lu1 Mg3 O5 Si1"
_cell_length_a       5.513428148147835
_cell_length_b       6.191850022055694
_cell_length_c       5.69601583480835
_cell_angle_alpha    60.29509290521583
_cell_angle_beta     62.167465421664964
_cell_angle_gamma    61.68633945208601

_space_group_name_H-M_alt    "P 1"
_space_group_IT_number       1

loop_
  _space_group_symop_operation_xyz
  'x, y, z'

loop_
  _atom_site_type_symbol
  _atom_site_label
  _atom_site_symmetry_multiplicity
  _atom_site_fract_x
  _atom_site_fract_y
  _atom_site_fract_z
  _atom_site_occupancy
  Lu  Lu1       1.0  0.8835795521736145  0.37675294280052185  0.766706347465515  1.0000
  Mg  Mg1       1.0  0.3847252428531647  0.40476977825164795  0.1510661393404007  1.0000
  Mg  Mg2       1.0  0.42218971252441406  0.9036686420440674  0.11488561332225798  1.0000
  Mg  Mg3       1.0  0.42387518286705017  0.4063153862953186  0.4016095101833343  1.0000
  O   O1        1.0  0.5739458203315735  0.18726465106010437  0.9655383825302123  1.0000
  O   O2        1.0  0.04344338923692703  0.9144174456596375  0.9610604047775267  1.0000
  O   O3        1.0  0.5596643090248108  0.7439141869544983  0.39243471622467035  1.0000
  O   O4        1.0  0.9201061129570007  0.44492435455322266  0.20384196937084195  1.0000
  O   O5        1.0  0.4221847951412201  0.7405644655227661  0.5502891540527344  1.0000
  Si  Si1       1.0  0.391182541847229  0.6608474254608154  0.09018752723932266  1.0000
