data_image0
_chemical_formula_structural       MgO4SeSi4
_chemical_formula_sum              "Mg1 O4 Se1 Si4"
_cell_length_a       5.781398897951234
_cell_length_b       6.283245876229925
_cell_length_c       6.414515018463135
_cell_angle_alpha    67.37661289165709
_cell_angle_beta     63.575582927203136
_cell_angle_gamma    63.202552017842024

_space_group_name_H-M_alt    "P 1"
_space_group_IT_number       1

loop_
  _space_group_symop_operation_xyz
  'x, y, z'

loop_
  _atom_site_type_symbol
  _atom_site_label
  _atom_site_symmetry_multiplicity
  _atom_site_fract_x
  _atom_site_fract_y
  _atom_site_fract_z
  _atom_site_occupancy
  Mg  Mg1       1.0  0.4830837845802307  0.30111125111579895  0.0034219643566757267  1.0000
  O   O1        1.0  0.5063816905021667  0.5169677734375  0.7636411190032959  1.0000
  O   O2        1.0  0.43502068519592285  0.9415894746780396  0.3877693712711334  1.0000
  O   O3        1.0  0.8536170721054077  0.33727747201919556  0.18140073120594025  1.0000
  O   O4        1.0  0.9140838980674744  0.5825339555740356  0.4787101745605469  1.0000
  Se  Se1       1.0  0.9735622406005859  0.2844218611717224  0.48079976439476013  1.0000
  Si  Si1       1.0  0.1424284279346466  0.8414775729179382  0.6811132431030273  1.0000
  Si  Si2       1.0  0.8700520992279053  0.8444876074790955  0.468466579914093  1.0000
  Si  Si3       1.0  0.946363091468811  0.3165206015110016  0.4442277252674103  1.0000
  Si  Si4       1.0  0.2137351930141449  0.4998553991317749  0.808812141418457  1.0000
