data_image0
_chemical_formula_structural       Mg4O2Si4
_chemical_formula_sum              "Mg4 O2 Si4"
_cell_length_a       4.343024602526262
_cell_length_b       4.647542293602204
_cell_length_c       5.926929950714111
_cell_angle_alpha    44.57735649004004
_cell_angle_beta     42.27826568979687
_cell_angle_gamma    84.29874166206521

_space_group_name_H-M_alt    "P 1"
_space_group_IT_number       1

loop_
  _space_group_symop_operation_xyz
  'x, y, z'

loop_
  _atom_site_type_symbol
  _atom_site_label
  _atom_site_symmetry_multiplicity
  _atom_site_fract_x
  _atom_site_fract_y
  _atom_site_fract_z
  _atom_site_occupancy
  Mg  Mg1       1.0  0.023823773488402297  0.34797695279121404  0.24285408854484558  1.0000
  Mg  Mg2       1.0  0.5763555765151974  0.46707993745803833  0.9811952114105226  1.0000
  Mg  Mg3       1.0  0.30183586478233365  0.3407062292098999  0.6860389113426207  1.0000
  Mg  Mg4       1.0  0.6054580807685853  0.6063726544380188  0.6720365285873412  1.0000
  O   O1        1.0  0.31635016202926614  0.08772789686918252  0.9645983576774598  1.0000
  O   O2        1.0  0.9681068062782288  0.25917753577232355  0.8639329075813293  1.0000
  Si  Si1       1.0  0.9692149758338928  0.3267543315887451  0.21971909701824185  1.0000
  Si  Si2       1.0  0.7033029794692994  0.09139537066221232  0.43409174680709833  1.0000
  Si  Si3       1.0  0.014481945894658841  0.8032584786415098  0.2873004376888275  1.0000
  Si  Si4       1.0  0.544868528842926  0.79852819442749  0.4628998041152956  1.0000
