data_image0
_chemical_formula_structural       ClMgO4Si4
_chemical_formula_sum              "Cl1 Mg1 O4 Si4"
_cell_length_a       5.310286232007836
_cell_length_b       6.219611597630914
_cell_length_c       7.1561102867126465
_cell_angle_alpha    71.05618248781154
_cell_angle_beta     67.09441523642043
_cell_angle_gamma    63.1543261628506

_space_group_name_H-M_alt    "P 1"
_space_group_IT_number       1

loop_
  _space_group_symop_operation_xyz
  'x, y, z'

loop_
  _atom_site_type_symbol
  _atom_site_label
  _atom_site_symmetry_multiplicity
  _atom_site_fract_x
  _atom_site_fract_y
  _atom_site_fract_z
  _atom_site_occupancy
  Cl  Cl1       1.0  0.9695343971252441  0.9972972273826599  0.6949836611747742  1.0000
  Mg  Mg1       1.0  0.3876084089279175  0.2513379454612732  0.7793894410133362  1.0000
  O   O1        1.0  0.8060990571975708  0.6189246773719788  0.7983782291412354  1.0000
  O   O2        1.0  0.06713064759969711  0.8129718899726868  0.4730897545814514  1.0000
  O   O3        1.0  0.5681276321411133  0.2681155204772949  0.015195389278233051  1.0000
  O   O4        1.0  0.6806487441062927  0.7511106133460999  0.6677426695823669  1.0000
  Si  Si1       1.0  0.8984159827232361  0.6068564653396606  0.5392749905586243  1.0000
  Si  Si2       1.0  0.5680983662605286  0.4318535625934601  0.4476715922355652  1.0000
  Si  Si3       1.0  0.8736072778701782  0.22476953268051147  0.9555034041404724  1.0000
  Si  Si4       1.0  0.19162502884864807  0.7656461596488953  0.17028340697288513  1.0000
