data_image0
_chemical_formula_structural       Mg4O4Si2
_chemical_formula_sum              "Mg4 O4 Si2"
_cell_length_a       5.362759316542956
_cell_length_b       5.919538114661684
_cell_length_c       5.880003452301025
_cell_angle_alpha    65.69077151103156
_cell_angle_beta     63.35592441479086
_cell_angle_gamma    62.19476059821778

_space_group_name_H-M_alt    "P 1"
_space_group_IT_number       1

loop_
  _space_group_symop_operation_xyz
  'x, y, z'

loop_
  _atom_site_type_symbol
  _atom_site_label
  _atom_site_symmetry_multiplicity
  _atom_site_fract_x
  _atom_site_fract_y
  _atom_site_fract_z
  _atom_site_occupancy
  Mg  Mg1       1.0  0.412048876285553  0.6006611585617065  0.5528637766838074  1.0000
  Mg  Mg2       1.0  0.3677876889705658  0.009291540831327438  0.6594226360321045  1.0000
  Mg  Mg3       1.0  0.8723152279853821  0.020899437367916107  0.5572205781936646  1.0000
  Mg  Mg4       1.0  0.39466747641563416  0.014616156928241253  0.8168700337409973  1.0000
  O   O1        1.0  0.4901029169559479  0.33630451560020447  0.8838452696800232  1.0000
  O   O2        1.0  0.5036149621009827  0.3726971447467804  0.844545841217041  1.0000
  O   O3        1.0  0.8807740807533264  0.5253221988677979  0.09561208635568619  1.0000
  O   O4        1.0  0.8336235880851746  0.9008203744888306  0.5751245617866516  1.0000
  Si  Si1       1.0  0.3503153324127197  0.032192133367061615  0.24952441453933716  1.0000
  Si  Si2       1.0  0.9270660877227783  0.5063956379890442  0.8787197470664978  1.0000
