data_image0
_chemical_formula_structural       Ni5ScSi4Sn
_chemical_formula_sum              "Ni5 Sc1 Si4 Sn1"
_cell_length_a       4.4153691943774085
_cell_length_b       6.275554675986438
_cell_length_c       6.786664962768555
_cell_angle_alpha    109.93850081783474
_cell_angle_beta     103.26913375503074
_cell_angle_gamma    93.19876697779549

_space_group_name_H-M_alt    "P 1"
_space_group_IT_number       1

loop_
  _space_group_symop_operation_xyz
  'x, y, z'

loop_
  _atom_site_type_symbol
  _atom_site_label
  _atom_site_symmetry_multiplicity
  _atom_site_fract_x
  _atom_site_fract_y
  _atom_site_fract_z
  _atom_site_occupancy
  Ni  Ni1       1.0  0.2952263355255127  0.2366429716348648  0.3730660080909729  1.0000
  Ni  Ni2       1.0  0.29076364636421204  0.49170538783073425  0.08100975304841995  1.0000
  Ni  Ni3       1.0  0.7963383793830872  0.09610013663768768  0.9634355306625366  1.0000
  Ni  Ni4       1.0  0.7351573705673218  0.9233095049858093  0.7509601712226868  1.0000
  Ni  Ni5       1.0  0.23589541018009186  0.7808958292007446  0.43727201223373413  1.0000
  Sc  Sc1       1.0  0.4040556848049164  0.023407887667417526  0.6514466404914856  1.0000
  Si  Si1       1.0  0.8980234861373901  0.5807815790176392  0.5409932136535645  1.0000
  Si  Si2       1.0  0.4128819406032562  0.4292539954185486  0.9684059619903564  1.0000
  Si  Si3       1.0  0.9128693342208862  0.07749831676483154  0.5887306928634644  1.0000
  Si  Si4       1.0  0.418861448764801  0.45642605423927307  0.02970339544117454  1.0000
  Sn  Sn1       1.0  0.783545970916748  0.8105378746986389  0.3982149064540863  1.0000
