data_image0
_chemical_formula_structural       CeGeNi2ScSi5Sm
_chemical_formula_sum              "Ce1 Ge1 Ni2 Sc1 Si5 Sm1"
_cell_length_a       4.53665361476364
_cell_length_b       6.055810511291535
_cell_length_c       6.455036163330078
_cell_angle_alpha    105.38864652859398
_cell_angle_beta     100.24050478356055
_cell_angle_gamma    95.8164709908178

_space_group_name_H-M_alt    "P 1"
_space_group_IT_number       1

loop_
  _space_group_symop_operation_xyz
  'x, y, z'

loop_
  _atom_site_type_symbol
  _atom_site_label
  _atom_site_symmetry_multiplicity
  _atom_site_fract_x
  _atom_site_fract_y
  _atom_site_fract_z
  _atom_site_occupancy
  Ce  Ce1       1.0  0.4159126579761505  0.1674254983663559  0.7266770601272583  1.0000
  Ge  Ge1       1.0  0.09682951122522354  0.15422673523426056  0.7646338939666748  1.0000
  Ni  Ni1       1.0  0.11843577027320862  0.43095454573631287  0.5059774518013  1.0000
  Ni  Ni2       1.0  0.09250818192958832  0.10124056041240692  0.16859221458435059  1.0000
  Sc  Sc1       1.0  0.4811118245124817  0.787124752998352  0.7404188513755798  1.0000
  Si  Si1       1.0  0.35847076773643494  0.9244025945663452  0.930535078048706  1.0000
  Si  Si2       1.0  0.7719486355781555  0.27290254831314087  0.7346519827842712  1.0000
  Si  Si3       1.0  0.8495864868164062  0.9299325942993164  0.9875735640525818  1.0000
  Si  Si4       1.0  0.8757938146591187  0.7092174291610718  0.4582992196083069  1.0000
  Si  Si5       1.0  0.8684038519859314  0.7331182360649109  0.2356511503458023  1.0000
  Sm  Sm1       1.0  0.3662293553352356  0.5493268966674805  0.4900085926055908  1.0000
