data_image0
_chemical_formula_structural       CeNi3ScSi6
_chemical_formula_sum              "Ce1 Ni3 Sc1 Si6"
_cell_length_a       4.149738008604081
_cell_length_b       6.387240597679493
_cell_length_c       6.515751838684082
_cell_angle_alpha    76.67902938039143
_cell_angle_beta     68.47444113914341
_cell_angle_gamma    70.22718268432551

_space_group_name_H-M_alt    "P 1"
_space_group_IT_number       1

loop_
  _space_group_symop_operation_xyz
  'x, y, z'

loop_
  _atom_site_type_symbol
  _atom_site_label
  _atom_site_symmetry_multiplicity
  _atom_site_fract_x
  _atom_site_fract_y
  _atom_site_fract_z
  _atom_site_occupancy
  Ce  Ce1       1.0  0.7940325140953064  0.7806277275085449  0.5934162735939026  1.0000
  Ni  Ni1       1.0  0.6781390905380249  0.37853294610977173  0.20381276309490204  1.0000
  Ni  Ni2       1.0  0.2295200675725937  0.8464493751525879  0.8345165252685547  1.0000
  Ni  Ni3       1.0  0.19738733768463135  0.8372251987457275  0.19444257020950317  1.0000
  Sc  Sc1       1.0  0.9156296253204346  0.4031621217727661  0.35043489933013916  1.0000
  Si  Si1       1.0  0.5073367357254028  0.12096566706895828  0.25165659189224243  1.0000
  Si  Si2       1.0  0.526806652545929  0.2664274573326111  0.20873858034610748  1.0000
  Si  Si3       1.0  0.02982352674007416  0.2035982608795166  0.3442050516605377  1.0000
  Si  Si4       1.0  0.7828324437141418  0.876362144947052  0.965648353099823  1.0000
  Si  Si5       1.0  0.3774685561656952  0.3244663178920746  0.5956512093544006  1.0000
  Si  Si6       1.0  0.9798305034637452  0.630038321018219  0.6035180687904358  1.0000
