data_image0
_chemical_formula_structural       Ce2GeNi3ScSi4
_chemical_formula_sum              "Ce2 Ge1 Ni3 Sc1 Si4"
_cell_length_a       5.349514736265608
_cell_length_b       5.891149312229192
_cell_length_c       6.228189468383789
_cell_angle_alpha    106.89919221927754
_cell_angle_beta     109.181545178588
_cell_angle_gamma    105.28840377683538

_space_group_name_H-M_alt    "P 1"
_space_group_IT_number       1

loop_
  _space_group_symop_operation_xyz
  'x, y, z'

loop_
  _atom_site_type_symbol
  _atom_site_label
  _atom_site_symmetry_multiplicity
  _atom_site_fract_x
  _atom_site_fract_y
  _atom_site_fract_z
  _atom_site_occupancy
  Ce  Ce1       1.0  0.06670374423265457  0.6351019144058228  0.07509665191173553  1.0000
  Ce  Ce2       1.0  0.35002478957176214  0.48210725188255316  0.1541626751422882  1.0000
  Ge  Ge1       1.0  0.013894075527787209  0.5905387997627258  0.399416446685791  1.0000
  Ni  Ni1       1.0  0.49210333824157715  0.2252386510372162  0.7963804602622986  1.0000
  Ni  Ni2       1.0  0.5273864269256592  0.6714950203895569  0.2996142506599426  1.0000
  Ni  Ni3       1.0  0.02612566016614437  0.20098282396793365  0.0823960229754448  1.0000
  Sc  Sc1       1.0  0.6931076645851135  0.21499229967594147  0.2893652319908142  1.0000
  Si  Si1       1.0  0.33632659912109375  0.0068575916811823845  0.5825849771499634  1.0000
  Si  Si2       1.0  0.6531955599784851  0.7711440920829773  0.6092538237571716  1.0000
  Si  Si3       1.0  0.9753149151802063  0.18202610313892365  0.05988205969333649  1.0000
  Si  Si4       1.0  0.9977325201034546  0.7100229263305664  0.08862221986055374  1.0000
