data_image0
_chemical_formula_structural       Ni4Sc2Si4Sm
_chemical_formula_sum              "Ni4 Sc2 Si4 Sm1"
_cell_length_a       4.256635346015792
_cell_length_b       6.476188064060876
_cell_length_c       6.381057262420654
_cell_angle_alpha    73.35533339793206
_cell_angle_beta     66.05760064350808
_cell_angle_gamma    67.57148531805811

_space_group_name_H-M_alt    "P 1"
_space_group_IT_number       1

loop_
  _space_group_symop_operation_xyz
  'x, y, z'

loop_
  _atom_site_type_symbol
  _atom_site_label
  _atom_site_symmetry_multiplicity
  _atom_site_fract_x
  _atom_site_fract_y
  _atom_site_fract_z
  _atom_site_occupancy
  Ni  Ni1       1.0  0.4355113208293915  0.48812359571456904  0.25433778762817383  1.0000
  Ni  Ni2       1.0  0.9225450754165649  0.8441579937934874  0.5968836545944214  1.0000
  Ni  Ni3       1.0  0.42620834708213806  0.3489975333213806  0.9527209997177123  1.0000
  Ni  Ni4       1.0  0.8679327964782715  0.8163524270057677  0.3533156514167785  1.0000
  Sc  Sc1       1.0  0.13328461349010473  0.8211092352867125  0.9825854301452636  1.0000
  Sc  Sc2       1.0  0.017368359491229057  0.17163147032260895  0.5912012457847595  1.0000
  Si  Si1       1.0  0.6311898827552795  0.8136124610900878  0.10817328095436095  1.0000
  Si  Si2       1.0  0.1024688109755516  0.3125944435596466  0.4258043467998504  1.0000
  Si  Si3       1.0  0.0020970150362700224  0.3170293867588043  0.08577510714530943  1.0000
  Si  Si4       1.0  0.5049470067024231  0.5896636247634888  0.34711617231369013  1.0000
  Sm  Sm1       1.0  0.4248813688755036  0.8383220434188842  0.6010169982910156  1.0000
