data_image0
_chemical_formula_structural       CeGeNi4Sc2Si3
_chemical_formula_sum              "Ce1 Ge1 Ni4 Sc2 Si3"
_cell_length_a       4.514531883869722
_cell_length_b       7.454317001661536
_cell_length_c       7.075227737426758
_cell_angle_alpha    122.4063907760551
_cell_angle_beta     86.47929584801442
_cell_angle_gamma    92.24003830481561

_space_group_name_H-M_alt    "P 1"
_space_group_IT_number       1

loop_
  _space_group_symop_operation_xyz
  'x, y, z'

loop_
  _atom_site_type_symbol
  _atom_site_label
  _atom_site_symmetry_multiplicity
  _atom_site_fract_x
  _atom_site_fract_y
  _atom_site_fract_z
  _atom_site_occupancy
  Ce  Ce1       1.0  0.9925259947776793  0.5962411165237427  0.569250226020813  1.0000
  Ge  Ge1       1.0  0.300051748752594  0.27455583214759827  0.31153032183647156  1.0000
  Ni  Ni1       1.0  0.7780735492706299  0.18818150460720065  0.15039139986038208  1.0000
  Ni  Ni2       1.0  0.30050989985466003  0.6551272869110107  0.5144174695014955  1.0000
  Ni  Ni3       1.0  0.7951081395149231  0.16405753791332245  0.8110263943672181  1.0000
  Ni  Ni4       1.0  0.7826396226882935  0.7917621135711671  0.6663955450057983  1.0000
  Sc  Sc1       1.0  0.3026743233203888  0.8100866675376893  0.4077891409397126  1.0000
  Sc  Sc2       1.0  0.7925043702125549  0.11038097739219667  0.42647004127502447  1.0000
  Si  Si1       1.0  0.7875080108642578  0.0300635788589716  0.15214179456233978  1.0000
  Si  Si2       1.0  0.9441456198692322  0.4302671849727631  0.6494553685188293  1.0000
  Si  Si3       1.0  0.795634388923645  0.509438693523407  0.144689291715622  1.0000
