data_image0
_chemical_formula_structural       BiCuDyI4SbSeZn
_chemical_formula_sum              "Bi1 Cu1 Dy1 I4 Sb1 Se1 Zn1"
_cell_length_a       6.59213775652492
_cell_length_b       7.360074440110006
_cell_length_c       9.519932746887207
_cell_angle_alpha    102.2561699580035
_cell_angle_beta     104.55340334496123
_cell_angle_gamma    105.55534829472178

_space_group_name_H-M_alt    "P 1"
_space_group_IT_number       1

loop_
  _space_group_symop_operation_xyz
  'x, y, z'

loop_
  _atom_site_type_symbol
  _atom_site_label
  _atom_site_symmetry_multiplicity
  _atom_site_fract_x
  _atom_site_fract_y
  _atom_site_fract_z
  _atom_site_occupancy
  Bi  Bi1       1.0  0.030938172712922096  0.2947978675365448  0.7896470427513123  1.0000
  Cu  Cu1       1.0  0.8289540410041809  0.8917491436004639  0.07803355902433395  1.0000
  Dy  Dy1       1.0  0.8382722735404968  0.8263940811157227  0.6782905459403992  1.0000
  I   I1        1.0  0.3013540506362915  0.5346638560295105  0.535293459892273  1.0000
  I   I2        1.0  0.34834206104278564  0.7510886788368225  0.09697728604078293  1.0000
  I   I3        1.0  0.03284536302089691  0.4079180955886841  0.6508238911628723  1.0000
  I   I4        1.0  0.3279661536216736  0.6224671006202698  0.7057288289070129  1.0000
  Sb  Sb1       1.0  0.5177812576293945  0.44319963455200195  0.8931589722633361  1.0000
  Se  Se1       1.0  0.011702360585331847  0.9795727133750914  0.9744915962219237  1.0000
  Zn  Zn1       1.0  0.5239495038986206  0.35672640800476074  0.7660470008850098  1.0000
