data_image0
_chemical_formula_structural       GaI3Sb2SeSmV2
_chemical_formula_sum              "Ga1 I3 Sb2 Se1 Sm1 V2"
_cell_length_a       6.087619462399015
_cell_length_b       8.300958328626967
_cell_length_c       8.341497421264648
_cell_angle_alpha    124.60614670419925
_cell_angle_beta     89.72567383702346
_cell_angle_gamma    89.6445543695271

_space_group_name_H-M_alt    "P 1"
_space_group_IT_number       1

loop_
  _space_group_symop_operation_xyz
  'x, y, z'

loop_
  _atom_site_type_symbol
  _atom_site_label
  _atom_site_symmetry_multiplicity
  _atom_site_fract_x
  _atom_site_fract_y
  _atom_site_fract_z
  _atom_site_occupancy
  Ga  Ga1       1.0  0.3537197709083557  0.1766689568758011  0.341612845659256  1.0000
  I   I1        1.0  0.3642841577529907  0.8633949160575867  0.4690787196159363  1.0000
  I   I2        1.0  0.36536502838134766  0.2264823168516159  0.1268758326768875  1.0000
  I   I3        1.0  0.8551691770553589  0.17290395498275757  0.9499197006225586  1.0000
  Sb  Sb1       1.0  0.3644857704639435  0.9795560240745544  0.4140819311141968  1.0000
  Sb  Sb2       1.0  0.8643324375152588  0.380635142326355  0.15313932299613955  1.0000
  Se  Se1       1.0  0.8695648908615112  0.10145684331655502  0.009181287139654166  1.0000
  Sm  Sm1       1.0  0.3547055423259735  0.7823352813720703  0.3726139962673187  1.0000
  V   V1        1.0  0.8661620020866394  0.6663591265678406  0.7780858874320984  1.0000
  V   V2        1.0  0.869963526725769  0.2303525060415268  0.12965407967567444  1.0000
