data_image0
_chemical_formula_structural       CuGeI3MgPPbZn2
_chemical_formula_sum              "Cu1 Ge1 I3 Mg1 P1 Pb1 Zn2"
_cell_length_a       6.485814308877
_cell_length_b       7.812613427289452
_cell_length_c       8.441842079162598
_cell_angle_alpha    122.16505841292758
_cell_angle_beta     96.8691355674324
_cell_angle_gamma    90.1520708598764

_space_group_name_H-M_alt    "P 1"
_space_group_IT_number       1

loop_
  _space_group_symop_operation_xyz
  'x, y, z'

loop_
  _atom_site_type_symbol
  _atom_site_label
  _atom_site_symmetry_multiplicity
  _atom_site_fract_x
  _atom_site_fract_y
  _atom_site_fract_z
  _atom_site_occupancy
  Cu  Cu1       1.0  0.10126211494207384  0.4443778991699219  0.679123044013977  1.0000
  Ge  Ge1       1.0  0.6044952869415283  0.27012258768081665  0.35822001099586487  1.0000
  I   I1        1.0  0.10178581625223161  0.6092710494995117  0.995014488697052  1.0000
  I   I2        1.0  0.11090749502182008  0.6830214858055115  0.39018231630325323  1.0000
  I   I3        1.0  0.8380293846130372  0.7300096154212952  0.7419461011886597  1.0000
  Mg  Mg1       1.0  0.6045196652412415  0.6643293499946594  0.5968142151832581  1.0000
  P   P1        1.0  0.1557350605726242  0.9204844236373901  0.8803513646125793  1.0000
  Pb  Pb1       1.0  0.6023145318031311  0.23205654323101044  0.4385775327682495  1.0000
  Zn  Zn1       1.0  0.604716956615448  0.16711729764938354  0.5491523742675781  1.0000
  Zn  Zn2       1.0  0.10438624024391176  0.7368608713150024  0.037550847977399826  1.0000
