data_image0
_chemical_formula_structural       I4Se2SrZn3
_chemical_formula_sum              "I4 Se2 Sr1 Zn3"
_cell_length_a       5.586614009952611
_cell_length_b       7.3608262720990725
_cell_length_c       7.504180431365967
_cell_angle_alpha    122.49793909660137
_cell_angle_beta     90.35646519878789
_cell_angle_gamma    91.4182026618221

_space_group_name_H-M_alt    "P 1"
_space_group_IT_number       1

loop_
  _space_group_symop_operation_xyz
  'x, y, z'

loop_
  _atom_site_type_symbol
  _atom_site_label
  _atom_site_symmetry_multiplicity
  _atom_site_fract_x
  _atom_site_fract_y
  _atom_site_fract_z
  _atom_site_occupancy
  I   I1        1.0  0.9808494448661804  0.3191830515861511  0.5750851035118102  1.0000
  I   I2        1.0  0.9817950129508972  0.2990237772464752  0.9948716163635252  1.0000
  I   I3        1.0  0.4810519814491272  0.8126870989799498  0.026722777634859023  1.0000
  I   I4        1.0  0.4848557412624359  0.7303366661071777  0.6849584579467772  1.0000
  Se  Se1       1.0  0.48355668783187866  0.5305290818214417  0.4888309836387633  1.0000
  Se  Se2       1.0  0.48532935976982117  0.5018293261528015  0.5648517608642577  1.0000
  Sr  Sr1       1.0  0.9835312962532043  0.9434525966644286  0.877837836742401  1.0000
  Zn  Zn1       1.0  0.997488260269165  0.390142947435379  0.9404213428497313  1.0000
  Zn  Zn2       1.0  0.23505018651485443  0.19187624752521512  0.04746682941913603  1.0000
  Zn  Zn3       1.0  0.7300827503204346  0.28344881534576416  0.9697945713996886  1.0000
