data_image0
_chemical_formula_structural       CuI5Se4
_chemical_formula_sum              "Cu1 I5 Se4"
_cell_length_a       4.775799476942478
_cell_length_b       6.07377025050778
_cell_length_c       11.822516441345215
_cell_angle_alpha    117.47825656445818
_cell_angle_beta     90.94540987563329
_cell_angle_gamma    91.31220211093158

_space_group_name_H-M_alt    "P 1"
_space_group_IT_number       1

loop_
  _space_group_symop_operation_xyz
  'x, y, z'

loop_
  _atom_site_type_symbol
  _atom_site_label
  _atom_site_symmetry_multiplicity
  _atom_site_fract_x
  _atom_site_fract_y
  _atom_site_fract_z
  _atom_site_occupancy
  Cu  Cu1       1.0  0.7190377712249756  0.7583438158035278  0.53202223777771  1.0000
  I   I1        1.0  0.5585848093032837  0.6075866222381592  0.2268524467945099  1.0000
  I   I2        1.0  0.2170848399400711  0.3346084654331207  0.10631722211837769  1.0000
  I   I3        1.0  0.7000208497047424  0.5781875252723694  0.053028348833322525  1.0000
  I   I4        1.0  0.7467661499977112  0.40197861194610596  0.23103511333465576  1.0000
  I   I5        1.0  0.17071890830993652  0.12674932181835175  0.8388680815696716  1.0000
  Se  Se1       1.0  0.26669299602508545  0.9455042481422424  0.3168259263038635  1.0000
  Se  Se2       1.0  0.2106526792049408  0.3990791141986847  0.45267626643180847  1.0000
  Se  Se3       1.0  0.7155464291572571  0.9135909080505371  0.34332868456840515  1.0000
  Se  Se4       1.0  0.27780434489250183  0.831007182598114  0.6487791538238525  1.0000
