data_image0
_chemical_formula_structural       CaCuI5Se3
_chemical_formula_sum              "Ca1 Cu1 I5 Se3"
_cell_length_a       6.237055053165337
_cell_length_b       6.834265367893482
_cell_length_c       9.33076000213623
_cell_angle_alpha    112.99466589059611
_cell_angle_beta     100.07762622448173
_cell_angle_gamma    101.57458882669098

_space_group_name_H-M_alt    "P 1"
_space_group_IT_number       1

loop_
  _space_group_symop_operation_xyz
  'x, y, z'

loop_
  _atom_site_type_symbol
  _atom_site_label
  _atom_site_symmetry_multiplicity
  _atom_site_fract_x
  _atom_site_fract_y
  _atom_site_fract_z
  _atom_site_occupancy
  Ca  Ca1       1.0  0.9367811679840088  0.5268619060516357  0.4997966885566711  1.0000
  Cu  Cu1       1.0  0.0069421762600541115  0.1393478959798813  0.7666590213775635  1.0000
  I   I1        1.0  0.43286314606666565  0.7345767021179199  0.9045990705490111  1.0000
  I   I2        1.0  0.9261015057563782  0.5213454961776733  0.4244186282157898  1.0000
  I   I3        1.0  0.45180821418762207  0.8411449790000916  0.8073067665100098  1.0000
  I   I4        1.0  0.4309633672237396  0.012324593029916286  0.5565557479858398  1.0000
  I   I5        1.0  0.4231351315975189  0.6394527554512024  0.5079200267791748  1.0000
  Se  Se1       1.0  0.4565550982952118  0.7552496194839478  0.4756557941436767  1.0000
  Se  Se2       1.0  0.9131284356117249  0.22520343959331512  0.052592188119888306  1.0000
  Se  Se3       1.0  0.4226073622703552  0.6689300537109375  0.8990436196327208  1.0000
