data_image0
_chemical_formula_structural       BiHRu3Tb2Tl2
_chemical_formula_sum              "Bi1 H1 Ru3 Tb2 Tl2"
_cell_length_a       6.3928376980494654
_cell_length_b       6.198321785578521
_cell_length_c       6.4687042236328125
_cell_angle_alpha    61.29790304439079
_cell_angle_beta     60.45138057508536
_cell_angle_gamma    61.04716388814656

_space_group_name_H-M_alt    "P 1"
_space_group_IT_number       1

loop_
  _space_group_symop_operation_xyz
  'x, y, z'

loop_
  _atom_site_type_symbol
  _atom_site_label
  _atom_site_symmetry_multiplicity
  _atom_site_fract_x
  _atom_site_fract_y
  _atom_site_fract_z
  _atom_site_occupancy
  Bi  Bi1       1.0  0.5917630791664124  0.6473159790039062  0.5704134106636047  1.0000
  H   H1        1.0  0.21848294138908386  0.6453693509101868  0.9096873998641969  1.0000
  Ru  Ru1       1.0  0.10360404849052429  0.645186722278595  0.7820367813110353  1.0000
  Ru  Ru2       1.0  0.3588840067386627  0.1403350979089737  0.3007378876209259  1.0000
  Ru  Ru3       1.0  0.6075486540794373  0.15129034221172333  0.5890886783599854  1.0000
  Tb  Tb1       1.0  0.3692866265773773  0.6442001461982727  0.3277589976787567  1.0000
  Tb  Tb2       1.0  0.881301760673523  0.6484647393226624  0.08409100770950317  1.0000
  Tl  Tl1       1.0  0.11618699878454208  0.1471388339996338  0.5883100628852844  1.0000
  Tl  Tl2       1.0  0.6136530041694641  0.6461635828018188  0.0819477066397667  1.0000
