data_image0
_chemical_formula_structural       HRu4SbTeTl2
_chemical_formula_sum              "H1 Ru4 Sb1 Te1 Tl2"
_cell_length_a       4.875576552699299
_cell_length_b       5.614084352321243
_cell_length_c       7.654288291931152
_cell_angle_alpha    90.72265127345766
_cell_angle_beta     90.9682977612283
_cell_angle_gamma    89.72617398179278

_space_group_name_H-M_alt    "P 1"
_space_group_IT_number       1

loop_
  _space_group_symop_operation_xyz
  'x, y, z'

loop_
  _atom_site_type_symbol
  _atom_site_label
  _atom_site_symmetry_multiplicity
  _atom_site_fract_x
  _atom_site_fract_y
  _atom_site_fract_z
  _atom_site_occupancy
  H   H1        1.0  0.5466288924217224  0.16102255880832672  0.9870287179946899  1.0000
  Ru  Ru1       1.0  0.9894838929176332  0.4554601013660431  0.31556266546249395  1.0000
  Ru  Ru2       1.0  0.2292519509792328  0.6495921015739441  0.1785859912633896  1.0000
  Ru  Ru3       1.0  0.5007721781730652  0.6492795944213867  0.19348487257957458  1.0000
  Ru  Ru4       1.0  0.49297127127647405  0.14251087605953217  0.4296003580093384  1.0000
  Sb  Sb1       1.0  0.4896915256977082  0.6433635354042053  0.5495778322219849  1.0000
  Te  Te1       1.0  0.019298022612929344  0.7280654311180115  0.692558765411377  1.0000
  Tl  Tl1       1.0  0.9846959710121156  0.37943702936172485  0.8412342071533203  1.0000
  Tl  Tl2       1.0  0.9979576468467714  0.14460952579975128  0.1900218725204468  1.0000
