data_image0
_chemical_formula_structural       Cd4CuRuTe3
_chemical_formula_sum              "Cd4 Cu1 Ru1 Te3"
_cell_length_a       6.612981239289691
_cell_length_b       7.195385532455044
_cell_length_c       7.802963733673096
_cell_angle_alpha    89.56633065210467
_cell_angle_beta     89.32977418089675
_cell_angle_gamma    89.37727752276945

_space_group_name_H-M_alt    "P 1"
_space_group_IT_number       1

loop_
  _space_group_symop_operation_xyz
  'x, y, z'

loop_
  _atom_site_type_symbol
  _atom_site_label
  _atom_site_symmetry_multiplicity
  _atom_site_fract_x
  _atom_site_fract_y
  _atom_site_fract_z
  _atom_site_occupancy
  Cd  Cd1       1.0  0.4500417113304138  0.9600651860237122  0.40681478381156927  1.0000
  Cd  Cd2       1.0  0.9465394020080566  0.4985106885433197  0.4292303919792176  1.0000
  Cd  Cd3       1.0  0.26834791898727417  0.2641316056251526  0.9390510320663453  1.0000
  Cd  Cd4       1.0  0.7589000463485718  0.0769478976726532  0.6702844500541688  1.0000
  Cu  Cu1       1.0  0.5548402667045593  0.19366344809532166  0.28598150610923767  1.0000
  Ru  Ru1       1.0  0.2145226001739502  0.5050328969955444  0.5060107111930847  1.0000
  Te  Te1       1.0  0.2831592559814453  0.920303225517273  0.9402225613594056  1.0000
  Te  Te2       1.0  0.9578872323036194  0.9928036332130432  0.78134822845459  1.0000
  Te  Te3       1.0  0.4598683714866638  0.4581179916858673  0.6645047664642335  1.0000
