data_image0
_chemical_formula_structural       CdRu2Sb4Tl2
_chemical_formula_sum              "Cd1 Ru2 Sb4 Tl2"
_cell_length_a       6.197997289665788
_cell_length_b       4.760017021363405
_cell_length_c       6.460803031921387
_cell_angle_alpha    44.342121035848756
_cell_angle_beta     59.01139639842016
_cell_angle_gamma    60.42253642086447

_space_group_name_H-M_alt    "P 1"
_space_group_IT_number       1

loop_
  _space_group_symop_operation_xyz
  'x, y, z'

loop_
  _atom_site_type_symbol
  _atom_site_label
  _atom_site_symmetry_multiplicity
  _atom_site_fract_x
  _atom_site_fract_y
  _atom_site_fract_z
  _atom_site_occupancy
  Cd  Cd1       1.0  0.36302343010902405  0.12930798530578613  0.6073061227798462  1.0000
  Ru  Ru1       1.0  0.027610646560788158  0.11145546287298201  0.5371989607810974  1.0000
  Ru  Ru2       1.0  0.06198797747492793  0.7744820117950438  0.27814036607742315  1.0000
  Sb  Sb1       1.0  0.051042683422565474  0.3669653236865997  0.11228886991739273  1.0000
  Sb  Sb2       1.0  0.715847909450531  0.3795309960842132  0.4924084544181824  1.0000
  Sb  Sb3       1.0  0.049383185803890235  0.11353198438882826  0.001127481460571289  1.0000
  Sb  Sb4       1.0  0.7349054217338562  0.3647810518741607  0.6489934921264648  1.0000
  Tl  Tl1       1.0  0.5133078694343567  0.08074849843978882  0.09580876678228374  1.0000
  Tl  Tl2       1.0  0.40243801474571234  0.8619137406349181  0.9047201871871948  1.0000
