data_image0
_chemical_formula_structural       Ru3Sb3TeTl2
_chemical_formula_sum              "Ru3 Sb3 Te1 Tl2"
_cell_length_a       6.681026821914278
_cell_length_b       6.703471313160211
_cell_length_c       6.924293041229248
_cell_angle_alpha    61.75376711394936
_cell_angle_beta     61.55958746186576
_cell_angle_gamma    61.44450419681937

_space_group_name_H-M_alt    "P 1"
_space_group_IT_number       1

loop_
  _space_group_symop_operation_xyz
  'x, y, z'

loop_
  _atom_site_type_symbol
  _atom_site_label
  _atom_site_symmetry_multiplicity
  _atom_site_fract_x
  _atom_site_fract_y
  _atom_site_fract_z
  _atom_site_occupancy
  Ru  Ru1       1.0  0.6516032218933105  0.9622718095779419  0.17925283312797546  1.0000
  Ru  Ru2       1.0  0.6706689596176147  0.16947221755981445  0.6423209309577942  1.0000
  Ru  Ru3       1.0  0.3040769696235657  0.3512418866157532  0.40608373284339905  1.0000
  Sb  Sb1       1.0  0.3061005473136902  0.859459638595581  0.8133406639099121  1.0000
  Sb  Sb2       1.0  0.9303458333015443  0.39573046565055847  0.7567442655563354  1.0000
  Sb  Sb3       1.0  0.6755982637405396  0.15741871297359467  0.1324484497308731  1.0000
  Te  Te1       1.0  0.8174878358840943  0.8089219927787781  0.4524489939212799  1.0000
  Tl  Tl1       1.0  0.2008070945739746  0.6448688507080078  0.41060373187065125  1.0000
  Tl  Tl2       1.0  0.18989241123199463  0.6606140732765198  0.08763866871595383  1.0000
