data_image0
_chemical_formula_structural       K2Ni4PS2
_chemical_formula_sum              "K2 Ni4 P1 S2"
_cell_length_a       5.754237913780569
_cell_length_b       6.386513207752905
_cell_length_c       6.537492275238037
_cell_angle_alpha    106.84028684629415
_cell_angle_beta     107.84324262924169
_cell_angle_gamma    111.62671660840424

_space_group_name_H-M_alt    "P 1"
_space_group_IT_number       1

loop_
  _space_group_symop_operation_xyz
  'x, y, z'

loop_
  _atom_site_type_symbol
  _atom_site_label
  _atom_site_symmetry_multiplicity
  _atom_site_fract_x
  _atom_site_fract_y
  _atom_site_fract_z
  _atom_site_occupancy
  K   K1        1.0  0.82535320520401  0.6796331405639648  0.23932893574237823  1.0000
  K   K2        1.0  0.1800154745578766  0.37884852290153503  0.7349333167076111  1.0000
  Ni  Ni1       1.0  0.4506976306438446  0.022837946191430092  0.3264516592025757  1.0000
  Ni  Ni2       1.0  0.44766828417778015  0.02595529332756996  0.028905002400279045  1.0000
  Ni  Ni3       1.0  0.6964600086212158  0.2615698277950287  0.7491434812545776  1.0000
  Ni  Ni4       1.0  0.20059701800346375  0.3767296075820923  0.04506099596619606  1.0000
  P   P1        1.0  0.13460931181907654  0.874544084072113  0.5360344648361206  1.0000
  S   S1        1.0  0.44795191287994385  0.531434953212738  0.3364010453224182  1.0000
  S   S2        1.0  0.9608481526374817  0.03549960255622864  0.03481433540582657  1.0000
