data_image0
_chemical_formula_structural       KNi4S3Te
_chemical_formula_sum              "K1 Ni4 S3 Te1"
_cell_length_a       5.839203747402908
_cell_length_b       6.039597770916853
_cell_length_c       6.212227821350098
_cell_angle_alpha    107.3044743920415
_cell_angle_beta     108.73184348310596
_cell_angle_gamma    110.49401385449215

_space_group_name_H-M_alt    "P 1"
_space_group_IT_number       1

loop_
  _space_group_symop_operation_xyz
  'x, y, z'

loop_
  _atom_site_type_symbol
  _atom_site_label
  _atom_site_symmetry_multiplicity
  _atom_site_fract_x
  _atom_site_fract_y
  _atom_site_fract_z
  _atom_site_occupancy
  K   K1        1.0  0.637565016746521  0.38322538137435913  0.01927299052476883  1.0000
  Ni  Ni1       1.0  0.5706095695495605  0.8778364062309265  0.18040738999843603  1.0000
  Ni  Ni2       1.0  0.30784931778907776  0.40133821964263916  0.29293763637542725  1.0000
  Ni  Ni3       1.0  0.3073626458644867  0.5887927412986755  0.7896870374679565  1.0000
  Ni  Ni4       1.0  0.28294530510902405  0.893073558807373  0.014830243773758411  1.0000
  S   S1        1.0  0.3123849630355835  0.390895277261734  0.40059828758239746  1.0000
  S   S2        1.0  0.6422224640846252  0.08534569293260574  0.739437997341156  1.0000
  S   S3        1.0  0.9916549921035768  0.8737084865570068  0.04515008628368378  1.0000
  Te  Te1       1.0  0.017052220180630684  0.11774266511201859  0.08497849851846695  1.0000
