data_image0
_chemical_formula_structural       K2Ni5S2
_chemical_formula_sum              "K2 Ni5 S2"
_cell_length_a       5.868674351744531
_cell_length_b       6.174736671604739
_cell_length_c       6.246967315673828
_cell_angle_alpha    111.77525638676609
_cell_angle_beta     108.12231992659575
_cell_angle_gamma    108.7227156991179

_space_group_name_H-M_alt    "P 1"
_space_group_IT_number       1

loop_
  _space_group_symop_operation_xyz
  'x, y, z'

loop_
  _atom_site_type_symbol
  _atom_site_label
  _atom_site_symmetry_multiplicity
  _atom_site_fract_x
  _atom_site_fract_y
  _atom_site_fract_z
  _atom_site_occupancy
  K   K1        1.0  0.7930231094360352  0.9435837268829346  0.7912599444389344  1.0000
  K   K2        1.0  0.30103054642677307  0.9636809229850769  0.29027074575424194  1.0000
  Ni  Ni1       1.0  0.06037153676152229  0.770014226436615  0.6491090655326843  1.0000
  Ni  Ni2       1.0  0.7894134521484375  0.9589381217956543  0.17687250673770905  1.0000
  Ni  Ni3       1.0  0.05263745039701462  0.7147054672241211  0.9213716387748719  1.0000
  Ni  Ni4       1.0  0.3006967306137085  0.961319625377655  0.9733344316482545  1.0000
  Ni  Ni5       1.0  0.5747145414352417  0.43218156695365906  0.6472379565238953  1.0000
  S   S1        1.0  0.08522190153598785  0.29749107360839844  0.28305500745773315  1.0000
  S   S2        1.0  0.5910135507583618  0.5159842371940613  0.29038572311401367  1.0000
