data_image0
_chemical_formula_structural       F2GaHI2LiPPbPtZn5Zr
_chemical_formula_sum              "F2 Ga1 H1 I2 Li1 P1 Pb1 Pt1 Zn5 Zr1"
_cell_length_a       7.122932761014038
_cell_length_b       7.377405207511846
_cell_length_c       7.818078517913818
_cell_angle_alpha    127.014945454126
_cell_angle_beta     89.50891533316232
_cell_angle_gamma    88.70633334248737

_space_group_name_H-M_alt    "P 1"
_space_group_IT_number       1

loop_
  _space_group_symop_operation_xyz
  'x, y, z'

loop_
  _atom_site_type_symbol
  _atom_site_label
  _atom_site_symmetry_multiplicity
  _atom_site_fract_x
  _atom_site_fract_y
  _atom_site_fract_z
  _atom_site_occupancy
  F   F1        1.0  0.9835495352745056  0.6060184836387634  0.46908032894134516  1.0000
  F   F2        1.0  0.2656039297580719  0.3790142834186554  0.6578096747398375  1.0000
  Ga  Ga1       1.0  0.25279125571250916  0.057560045272111886  0.9845198392868041  1.0000
  H   H1        1.0  0.7732712626457214  0.008000081405043602  0.04937444999814033  1.0000
  I   I1        1.0  0.2508619725704193  0.982449173927307  0.9350799322128294  1.0000
  I   I2        1.0  0.2516612112522125  0.4323102831840515  0.3184028565883636  1.0000
  Li  Li1       1.0  0.7578287720680237  0.9360899329185485  0.991366922855377  1.0000
  P   P1        1.0  0.2418852001428604  0.5868157148361206  0.7203516364097594  1.0000
  Pb  Pb1       1.0  0.49157437682151794  0.1305074840784073  0.9681032896041869  1.0000
  Pt  Pt1       1.0  0.003430853597819805  0.40251424908638  0.09704535454511638  1.0000
  Zn  Zn1       1.0  0.7566741108894348  0.5464900732040405  0.22930762171745292  1.0000
  Zn  Zn2       1.0  0.755937933921814  0.8068909645080566  0.7433846592903136  1.0000
  Zn  Zn3       1.0  0.7555327415466309  0.5284863710403442  0.8833042979240416  1.0000
  Zn  Zn4       1.0  0.5042145848274231  0.026240000501275063  0.5057490468025208  1.0000
  Zn  Zn5       1.0  0.25324809551239014  0.09704961627721786  0.17019480466842649  1.0000
  Zr  Zr1       1.0  0.25717467069625854  0.12208168953657149  0.43776324391365046  1.0000
