data_image0
_chemical_formula_structural       As2FH2I2PbPtVZn6
_chemical_formula_sum              "As2 F1 H2 I2 Pb1 Pt1 V1 Zn6"
_cell_length_a       6.755247397391038
_cell_length_b       7.7673829954565585
_cell_length_c       8.57287311553955
_cell_angle_alpha    111.85990977988332
_cell_angle_beta     89.78089056047361
_cell_angle_gamma    90.46129707585594

_space_group_name_H-M_alt    "P 1"
_space_group_IT_number       1

loop_
  _space_group_symop_operation_xyz
  'x, y, z'

loop_
  _atom_site_type_symbol
  _atom_site_label
  _atom_site_symmetry_multiplicity
  _atom_site_fract_x
  _atom_site_fract_y
  _atom_site_fract_z
  _atom_site_occupancy
  As  As1       1.0  0.13495030999183655  0.4144100844860077  0.9624481797218323  1.0000
  As  As2       1.0  0.13243892788887024  0.07065363973379135  0.31428578495979304  1.0000
  F   F1        1.0  0.6609914898872375  0.26710256934165955  0.9326015114784241  1.0000
  H   H1        1.0  0.6314405798912048  0.34696683287620544  0.5280855298042297  1.0000
  H   H2        1.0  0.6318711638450623  0.5584532022476196  0.660860538482666  1.0000
  I   I1        1.0  0.634208619594574  0.7273285388946533  0.8635084629058838  1.0000
  I   I2        1.0  0.6317561268806458  0.14009350538253784  0.6828414797782898  1.0000
  Pb  Pb1       1.0  0.6333015561103821  0.4840199947357178  0.8208516240119934  1.0000
  Pt  Pt1       1.0  0.13583077490329742  0.5120798349380493  0.09825079143047333  1.0000
  V   V1        1.0  0.13489030301570892  0.4183436334133148  0.2644614279270172  1.0000
  Zn  Zn1       1.0  0.6305455565452576  0.6997151970863342  0.16149720549583435  1.0000
  Zn  Zn2       1.0  0.8781482577323914  0.20607243478298187  0.418648362159729  1.0000
  Zn  Zn3       1.0  0.13409757614135742  0.08702628314495087  0.1108287051320076  1.0000
  Zn  Zn4       1.0  0.13486267626285553  0.3487863838672638  0.7247240543365479  1.0000
  Zn  Zn5       1.0  0.13218814134597778  0.07357423007488251  0.705879807472229  1.0000
  Zn  Zn6       1.0  0.6353978514671326  0.5056906342506409  0.17868824303150177  1.0000
