data_image0
_chemical_formula_structural       As2FI4KLi2PUZn4
_chemical_formula_sum              "As2 F1 I4 K1 Li2 P1 U1 Zn4"
_cell_length_a       8.094403750569278
_cell_length_b       8.142177077282051
_cell_length_c       8.689312934875488
_cell_angle_alpha    103.31998297858757
_cell_angle_beta     93.92153726184576
_cell_angle_gamma    98.49609907899813

_space_group_name_H-M_alt    "P 1"
_space_group_IT_number       1

loop_
  _space_group_symop_operation_xyz
  'x, y, z'

loop_
  _atom_site_type_symbol
  _atom_site_label
  _atom_site_symmetry_multiplicity
  _atom_site_fract_x
  _atom_site_fract_y
  _atom_site_fract_z
  _atom_site_occupancy
  As  As1       1.0  0.4067803621292114  0.567306637763977  0.4633408188819885  1.0000
  As  As2       1.0  0.07525786012411118  0.618132472038269  0.15321224927902222  1.0000
  F   F1        1.0  0.27519524097442627  0.17693893611431122  0.8317581415176392  1.0000
  I   I1        1.0  0.07710755616426468  0.019274134188890457  0.0002938649267889559  1.0000
  I   I2        1.0  0.07681506872177124  0.18097884953022003  0.5926740765571594  1.0000
  I   I3        1.0  0.5798875093460083  0.7943270206451416  0.971019446849823  1.0000
  I   I4        1.0  0.07729222625494003  0.17461726069450378  0.5124472975730896  1.0000
  K   K1        1.0  0.07709935307502747  0.6177914142608643  0.18949010968208313  1.0000
  Li  Li1       1.0  0.576837956905365  0.060747966170310974  0.3919205665588379  1.0000
  Li  Li2       1.0  0.061758242547512054  0.15827490389347076  0.7021191716194154  1.0000
  P   P1        1.0  0.5812773108482361  0.4874134361743927  0.7602904438972473  1.0000
  U   U1        1.0  0.584902286529541  0.3679194450378418  0.3442845940589905  1.0000
  Zn  Zn1       1.0  0.5533859729766846  0.40918049216270447  0.4107285737991333  1.0000
  Zn  Zn2       1.0  0.07740586251020432  0.9837952256202698  0.6313831210136414  1.0000
  Zn  Zn3       1.0  0.07735121250152588  0.20363226532936096  0.488300085067749  1.0000
  Zn  Zn4       1.0  0.07885034382343292  0.7452439665794373  0.548300564289093  1.0000
