data_image0
_chemical_formula_structural       As3I2KLi2PbPtZn5Zr
_chemical_formula_sum              "As3 I2 K1 Li2 Pb1 Pt1 Zn5 Zr1"
_cell_length_a       8.681885259056296
_cell_length_b       8.46565915789206
_cell_length_c       8.56063175201416
_cell_angle_alpha    111.06921489938364
_cell_angle_beta     109.17896279656144
_cell_angle_gamma    108.74559132260532

_space_group_name_H-M_alt    "P 1"
_space_group_IT_number       1

loop_
  _space_group_symop_operation_xyz
  'x, y, z'

loop_
  _atom_site_type_symbol
  _atom_site_label
  _atom_site_symmetry_multiplicity
  _atom_site_fract_x
  _atom_site_fract_y
  _atom_site_fract_z
  _atom_site_occupancy
  As  As1       1.0  0.826911449432373  0.3496079444885254  0.6451470255851746  1.0000
  As  As2       1.0  0.5143842697143555  0.3587745726108551  0.297687292098999  1.0000
  As  As3       1.0  0.8407697677612305  0.9372835159301759  0.19165849685668945  1.0000
  I   I1        1.0  0.7794488668441772  0.5618017315864563  0.37655726075172424  1.0000
  I   I2        1.0  0.33170676231384283  0.9847052097320558  0.050446946173906326  1.0000
  K   K1        1.0  0.840223491191864  0.7078973650932312  0.5041280388832092  1.0000
  Li  Li1       1.0  0.3544386625289917  0.6346428990364075  0.36869314312934875  1.0000
  Li  Li2       1.0  0.3348921537399292  0.15938477218151093  0.8664579391479492  1.0000
  Pb  Pb1       1.0  0.60366290807724  0.5111623406410217  0.5284001231193542  1.0000
  Pt  Pt1       1.0  0.8286717534065247  0.11320398002862932  0.46077126264572144  1.0000
  Zn  Zn1       1.0  0.32052144408226013  0.2937530279159546  0.820053219795227  1.0000
  Zn  Zn2       1.0  0.3330456018447876  0.378347247838974  0.49779486656188965  1.0000
  Zn  Zn3       1.0  0.7409576177597046  0.2498443424701691  0.14400622248649597  1.0000
  Zn  Zn4       1.0  0.32825464010238653  0.7960615158081056  0.060975778847932864  1.0000
  Zn  Zn5       1.0  0.8278346657752991  0.9041113257408143  0.9576239585876465  1.0000
  Zr  Zr1       1.0  0.3441043198108673  0.17733190953731537  0.2286319136619568  1.0000
