data_image0
_chemical_formula_structural       ClPt2Tl13
_chemical_formula_sum              "Cl1 Pt2 Tl13"
_cell_length_a       9.386590036791091
_cell_length_b       9.043713333229952
_cell_length_c       8.798139572143555
_cell_angle_alpha    118.54750422602427
_cell_angle_beta     117.94852953613689
_cell_angle_gamma    96.05166708779359

_space_group_name_H-M_alt    "P 1"
_space_group_IT_number       1

loop_
  _space_group_symop_operation_xyz
  'x, y, z'

loop_
  _atom_site_type_symbol
  _atom_site_label
  _atom_site_symmetry_multiplicity
  _atom_site_fract_x
  _atom_site_fract_y
  _atom_site_fract_z
  _atom_site_occupancy
  Cl  Cl1       1.0  0.35715606808662415  0.3636814951896668  0.6461790800094604  1.0000
  Pt  Pt1       1.0  0.796167254447937  0.6811195015907289  0.7398636937141418  1.0000
  Pt  Pt2       1.0  0.04563976824283605  0.8923147916793824  0.20991927385330209  1.0000
  Tl  Tl1       1.0  0.338291883468628  0.7607556581497193  0.7923094034194946  1.0000
  Tl  Tl2       1.0  0.8447440266609192  0.34738233685493475  0.03684018924832344  1.0000
  Tl  Tl3       1.0  0.0781995877623558  0.12104047089815141  0.9004541635513306  1.0000
  Tl  Tl4       1.0  0.2911299169063568  0.191571980714798  0.1625855267047882  1.0000
  Tl  Tl5       1.0  0.3059539794921875  0.09772852808237077  0.10266800969839096  1.0000
  Tl  Tl6       1.0  0.5827670097351074  0.5594290494918823  0.07846961915493011  1.0000
  Tl  Tl7       1.0  0.8782132863998413  0.45107260346412664  0.308247447013855  1.0000
  Tl  Tl8       1.0  0.5073315501213074  0.4521679282188416  0.30518072843551636  1.0000
  Tl  Tl9       1.0  0.8138672113418579  0.8993436694145204  0.34095850586891174  1.0000
  Tl  Tl10      1.0  0.8213008046150208  0.4406242668628693  0.29433929920196533  1.0000
  Tl  Tl11      1.0  0.12585535645484924  0.20899878442287448  0.42304494976997375  1.0000
  Tl  Tl12      1.0  0.5730822086334229  0.9852744936943055  0.012933761812746525  1.0000
  Tl  Tl13      1.0  0.07657483220100404  0.21079669892787936  0.2723163664340973  1.0000
