data_image0
_chemical_formula_structural       AuGaLiPt2Tl10Zn
_chemical_formula_sum              "Au1 Ga1 Li1 Pt2 Tl10 Zn1"
_cell_length_a       7.186135026964481
_cell_length_b       5.971433084750916
_cell_length_c       6.812844753265381
_cell_angle_alpha    136.81206399780154
_cell_angle_beta     103.93970899201868
_cell_angle_gamma    86.58536818595962

_space_group_name_H-M_alt    "P 1"
_space_group_IT_number       1

loop_
  _space_group_symop_operation_xyz
  'x, y, z'

loop_
  _atom_site_type_symbol
  _atom_site_label
  _atom_site_symmetry_multiplicity
  _atom_site_fract_x
  _atom_site_fract_y
  _atom_site_fract_z
  _atom_site_occupancy
  Au  Au1       1.0  0.4119831621646881  0.6852002143859863  0.2436467111110688  1.0000
  Ga  Ga1       1.0  0.09912291169166565  0.9745084643363953  0.08922605961561213  1.0000
  Li  Li1       1.0  0.8188809752464294  0.09266958385705953  0.8966713547706605  1.0000
  Pt  Pt1       1.0  0.09764690697193147  0.9758529663085939  0.06415122002363215  1.0000
  Pt  Pt2       1.0  0.826636016368866  0.9045138955116272  0.6611561179161073  1.0000
  Tl  Tl1       1.0  0.8103274703025819  0.028245078399777662  0.9513776898384096  1.0000
  Tl  Tl2       1.0  0.297964870929718  0.6182321310043336  0.7168181538581849  1.0000
  Tl  Tl3       1.0  0.2558739483356476  0.48849311470985407  0.9543256163597107  1.0000
  Tl  Tl4       1.0  0.31513088941574097  0.6640165448188783  0.38301390409469616  1.0000
  Tl  Tl5       1.0  0.4791603982448578  0.1235306560993195  0.4034554064273835  1.0000
  Tl  Tl6       1.0  0.8206737637519836  0.9679720401763915  0.2790833413600922  1.0000
  Tl  Tl7       1.0  0.8317938446998596  0.3042135536670684  0.5136525630950928  1.0000
  Tl  Tl8       1.0  0.4685176908969879  0.19493374228477492  0.8752102851867677  1.0000
  Tl  Tl9       1.0  0.8185411095619202  0.7056246399879454  0.11334733664989474  1.0000
  Tl  Tl10      1.0  0.9718023538589478  0.8545848727226256  0.9038084745407104  1.0000
  Zn  Zn1       1.0  0.0852048248052597  0.6361159086227418  0.21311151981353768  1.0000
