data_image0
_chemical_formula_structural       C5HfK3N2NiSeVY2
_chemical_formula_sum              "C5 Hf1 K3 N2 Ni1 Se1 V1 Y2"
_cell_length_a       5.681241484658282
_cell_length_b       7.153220597836929
_cell_length_c       7.826282501220703
_cell_angle_alpha    88.72964010187553
_cell_angle_beta     89.63410782593573
_cell_angle_gamma    114.60817397536394

_space_group_name_H-M_alt    "P 1"
_space_group_IT_number       1

loop_
  _space_group_symop_operation_xyz
  'x, y, z'

loop_
  _atom_site_type_symbol
  _atom_site_label
  _atom_site_symmetry_multiplicity
  _atom_site_fract_x
  _atom_site_fract_y
  _atom_site_fract_z
  _atom_site_occupancy
  C   C1        1.0  0.9728266000747681  0.15996365249156952  0.6401913166046141  1.0000
  C   C2        1.0  0.7104853987693787  0.5701828002929688  0.24600447714328766  1.0000
  C   C3        1.0  0.044227685779333115  0.13306312263011932  0.008287623524665833  1.0000
  C   C4        1.0  0.009385447949171066  0.34085366129875183  0.5866405963897705  1.0000
  C   C5        1.0  0.40424972772598267  0.5782554149627686  0.4079934954643249  1.0000
  Hf  Hf1       1.0  0.7569539546966553  0.6408910155296326  0.047079969197511666  1.0000
  K   K1        1.0  0.7993245720863342  0.16277562081813812  0.5098070502281189  1.0000
  K   K2        1.0  0.3389444351196289  0.32020246982574463  0.0985223278403282  1.0000
  K   K3        1.0  0.9392140507698059  0.44197481870651245  0.9068598747253417  1.0000
  N   N1        1.0  0.9180493354797363  0.5380610227584839  0.6881444454193114  1.0000
  N   N2        1.0  0.4216335415840149  0.7849934697151184  0.22574120759963986  1.0000
  Ni  Ni1       1.0  0.1720767766237259  0.4618171155452728  0.74574476480484  1.0000
  Se  Se1       1.0  0.28940385580062866  0.12570874392986298  0.5946332216262817  1.0000
  V   V1        1.0  0.6457433104515076  0.7996643781661987  0.6282283067703246  1.0000
  Y   Y1        1.0  0.2035902887582779  0.3187843859195709  0.777433931827545  1.0000
  Y   Y2        1.0  0.8242424130439758  0.5087952613830566  0.7840899229049682  1.0000
