data_image0
_chemical_formula_structural       C3HfK4N4VY3
_chemical_formula_sum              "C3 Hf1 K4 N4 V1 Y3"
_cell_length_a       5.736162017922771
_cell_length_b       7.9813745664558775
_cell_length_c       8.704004287719727
_cell_angle_alpha    90.62032845475953
_cell_angle_beta     90.99328612129675
_cell_angle_gamma    109.64026717506928

_space_group_name_H-M_alt    "P 1"
_space_group_IT_number       1

loop_
  _space_group_symop_operation_xyz
  'x, y, z'

loop_
  _atom_site_type_symbol
  _atom_site_label
  _atom_site_symmetry_multiplicity
  _atom_site_fract_x
  _atom_site_fract_y
  _atom_site_fract_z
  _atom_site_occupancy
  C   C1        1.0  0.1571921557188034  0.08487848192453384  0.43785104155540466  1.0000
  C   C2        1.0  0.6667282581329345  0.8388538360595702  0.6860212087631226  1.0000
  C   C3        1.0  0.1487213522195816  0.008428007364273071  0.8704943060874939  1.0000
  Hf  Hf1       1.0  0.2649875283241272  0.6668928265571594  0.37042146921157837  1.0000
  K   K1        1.0  0.02428077533841133  0.14918513596057892  0.6232156753540039  1.0000
  K   K2        1.0  0.6698871850967407  0.5970460176467896  0.2500709891319275  1.0000
  K   K3        1.0  0.44953009486198425  0.1334686279296875  0.7612791657447815  1.0000
  K   K4        1.0  0.6636972427368164  0.7761101722717285  0.12883633375167847  1.0000
  N   N1        1.0  0.9173138737678528  0.7696048021316528  0.465519517660141  1.0000
  N   N2        1.0  0.06383789330720901  0.3363003432750702  0.962931752204895  1.0000
  N   N3        1.0  0.12943173944950104  0.5386993288993835  0.9564043283462524  1.0000
  N   N4        1.0  0.43954557180404663  0.4710656106472015  0.8051689267158508  1.0000
  V   V1        1.0  0.9405251741409302  0.07976586371660233  0.47546979784965515  1.0000
  Y   Y1        1.0  0.9067215919494629  0.010299576446413994  0.6438927054405212  1.0000
  Y   Y2        1.0  0.47855404019355774  0.10305286198854445  0.22626946866512299  1.0000
  Y   Y3        1.0  0.8829460144042969  0.4176464676856994  0.46767672896385193  1.0000
