data_image0
_chemical_formula_structural       C3Cu3Fe4HoN5
_chemical_formula_sum              "C3 Cu3 Fe4 Ho1 N5"
_cell_length_a       5.684406480522238
_cell_length_b       5.994164615554553
_cell_length_c       8.181732177734375
_cell_angle_alpha    91.4237955001281
_cell_angle_beta     88.93136353183033
_cell_angle_gamma    115.83602262897638

_space_group_name_H-M_alt    "P 1"
_space_group_IT_number       1

loop_
  _space_group_symop_operation_xyz
  'x, y, z'

loop_
  _atom_site_type_symbol
  _atom_site_label
  _atom_site_symmetry_multiplicity
  _atom_site_fract_x
  _atom_site_fract_y
  _atom_site_fract_z
  _atom_site_occupancy
  C   C1        1.0  0.9752721786499023  0.606045126914978  0.13178420066833496  1.0000
  C   C2        1.0  0.4960789680480957  0.8427810072898865  0.1715019792318344  1.0000
  C   C3        1.0  0.5598883628845215  0.5213589072227478  0.12178612500429153  1.0000
  Cu  Cu1       1.0  0.23963743448257446  0.21064859628677368  0.16069605946540833  1.0000
  Cu  Cu2       1.0  0.6819374561309814  0.6204789280891418  0.5648758411407471  1.0000
  Cu  Cu3       1.0  0.6726707220077515  0.15178611874580383  0.2567802965641022  1.0000
  Fe  Fe1       1.0  0.23232515156269073  0.4154112637042999  0.848120391368866  1.0000
  Fe  Fe2       1.0  0.550218939781189  0.8225987553596497  0.915240466594696  1.0000
  Fe  Fe3       1.0  0.8346279263496399  0.43387311697006226  0.7418878674507141  1.0000
  Fe  Fe4       1.0  0.09114567190408707  0.7753192186355591  0.1090160682797432  1.0000
  Ho  Ho1       1.0  0.19254034757614136  0.1333031952381134  0.6343685388565063  1.0000
  N   N1        1.0  0.2671884298324585  0.23109473288059235  0.9510824680328369  1.0000
  N   N2        1.0  0.43498706817626953  0.4328936040401459  0.926019310951233  1.0000
  N   N3        1.0  0.7202028632164001  0.18020214140415192  0.6221176385879517  1.0000
  N   N4        1.0  0.5393394231796265  0.18280787765979767  0.8482001423835754  1.0000
  N   N5        1.0  0.8811853528022766  0.0012766122817993164  0.6512709856033325  1.0000
