data_image0
_chemical_formula_structural       AsC5HfK4N3NiY
_chemical_formula_sum              "As1 C5 Hf1 K4 N3 Ni1 Y1"
_cell_length_a       4.918733052224
_cell_length_b       5.907197434335822
_cell_length_c       8.56246566772461
_cell_angle_alpha    68.65691245795355
_cell_angle_beta     74.05052760599277
_cell_angle_gamma    70.83393016873539

_space_group_name_H-M_alt    "P 1"
_space_group_IT_number       1

loop_
  _space_group_symop_operation_xyz
  'x, y, z'

loop_
  _atom_site_type_symbol
  _atom_site_label
  _atom_site_symmetry_multiplicity
  _atom_site_fract_x
  _atom_site_fract_y
  _atom_site_fract_z
  _atom_site_occupancy
  As  As1       1.0  0.7228027582168579  0.013863086700439453  0.08718791604042053  1.0000
  C   C1        1.0  0.2126825898885727  0.30666232109069824  0.37609246373176575  1.0000
  C   C2        1.0  0.4455522298812866  0.5327110290527344  0.9834851622581482  1.0000
  C   C3        1.0  0.22726325690746307  0.6274760961532593  0.26179349422454834  1.0000
  C   C4        1.0  0.36207446455955505  0.9565463066101074  0.8271610736846924  1.0000
  C   C5        1.0  0.21943160891532898  0.8954675793647766  0.031765565276145935  1.0000
  Hf  Hf1       1.0  0.7910473346710205  0.7049317359924316  0.2125416398048401  1.0000
  K   K1        1.0  0.4583212435245514  0.8841659426689148  0.5377451777458191  1.0000
  K   K2        1.0  0.5065310001373291  0.3842584192752838  0.5366570949554443  1.0000
  K   K3        1.0  0.013429984450340271  0.5561963319778442  0.5315243601799011  1.0000
  K   K4        1.0  0.07412785291671753  0.23119962215423584  0.0236772820353508  1.0000
  N   N1        1.0  0.46667033433914185  0.24479393661022186  0.5145098567008972  1.0000
  N   N2        1.0  0.5500005483627319  0.06271756440401077  0.7357003092765808  1.0000
  N   N3        1.0  0.6545174717903137  0.19564278423786163  0.14926311373710632  1.0000
  Ni  Ni1       1.0  0.8033745884895325  0.01604221947491169  0.059597086161375046  1.0000
  Y   Y1        1.0  0.716366708278656  0.5388944745063782  0.47829362750053406  1.0000
