data_image0
_chemical_formula_structural       C7Cu2FeKN4Te
_chemical_formula_sum              "C7 Cu2 Fe1 K1 N4 Te1"
_cell_length_a       5.398033720987327
_cell_length_b       5.839892602407035
_cell_length_c       6.892149448394775
_cell_angle_alpha    107.02906270812463
_cell_angle_beta     84.64382347670615
_cell_angle_gamma    107.56793598479742

_space_group_name_H-M_alt    "P 1"
_space_group_IT_number       1

loop_
  _space_group_symop_operation_xyz
  'x, y, z'

loop_
  _atom_site_type_symbol
  _atom_site_label
  _atom_site_symmetry_multiplicity
  _atom_site_fract_x
  _atom_site_fract_y
  _atom_site_fract_z
  _atom_site_occupancy
  C   C1        1.0  0.5500818490982056  0.83488529920578  0.9352319836616517  1.0000
  C   C2        1.0  0.5092552304267883  0.7569580078125  0.12919789552688601  1.0000
  C   C3        1.0  0.4027155339717865  0.34149834513664246  0.20998148620128632  1.0000
  C   C4        1.0  0.047926198691129684  0.8518772125244141  0.4595456421375275  1.0000
  C   C5        1.0  0.9097455739974976  0.8481006622314453  0.675110936164856  1.0000
  C   C6        1.0  0.8677916526794434  0.4566751718521118  0.6401385068893433  1.0000
  C   C7        1.0  0.9372845888137817  0.8124424815177917  0.9856691360473634  1.0000
  Cu  Cu1       1.0  0.22692573070526123  0.366761177778244  0.46940782666206365  1.0000
  Cu  Cu2       1.0  0.5449076294898987  0.35135358572006226  0.9385753870010377  1.0000
  Fe  Fe1       1.0  0.3523922264575958  0.18233826756477356  0.6355842351913452  1.0000
  K   K1        1.0  0.9242512583732605  0.5292268395423889  0.471625566482544  1.0000
  N   N1        1.0  0.35774675011634827  0.698062539100647  0.3265101909637451  1.0000
  N   N2        1.0  0.295736163854599  0.18924391269683838  0.18435010313987732  1.0000
  N   N3        1.0  0.3849760591983795  0.37432530522346497  0.13544231653213504  1.0000
  N   N4        1.0  0.3256765902042389  0.6770161390304565  0.8056319355964661  1.0000
  Te  Te1       1.0  0.8910007476806641  0.08624324947595596  0.373239666223526  1.0000
