data_image0
_chemical_formula_structural       C4CoHfK4N4VY
_chemical_formula_sum              "C4 Co1 Hf1 K4 N4 V1 Y1"
_cell_length_a       4.570626398449426
_cell_length_b       7.630385574459642
_cell_length_c       9.11699390411377
_cell_angle_alpha    75.11630315120989
_cell_angle_beta     77.94596840813402
_cell_angle_gamma    75.70314423658112

_space_group_name_H-M_alt    "P 1"
_space_group_IT_number       1

loop_
  _space_group_symop_operation_xyz
  'x, y, z'

loop_
  _atom_site_type_symbol
  _atom_site_label
  _atom_site_symmetry_multiplicity
  _atom_site_fract_x
  _atom_site_fract_y
  _atom_site_fract_z
  _atom_site_occupancy
  C   C1        1.0  0.9054203033447266  0.06613437831401825  0.06880921870470047  1.0000
  C   C2        1.0  0.08306576311588287  0.24802394211292267  0.12142662703990936  1.0000
  C   C3        1.0  0.559958815574646  0.3993050158023834  0.6918187141418457  1.0000
  C   C4        1.0  0.7187241911888123  0.576910674571991  0.5016197562217712  1.0000
  Co  Co1       1.0  0.8096470236778259  0.7580729126930237  0.837634265422821  1.0000
  Hf  Hf1       1.0  0.7066898941993713  0.555059552192688  0.6194892525672913  1.0000
  K   K1        1.0  0.9421930313110352  0.8433621525764465  0.09320855885744095  1.0000
  K   K2        1.0  0.9225176572799683  0.846463680267334  0.2327469438314438  1.0000
  K   K3        1.0  0.19750572741031647  0.3390396535396576  0.40022605657577515  1.0000
  K   K4        1.0  0.38087624311447144  0.9264894723892212  0.00427842466160655  1.0000
  N   N1        1.0  0.5583372116088867  0.7560186386108398  0.27010494470596313  1.0000
  N   N2        1.0  0.4218069314956665  0.21862715482711792  0.06628045439720154  1.0000
  N   N3        1.0  0.8705787658691406  0.08293411135673523  0.08596894890069962  1.0000
  N   N4        1.0  0.6553014516830444  0.3406713902950287  0.7510066628456116  1.0000
  V   V1        1.0  0.4389937222003937  0.5521326661109924  0.10339690744876862  1.0000
  Y   Y1        1.0  0.38381367921829224  0.049988169223070145  0.9172506928443909  1.0000
