data_image0
_chemical_formula_structural       ClGaHNi3Tb7
_chemical_formula_sum              "Cl1 Ga1 H1 Ni3 Tb7"
_cell_length_a       6.235313038094557
_cell_length_b       6.532651697816629
_cell_length_c       6.699543476104736
_cell_angle_alpha    59.069761711164126
_cell_angle_beta     62.80326354975552
_cell_angle_gamma    62.34396411122521

_space_group_name_H-M_alt    "P 1"
_space_group_IT_number       1

loop_
  _space_group_symop_operation_xyz
  'x, y, z'

loop_
  _atom_site_type_symbol
  _atom_site_label
  _atom_site_symmetry_multiplicity
  _atom_site_fract_x
  _atom_site_fract_y
  _atom_site_fract_z
  _atom_site_occupancy
  Cl  Cl1       1.0  0.21858328580856323  0.6037591099739075  0.6756154298782349  1.0000
  Ga  Ga1       1.0  0.022547896951436996  0.5869349241256714  0.3041069507598877  1.0000
  H   H1        1.0  0.6773425340652466  0.589559018611908  0.6456473469734192  1.0000
  Ni  Ni1       1.0  0.40640175342559814  0.2986781895160675  0.12170776724815369  1.0000
  Ni  Ni2       1.0  0.9096078276634216  0.7968925833702087  0.8289133310317993  1.0000
  Ni  Ni3       1.0  0.9049289226531982  0.2988119125366211  0.8884133696556091  1.0000
  Tb  Tb1       1.0  0.22463765740394592  0.5929374694824219  0.11909478157758713  1.0000
  Tb  Tb2       1.0  0.8831762075424194  0.5024221539497375  0.8841091990470886  1.0000
  Tb  Tb3       1.0  0.6021390557289124  0.8080441951751709  0.36733147501945496  1.0000
  Tb  Tb4       1.0  0.9031011462211609  0.30150067806243896  0.6018301248550415  1.0000
  Tb  Tb5       1.0  0.624457061290741  0.1184908002614975  0.6348618268966675  1.0000
  Tb  Tb6       1.0  0.18985363841056824  0.30314013361930847  0.3873220980167389  1.0000
  Tb  Tb7       1.0  0.5174961686134338  0.0854673832654953  0.28563547134399414  1.0000
