data_image0
_chemical_formula_structural       AlGaHHfNi3SSc2Tb3
_chemical_formula_sum              "Al1 Ga1 H1 Hf1 Ni3 S1 Sc2 Tb3"
_cell_length_a       6.155543308791554
_cell_length_b       6.305966590690865
_cell_length_c       7.349321365356445
_cell_angle_alpha    64.41702908176286
_cell_angle_beta     65.80695345418961
_cell_angle_gamma    62.22772121585742

_space_group_name_H-M_alt    "P 1"
_space_group_IT_number       1

loop_
  _space_group_symop_operation_xyz
  'x, y, z'

loop_
  _atom_site_type_symbol
  _atom_site_label
  _atom_site_symmetry_multiplicity
  _atom_site_fract_x
  _atom_site_fract_y
  _atom_site_fract_z
  _atom_site_occupancy
  Al  Al1       1.0  0.906249165534973  0.0498444028198719  0.4328462779521942  1.0000
  Ga  Ga1       1.0  0.08698417246341705  0.2871020436286926  0.21386896073818207  1.0000
  H   H1        1.0  0.8053907752037047  0.5398880839347839  0.9684444665908813  1.0000
  Hf  Hf1       1.0  0.1510031372308731  0.09033213555812836  0.7833978533744812  1.0000
  Ni  Ni1       1.0  0.8355583548545836  0.7547168731689453  0.7200332283973694  1.0000
  Ni  Ni2       1.0  0.20934554934501645  0.23437513411045074  0.4324747622013092  1.0000
  Ni  Ni3       1.0  0.6566411852836609  0.10931025445461273  0.7121684551239014  1.0000
  S   S1        1.0  0.47037419676780695  0.6472305655479431  0.14645583927631378  1.0000
  Sc  Sc1       1.0  0.21516780555248258  0.7325100302696228  0.4936065375804901  1.0000
  Sc  Sc2       1.0  0.5081406831741333  0.48111650347709656  0.44652220606803894  1.0000
  Tb  Tb1       1.0  0.9063889384269713  0.06683296710252762  0.4437412917613983  1.0000
  Tb  Tb2       1.0  0.7182700634002686  0.36042550206184387  0.9478432536125183  1.0000
  Tb  Tb3       1.0  0.18063966929912567  0.5543102025985718  0.9372919797897339  1.0000
