data_image0
_chemical_formula_structural       Ga3HoNaNi2Tb6
_chemical_formula_sum              "Ga3 Ho1 Na1 Ni2 Tb6"
_cell_length_a       5.060582502173715
_cell_length_b       3.297491501126634
_cell_length_c       9.271801948547363
_cell_angle_alpha    86.68828833454333
_cell_angle_beta     88.96284748303427
_cell_angle_gamma    144.45949890239538

_space_group_name_H-M_alt    "P 1"
_space_group_IT_number       1

loop_
  _space_group_symop_operation_xyz
  'x, y, z'

loop_
  _atom_site_type_symbol
  _atom_site_label
  _atom_site_symmetry_multiplicity
  _atom_site_fract_x
  _atom_site_fract_y
  _atom_site_fract_z
  _atom_site_occupancy
  Ga  Ga1       1.0  0.42311349511146545  0.559686243534088  0.6300563216209412  1.0000
  Ga  Ga2       1.0  0.582934558391571  0.3455697894096374  0.8066964745521547  1.0000
  Ga  Ga3       1.0  0.7840780019760132  0.07880695909261702  0.21773511171340942  1.0000
  Ho  Ho1       1.0  0.11133072525262833  0.035555977374315255  0.7333446741104126  1.0000
  Na  Na1       1.0  0.845320463180542  0.7550642490386962  0.17530439794063568  1.0000
  Ni  Ni1       1.0  0.15468114614486694  0.5348204970359802  0.0488625094294548  1.0000
  Ni  Ni2       1.0  0.5698551535606384  0.29511785507202143  0.37592825293540955  1.0000
  Tb  Tb1       1.0  0.5815703272819518  0.9738979935646056  0.9359956979751587  1.0000
  Tb  Tb2       1.0  0.37207671999931324  0.8464276194572448  0.43342113494873047  1.0000
  Tb  Tb3       1.0  0.9102632403373718  0.7358691692352294  0.6594422459602357  1.0000
  Tb  Tb4       1.0  0.12607301771640778  0.511837899684906  0.9892836809158326  1.0000
  Tb  Tb5       1.0  0.1012076213955879  0.36620655655860895  0.41083595156669617  1.0000
  Tb  Tb6       1.0  0.5972041487693787  0.5684233307838439  0.9372554421424866  1.0000
