data_image0
_chemical_formula_structural       Ga3HNi4Tb5
_chemical_formula_sum              "Ga3 H1 Ni4 Tb5"
_cell_length_a       5.171417466025774
_cell_length_b       5.6583368575860415
_cell_length_c       6.628682613372803
_cell_angle_alpha    96.41356152285793
_cell_angle_beta     90.50273369861422
_cell_angle_gamma    117.57096954642643

_space_group_name_H-M_alt    "P 1"
_space_group_IT_number       1

loop_
  _space_group_symop_operation_xyz
  'x, y, z'

loop_
  _atom_site_type_symbol
  _atom_site_label
  _atom_site_symmetry_multiplicity
  _atom_site_fract_x
  _atom_site_fract_y
  _atom_site_fract_z
  _atom_site_occupancy
  Ga  Ga1       1.0  0.866077184677124  0.8237099647521973  0.8319470286369323  1.0000
  Ga  Ga2       1.0  0.47849181294441223  0.577803909778595  0.8957525491714476  1.0000
  Ga  Ga3       1.0  0.03748396039009094  0.08124574273824692  0.9055734276771544  1.0000
  H   H1        1.0  0.7127796411514282  0.4644881784915924  0.3082672953605652  1.0000
  Ni  Ni1       1.0  0.13399645686149597  0.4583287835121155  0.6383680105209351  1.0000
  Ni  Ni2       1.0  0.22142387926578522  0.5730572938919067  0.9881003499031066  1.0000
  Ni  Ni3       1.0  0.17711305618286133  0.9487932920455933  0.49113780260086054  1.0000
  Ni  Ni4       1.0  0.8810064792633057  0.2151114046573639  0.6721253395080565  1.0000
  Tb  Tb1       1.0  0.20774197578430176  0.6823002099990845  0.158037468791008  1.0000
  Tb  Tb2       1.0  0.5081416964530945  0.4264841675758362  0.8079131841659545  1.0000
  Tb  Tb3       1.0  0.5284709334373474  0.6480729579925537  0.144588440656662  1.0000
  Tb  Tb4       1.0  0.5421253442764282  0.09633320569992065  0.6461997032165527  1.0000
  Tb  Tb5       1.0  0.02978542447090149  0.16382187604904175  0.1726039499044418  1.0000
