data_image0
_chemical_formula_structural       CoGa4Tb8
_chemical_formula_sum              "Co1 Ga4 Tb8"
_cell_length_a       5.759412999323809
_cell_length_b       6.10037753334721
_cell_length_c       6.783809661865234
_cell_angle_alpha    60.299986157029565
_cell_angle_beta     61.802938183249225
_cell_angle_gamma    59.63677884918058

_space_group_name_H-M_alt    "P 1"
_space_group_IT_number       1

loop_
  _space_group_symop_operation_xyz
  'x, y, z'

loop_
  _atom_site_type_symbol
  _atom_site_label
  _atom_site_symmetry_multiplicity
  _atom_site_fract_x
  _atom_site_fract_y
  _atom_site_fract_z
  _atom_site_occupancy
  Co  Co1       1.0  0.6512827277183533  0.5736889243125916  0.7253294587135315  1.0000
  Ga  Ga1       1.0  0.21871070563793182  0.7328816652297974  0.9957292675971986  1.0000
  Ga  Ga2       1.0  0.6644418239593506  0.5686646699905396  0.5508472919464111  1.0000
  Ga  Ga3       1.0  0.6545162796974182  0.7192323803901672  0.4388098716735841  1.0000
  Ga  Ga4       1.0  0.705927312374115  0.4361572861671448  0.40667912364006054  1.0000
  Tb  Tb1       1.0  0.940354824066162  0.733242928981781  0.5762336254119873  1.0000
  Tb  Tb2       1.0  0.1662801057100296  0.03249478340148926  0.1309740096330643  1.0000
  Tb  Tb3       1.0  0.17711976170539856  0.21518786251544952  0.44917434453964233  1.0000
  Tb  Tb4       1.0  0.23517452180385587  0.23728233575820923  0.47858235239982605  1.0000
  Tb  Tb5       1.0  0.9759460687637328  0.32729554176330566  0.21536502242088326  1.0000
  Tb  Tb6       1.0  0.663101851940155  0.5564372539520264  0.1493343710899353  1.0000
  Tb  Tb7       1.0  0.1656142771244049  0.044434137642383575  0.7132415771484375  1.0000
  Tb  Tb8       1.0  0.6776197552680969  0.03538374602794647  0.9194457530975342  1.0000
