data_image0
_chemical_formula_structural       CoGa2Ni3ScTb6
_chemical_formula_sum              "Co1 Ga2 Ni3 Sc1 Tb6"
_cell_length_a       5.542161514875017
_cell_length_b       6.32674543306244
_cell_length_c       7.337521076202393
_cell_angle_alpha    69.74738990557931
_cell_angle_beta     68.34937892739113
_cell_angle_gamma    64.66697396142573

_space_group_name_H-M_alt    "P 1"
_space_group_IT_number       1

loop_
  _space_group_symop_operation_xyz
  'x, y, z'

loop_
  _atom_site_type_symbol
  _atom_site_label
  _atom_site_symmetry_multiplicity
  _atom_site_fract_x
  _atom_site_fract_y
  _atom_site_fract_z
  _atom_site_occupancy
  Co  Co1       1.0  0.11677062511444092  0.988472044467926  0.24416330456733706  1.0000
  Ga  Ga1       1.0  0.8540520071983337  0.5495521426200867  0.2461591958999634  1.0000
  Ga  Ga2       1.0  0.37878814339637756  0.3153393566608429  0.2042446434497833  1.0000
  Ni  Ni1       1.0  0.20105795562267303  0.5954564809799194  0.7298568487167358  1.0000
  Ni  Ni2       1.0  0.9016478657722473  0.9230097532272339  0.9697574377059938  1.0000
  Ni  Ni3       1.0  0.2102266401052475  0.6237412691116333  0.43328696489334106  1.0000
  Sc  Sc1       1.0  0.37642478942871094  0.31483837962150574  0.17835171520709991  1.0000
  Tb  Tb1       1.0  0.8582407236099243  0.4674237072467804  0.07561536878347397  1.0000
  Tb  Tb2       1.0  0.8799130916595459  0.785224974155426  0.24717289209365848  1.0000
  Tb  Tb3       1.0  0.38785070180892944  0.9853121638298035  0.7306047677993774  1.0000
  Tb  Tb4       1.0  0.3711661398410797  0.2804463505744934  0.7504767775535583  1.0000
  Tb  Tb5       1.0  0.8680919408798218  0.02934926748275757  0.9652645587921144  1.0000
  Tb  Tb6       1.0  0.8712683916091919  0.31247055530548096  0.6371328830718994  1.0000
