data_image0
_chemical_formula_structural       BLi2OPS4Tl
_chemical_formula_sum              "B1 Li2 O1 P1 S4 Tl1"
_cell_length_a       5.2916699355483425
_cell_length_b       5.696947380691849
_cell_length_c       7.174863815307617
_cell_angle_alpha    112.20589384632227
_cell_angle_beta     113.21271962852781
_cell_angle_gamma    89.94828552750653

_space_group_name_H-M_alt    "P 1"
_space_group_IT_number       1

loop_
  _space_group_symop_operation_xyz
  'x, y, z'

loop_
  _atom_site_type_symbol
  _atom_site_label
  _atom_site_symmetry_multiplicity
  _atom_site_fract_x
  _atom_site_fract_y
  _atom_site_fract_z
  _atom_site_occupancy
  B   B1        1.0  0.8329046964645386  0.6770892143249512  0.4373551309108734  1.0000
  Li  Li1       1.0  0.9175331592559814  0.008165070787072182  0.5745736360549927  1.0000
  Li  Li2       1.0  0.9505720734596252  0.3673308491706848  0.7381626963615417  1.0000
  O   O1        1.0  0.4089559316635132  0.9395223259925842  0.08790814131498337  1.0000
  P   P1        1.0  0.2678883969783783  0.6277413964271545  0.3817017078399658  1.0000
  S   S1        1.0  0.9075207710266113  0.7640584707260132  0.5914077758789062  1.0000
  S   S2        1.0  0.43906331062316895  0.9571617841720581  0.8889063596725464  1.0000
  S   S3        1.0  0.9405516386032104  0.9195938110351562  0.006627615541219649  1.0000
  S   S4        1.0  0.6933799386024475  0.885247528553009  0.22816325724124908  1.0000
  Tl  Tl1       1.0  0.24176351726055145  0.3244246542453766  0.37877896428108215  1.0000
