data_image0
_chemical_formula_structural       Li5S4Tl
_chemical_formula_sum              "Li5 S4 Tl1"
_cell_length_a       6.463529724221507
_cell_length_b       6.628142232819422
_cell_length_c       6.95205545425415
_cell_angle_alpha    62.14866631260552
_cell_angle_beta     60.16039397783656
_cell_angle_gamma    61.40828335883092

_space_group_name_H-M_alt    "P 1"
_space_group_IT_number       1

loop_
  _space_group_symop_operation_xyz
  'x, y, z'

loop_
  _atom_site_type_symbol
  _atom_site_label
  _atom_site_symmetry_multiplicity
  _atom_site_fract_x
  _atom_site_fract_y
  _atom_site_fract_z
  _atom_site_occupancy
  Li  Li1       1.0  0.39265328645706177  0.9212540984153746  0.9537100195884703  1.0000
  Li  Li2       1.0  0.9040948748588562  0.531553328037262  0.12931481003761292  1.0000
  Li  Li3       1.0  0.8970392942428589  0.14292775094509125  0.6638326644897461  1.0000
  Li  Li4       1.0  0.5237523913383484  0.45053535699844355  0.049560271203517914  1.0000
  Li  Li5       1.0  0.02462194487452507  0.5037474632263184  0.4697188735008239  1.0000
  S   S1        1.0  0.5341781377792358  0.8981262445449828  0.44941058754920954  1.0000
  S   S2        1.0  0.2795170843601227  0.34827959537506104  0.11823435127735141  1.0000
  S   S3        1.0  0.8906591534614563  0.8648132681846618  0.7157396078109742  1.0000
  S   S4        1.0  0.8906210660934448  0.6385370492935181  0.9509988427162169  1.0000
  Tl  Tl1       1.0  0.48656323552131653  0.1734156608581543  0.11029598116874693  1.0000
