data_image0
_chemical_formula_structural       Li4S5Ti
_chemical_formula_sum              "Li4 S5 Ti1"
_cell_length_a       7.089342835246493
_cell_length_b       6.884462743071727
_cell_length_c       7.079479694366455
_cell_angle_alpha    58.31029413723542
_cell_angle_beta     58.674770059445784
_cell_angle_gamma    58.914607252275694

_space_group_name_H-M_alt    "P 1"
_space_group_IT_number       1

loop_
  _space_group_symop_operation_xyz
  'x, y, z'

loop_
  _atom_site_type_symbol
  _atom_site_label
  _atom_site_symmetry_multiplicity
  _atom_site_fract_x
  _atom_site_fract_y
  _atom_site_fract_z
  _atom_site_occupancy
  Li  Li1       1.0  0.6904279589653015  0.7090009450912476  0.7197927236557007  1.0000
  Li  Li2       1.0  0.016872745007276535  0.5797146558761597  0.6317709684371948  1.0000
  Li  Li3       1.0  0.7368330955505371  0.185746431350708  0.32144668698310846  1.0000
  Li  Li4       1.0  0.9262431263923645  0.5724446177482605  0.715364634990692  1.0000
  S   S1        1.0  0.8478838205337524  0.35079142451286316  0.005696603562682898  1.0000
  S   S2        1.0  0.2843146324157715  0.1675892472267151  0.6531514525413513  1.0000
  S   S3        1.0  0.48660117387771606  0.1667410433292389  0.19395722448825836  1.0000
  S   S4        1.0  0.05312903970479965  0.7848201990127563  0.5013535618782043  1.0000
  S   S5        1.0  0.29341670870780945  0.2005040943622589  0.705708384513855  1.0000
  Ti  Ti1       1.0  0.8310455679893494  0.8422200083732605  0.9981229901313782  1.0000
