data_image0
_chemical_formula_structural       Li4S5Ti
_chemical_formula_sum              "Li4 S5 Ti1"
_cell_length_a       5.890810298946138
_cell_length_b       5.80181102557884
_cell_length_c       8.640190124511719
_cell_angle_alpha    70.89745307165782
_cell_angle_beta     67.89809123750396
_cell_angle_gamma    61.211318353549956

_space_group_name_H-M_alt    "P 1"
_space_group_IT_number       1

loop_
  _space_group_symop_operation_xyz
  'x, y, z'

loop_
  _atom_site_type_symbol
  _atom_site_label
  _atom_site_symmetry_multiplicity
  _atom_site_fract_x
  _atom_site_fract_y
  _atom_site_fract_z
  _atom_site_occupancy
  Li  Li1       1.0  0.8716407418251038  0.19995692372322083  0.5839243531227112  1.0000
  Li  Li2       1.0  0.7655370235443115  0.01492046844214201  0.9077900648117067  1.0000
  Li  Li3       1.0  0.2570706307888031  0.555700421333313  0.501548707485199  1.0000
  Li  Li4       1.0  0.4812626540660858  0.5531971454620361  0.0368184931576252  1.0000
  S   S1        1.0  0.7829290628433228  0.48554614186286926  0.5997005105018616  1.0000
  S   S2        1.0  0.7639327049255371  0.0025193681940436363  0.03066508285701275  1.0000
  S   S3        1.0  0.7665387392044067  0.6931982636451721  0.08561757951974869  1.0000
  S   S4        1.0  0.2581718862056732  0.5398616790771484  0.5409198999404907  1.0000
  S   S5        1.0  0.18565207719802856  0.2529665231704712  0.249789297580719  1.0000
  Ti  Ti1       1.0  0.08224228024482727  0.4759550094604492  0.2349471002817154  1.0000
