data_image0
_chemical_formula_structural       Li2S3Ti5
_chemical_formula_sum              "Li2 S3 Ti5"
_cell_length_a       5.450437658836068
_cell_length_b       5.064910162388903
_cell_length_c       6.887373447418213
_cell_angle_alpha    66.99898733474085
_cell_angle_beta     69.0003189944881
_cell_angle_gamma    57.18943858930285

_space_group_name_H-M_alt    "P 1"
_space_group_IT_number       1

loop_
  _space_group_symop_operation_xyz
  'x, y, z'

loop_
  _atom_site_type_symbol
  _atom_site_label
  _atom_site_symmetry_multiplicity
  _atom_site_fract_x
  _atom_site_fract_y
  _atom_site_fract_z
  _atom_site_occupancy
  Li  Li1       1.0  0.4731091856956482  0.04666607081890106  0.033595357090234756  1.0000
  Li  Li2       1.0  0.9643855690956116  0.05014406889677048  0.5671921372413635  1.0000
  S   S1        1.0  0.9146515130996704  0.3558170199394226  0.7872281670570375  1.0000
  S   S2        1.0  0.45199570059776306  0.38947221636772156  0.980859398841858  1.0000
  S   S3        1.0  0.18215911090373993  0.479658842086792  0.10737664997577669  1.0000
  Ti  Ti1       1.0  0.2868616580963135  0.5785812735557556  0.21751153469085696  1.0000
  Ti  Ti2       1.0  0.3362925350666046  0.3710818290710449  0.8047458529472352  1.0000
  Ti  Ti3       1.0  0.08794412761926651  0.3759506940841675  0.5527616739273071  1.0000
  Ti  Ti4       1.0  0.7898982167243958  0.06381314992904663  0.7641073465347291  1.0000
  Ti  Ti5       1.0  0.5985602736473083  0.8569229245185852  0.5975462794303894  1.0000
