data_image0
_chemical_formula_structural       Li2S2Ti6
_chemical_formula_sum              "Li2 S2 Ti6"
_cell_length_a       5.860538820552287
_cell_length_b       5.44302219868042
_cell_length_c       6.418157577514648
_cell_angle_alpha    60.32599046630156
_cell_angle_beta     61.26884517152981
_cell_angle_gamma    59.345951794477934

_space_group_name_H-M_alt    "P 1"
_space_group_IT_number       1

loop_
  _space_group_symop_operation_xyz
  'x, y, z'

loop_
  _atom_site_type_symbol
  _atom_site_label
  _atom_site_symmetry_multiplicity
  _atom_site_fract_x
  _atom_site_fract_y
  _atom_site_fract_z
  _atom_site_occupancy
  Li  Li1       1.0  0.46475735306739807  0.47274258732795715  0.8530946373939514  1.0000
  Li  Li2       1.0  0.9511723518371582  0.10752685368061066  0.918898344039917  1.0000
  S   S1        1.0  0.9519305229187012  0.6028913855552673  0.3490128219127655  1.0000
  S   S2        1.0  0.9295522570610046  0.49089327454566956  0.12275345623493195  1.0000
  Ti  Ti1       1.0  0.27773621678352356  0.9619887471199036  0.11899352073669434  1.0000
  Ti  Ti2       1.0  0.7688366770744324  0.2753828167915344  0.3435420095920563  1.0000
  Ti  Ti3       1.0  0.29647988080978394  0.29610589146614075  0.017249664291739464  1.0000
  Ti  Ti4       1.0  0.8085923194885254  0.72474205493927  0.35193300247192383  1.0000
  Ti  Ti5       1.0  0.19608257710933685  0.886830747127533  0.8259419202804565  1.0000
  Ti  Ti6       1.0  0.20251064002513885  0.21310268342494965  0.7379764318466187  1.0000
