data_image0
_chemical_formula_structural       Ca8HgMg3
_chemical_formula_sum              "Ca8 Hg1 Mg3"
_cell_length_a       5.501048690459872
_cell_length_b       6.035014404956496
_cell_length_c       11.274041175842285
_cell_angle_alpha    81.10689337642488
_cell_angle_beta     78.33992663771724
_cell_angle_gamma    72.4104600727561

_space_group_name_H-M_alt    "P 1"
_space_group_IT_number       1

loop_
  _space_group_symop_operation_xyz
  'x, y, z'

loop_
  _atom_site_type_symbol
  _atom_site_label
  _atom_site_symmetry_multiplicity
  _atom_site_fract_x
  _atom_site_fract_y
  _atom_site_fract_z
  _atom_site_occupancy
  Ca  Ca1       1.0  0.7177918553352356  0.7221415638923645  0.36452576518058777  1.0000
  Ca  Ca2       1.0  0.2192455232143402  0.8535614609718323  0.019250812008976936  1.0000
  Ca  Ca3       1.0  0.7186456918716431  0.6878844499588013  0.35981521010398865  1.0000
  Ca  Ca4       1.0  0.2185429334640503  0.8193211555480957  0.8154424428939819  1.0000
  Ca  Ca5       1.0  0.2217838615179062  0.9352788329124451  0.9897339940071106  1.0000
  Ca  Ca6       1.0  0.7174394726753235  0.10675503313541412  0.8968455195426941  1.0000
  Ca  Ca7       1.0  0.7205625772476196  0.48995330929756165  0.025943072512745857  1.0000
  Ca  Ca8       1.0  0.2164558470249176  0.12833590805530548  0.2094801664352417  1.0000
  Hg  Hg1       1.0  0.22007064521312714  0.3751956820487976  0.9640780687332153  1.0000
  Mg  Mg1       1.0  0.21573974192142487  0.5717452764511108  0.1406833678483963  1.0000
  Mg  Mg2       1.0  0.7170286774635315  0.5514217019081116  0.9250532388687134  1.0000
  Mg  Mg3       1.0  0.7132835984230042  0.9159079194068909  0.22924692928791046  1.0000
