data_image0
_chemical_formula_structural       AlCa6DyGeMg2Pb
_chemical_formula_sum              "Al1 Ca6 Dy1 Ge1 Mg2 Pb1"
_cell_length_a       7.256667659353225
_cell_length_b       7.865075612923986
_cell_length_c       8.132286071777344
_cell_angle_alpha    69.06014341095872
_cell_angle_beta     64.6800955565698
_cell_angle_gamma    63.895445924455466

_space_group_name_H-M_alt    "P 1"
_space_group_IT_number       1

loop_
  _space_group_symop_operation_xyz
  'x, y, z'

loop_
  _atom_site_type_symbol
  _atom_site_label
  _atom_site_symmetry_multiplicity
  _atom_site_fract_x
  _atom_site_fract_y
  _atom_site_fract_z
  _atom_site_occupancy
  Al  Al1       1.0  0.8297891616821289  0.5479182004928589  0.3465864956378937  1.0000
  Ca  Ca1       1.0  0.7357427477836609  0.5822915434837341  0.4971720278263092  1.0000
  Ca  Ca2       1.0  0.28650984168052673  0.7590500116348267  0.0015008463524281979  1.0000
  Ca  Ca3       1.0  0.3423795700073242  0.782394289970398  0.13615623116493225  1.0000
  Ca  Ca4       1.0  0.3418475091457367  0.5362462401390076  0.09217159450054169  1.0000
  Ca  Ca5       1.0  0.857872486114502  0.3710521161556244  0.2197757214307785  1.0000
  Ca  Ca6       1.0  0.3547237515449524  0.5732830762863159  0.2270709127187729  1.0000
  Dy  Dy1       1.0  0.3468203842639923  0.2087593525648117  0.6613126397132874  1.0000
  Ge  Ge1       1.0  0.05535639077425003  0.3077027201652527  0.47599703073501587  1.0000
  Mg  Mg1       1.0  0.26832547783851624  0.548249363899231  0.458515465259552  1.0000
  Mg  Mg2       1.0  0.7635468244552612  0.5596922039985657  0.44603827595710754  1.0000
  Pb  Pb1       1.0  0.8779029250144958  0.8649628758430481  0.37412405014038086  1.0000
