data_image0
_chemical_formula_structural       Ca8Hg2MgTb
_chemical_formula_sum              "Ca8 Hg2 Mg1 Tb1"
_cell_length_a       4.834542619784305
_cell_length_b       4.810362737573955
_cell_length_c       16.914989471435547
_cell_angle_alpha    93.96218014085788
_cell_angle_beta     89.75495729508079
_cell_angle_gamma    91.90863206429472

_space_group_name_H-M_alt    "P 1"
_space_group_IT_number       1

loop_
  _space_group_symop_operation_xyz
  'x, y, z'

loop_
  _atom_site_type_symbol
  _atom_site_label
  _atom_site_symmetry_multiplicity
  _atom_site_fract_x
  _atom_site_fract_y
  _atom_site_fract_z
  _atom_site_occupancy
  Ca  Ca1       1.0  0.9790732264518738  0.809011697769165  0.30487072467803955  1.0000
  Ca  Ca2       1.0  0.47529304027557373  0.27822136878967285  0.6096180081367493  1.0000
  Ca  Ca3       1.0  0.9748103618621826  0.028053611516952515  0.3341345489025116  1.0000
  Ca  Ca4       1.0  0.9768880605697632  0.007731470745056868  0.7358449697494507  1.0000
  Ca  Ca5       1.0  0.9751591682434082  0.7317841053009033  0.49144837260246277  1.0000
  Ca  Ca6       1.0  0.47356486320495605  0.6637630462646484  0.4922791123390198  1.0000
  Ca  Ca7       1.0  0.4772222638130188  0.9000601768493652  0.4101406931877136  1.0000
  Ca  Ca8       1.0  0.47898563742637634  0.05469510331749916  0.2275521606206894  1.0000
  Hg  Hg1       1.0  0.9763484597206116  0.5317991375923157  0.019898952916264534  1.0000
  Hg  Hg2       1.0  0.977672815322876  0.3528250455856323  0.620789349079132  1.0000
  Mg  Mg1       1.0  0.4769580066204071  0.2695593535900116  0.5355931520462036  1.0000
  Tb  Tb1       1.0  0.711358904838562  0.6872034668922424  0.6941914558410645  1.0000
