data_image0
_chemical_formula_structural       Ca5Hg7
_chemical_formula_sum              "Ca5 Hg7"
_cell_length_a       5.34456857816824
_cell_length_b       5.12389271814318
_cell_length_c       15.04401683807373
_cell_angle_alpha    108.32235258155724
_cell_angle_beta     93.87498384264684
_cell_angle_gamma    103.59430913629242

_space_group_name_H-M_alt    "P 1"
_space_group_IT_number       1

loop_
  _space_group_symop_operation_xyz
  'x, y, z'

loop_
  _atom_site_type_symbol
  _atom_site_label
  _atom_site_symmetry_multiplicity
  _atom_site_fract_x
  _atom_site_fract_y
  _atom_site_fract_z
  _atom_site_occupancy
  Ca  Ca1       1.0  0.442745178937912  0.98433917760849  0.36014482378959656  1.0000
  Ca  Ca2       1.0  0.9458673000335694  0.0910501480102539  0.38875144720077515  1.0000
  Ca  Ca3       1.0  0.18688364326953888  0.4154774844646454  0.7207246422767639  1.0000
  Ca  Ca4       1.0  0.18439704179763794  0.016228944063186646  0.729361891746521  1.0000
  Ca  Ca5       1.0  0.9440050125122071  0.9179877638816833  0.9652985930442809  1.0000
  Hg  Hg1       1.0  0.9563399553298951  0.24446550011634827  0.10994385182857512  1.0000
  Hg  Hg2       1.0  0.687549352645874  0.9789502024650574  0.3050132393836975  1.0000
  Hg  Hg3       1.0  0.4437286853790283  0.31170013546943665  0.028740761801600446  1.0000
  Hg  Hg4       1.0  0.9462503194808961  0.052139803767204285  0.03686898946762085  1.0000
  Hg  Hg5       1.0  0.6876811981201172  0.300152450799942  0.9053865075111388  1.0000
  Hg  Hg6       1.0  0.44558098912239075  0.03991684317588806  0.34359341859817505  1.0000
  Hg  Hg7       1.0  0.6571975350379944  0.7071644067764282  0.6346879601478577  1.0000
