data_image0
_chemical_formula_structural       Ca6Hg6
_chemical_formula_sum              "Ca6 Hg6"
_cell_length_a       5.276970612888718
_cell_length_b       4.432599756624058
_cell_length_c       14.023815155029297
_cell_angle_alpha    110.22462212082165
_cell_angle_beta     93.64938575836015
_cell_angle_gamma    117.71819133468924

_space_group_name_H-M_alt    "P 1"
_space_group_IT_number       1

loop_
  _space_group_symop_operation_xyz
  'x, y, z'

loop_
  _atom_site_type_symbol
  _atom_site_label
  _atom_site_symmetry_multiplicity
  _atom_site_fract_x
  _atom_site_fract_y
  _atom_site_fract_z
  _atom_site_occupancy
  Ca  Ca1       1.0  0.6456770896911621  0.4565556049346923  0.6636722087860107  1.0000
  Ca  Ca2       1.0  0.6424601674079895  0.10231615602970122  0.02776553481817246  1.0000
  Ca  Ca3       1.0  0.15012419223785398  0.7415509819984435  0.11867208033800124  1.0000
  Ca  Ca4       1.0  0.10663071274757387  0.0915633514523506  0.3291893005371094  1.0000
  Ca  Ca5       1.0  0.6417796015739441  0.25766727328300476  0.11428336799144743  1.0000
  Ca  Ca6       1.0  0.17280881106853477  0.9977638721466063  0.4503180384635925  1.0000
  Hg  Hg1       1.0  0.02417517639696594  0.841694951057434  0.4165602922439574  1.0000
  Hg  Hg2       1.0  0.6453287601470947  0.5030491352081299  0.5567418932914734  1.0000
  Hg  Hg3       1.0  0.39920827746391296  0.6120660305023193  0.27498704195022583  1.0000
  Hg  Hg4       1.0  0.8690719008445741  0.21254621446132657  0.010573705658316612  1.0000
  Hg  Hg5       1.0  0.6748078465461731  0.7639630436897277  0.7091281414031982  1.0000
  Hg  Hg6       1.0  0.16616126894950858  0.9637829661369323  0.9963128566741942  1.0000
