data_image0
_chemical_formula_structural       Ca7Hg3Mg2
_chemical_formula_sum              "Ca7 Hg3 Mg2"
_cell_length_a       6.146223731946512
_cell_length_b       6.480607416217761
_cell_length_c       11.579578399658203
_cell_angle_alpha    94.75709332393112
_cell_angle_beta     90.06916640900039
_cell_angle_gamma    116.71307377824583

_space_group_name_H-M_alt    "P 1"
_space_group_IT_number       1

loop_
  _space_group_symop_operation_xyz
  'x, y, z'

loop_
  _atom_site_type_symbol
  _atom_site_label
  _atom_site_symmetry_multiplicity
  _atom_site_fract_x
  _atom_site_fract_y
  _atom_site_fract_z
  _atom_site_occupancy
  Ca  Ca1       1.0  0.6549853086471558  0.9069818854331969  0.3037566542625427  1.0000
  Ca  Ca2       1.0  0.6574702262878418  0.10185716301202773  0.9828853011131287  1.0000
  Ca  Ca3       1.0  0.6582567691802979  0.43151029944419855  0.17703013122081757  1.0000
  Ca  Ca4       1.0  0.15762461721897117  0.9089137911796569  0.5259974002838135  1.0000
  Ca  Ca5       1.0  0.15495134890079498  0.09923885762691496  0.5602113008499146  1.0000
  Ca  Ca6       1.0  0.6575045585632324  0.351142555475235  0.7978724241256714  1.0000
  Ca  Ca7       1.0  0.6603878736495972  0.182546466588974  0.32997509837150574  1.0000
  Hg  Hg1       1.0  0.15507817268371574  0.7681880593299865  0.47780099511146545  1.0000
  Hg  Hg2       1.0  0.15840920805931083  0.9266162514686583  0.6854172348976135  1.0000
  Hg  Hg3       1.0  0.15472458302974695  0.45792278647422785  0.5395117998123169  1.0000
  Mg  Mg1       1.0  0.16642177104949946  0.45707458257675165  0.03558433800935745  1.0000
  Mg  Mg2       1.0  0.15822111070156097  0.6622435450553894  0.12305029481649399  1.0000
