data_image0
_chemical_formula_structural       Cd9
_chemical_formula_sum              "Cd9"
_cell_length_a       5.236846454689898
_cell_length_b       5.924551476573436
_cell_length_c       6.735720634460449
_cell_angle_alpha    123.92407270161885
_cell_angle_beta     87.91054406951518
_cell_angle_gamma    91.39206527461873

_space_group_name_H-M_alt    "P 1"
_space_group_IT_number       1

loop_
  _space_group_symop_operation_xyz
  'x, y, z'

loop_
  _atom_site_type_symbol
  _atom_site_label
  _atom_site_symmetry_multiplicity
  _atom_site_fract_x
  _atom_site_fract_y
  _atom_site_fract_z
  _atom_site_occupancy
  Cd  Cd1       1.0  0.8045304417610168  0.7864602208137512  0.2974030673503876  1.0000
  Cd  Cd2       1.0  0.5520506501197815  0.8954755663871765  0.8471767902374268  1.0000
  Cd  Cd3       1.0  0.5683937668800354  0.4514354169368744  0.013446149416267872  1.0000
  Cd  Cd4       1.0  0.05983291193842888  0.2614603638648987  0.8522318005561829  1.0000
  Cd  Cd5       1.0  0.7309650778770447  0.2896299660205841  0.9488877654075623  1.0000
  Cd  Cd6       1.0  0.24239224195480347  0.8254280090332031  0.06238109990954406  1.0000
  Cd  Cd7       1.0  0.5655469298362732  0.23296453058719635  0.020030206069350243  1.0000
  Cd  Cd8       1.0  0.06625980138778687  0.8801175951957703  0.33774974942207336  1.0000
  Cd  Cd9       1.0  0.06224244087934494  0.6169047951698303  0.05421248450875286  1.0000
