data_image0
_chemical_formula_structural       Cd8H
_chemical_formula_sum              "Cd8 H1"
_cell_length_a       5.554393779523426
_cell_length_b       5.981037127798294
_cell_length_c       7.292294502258301
_cell_angle_alpha    119.5800363035683
_cell_angle_beta     90.28590648559093
_cell_angle_gamma    92.72040119594593

_space_group_name_H-M_alt    "P 1"
_space_group_IT_number       1

loop_
  _space_group_symop_operation_xyz
  'x, y, z'

loop_
  _atom_site_type_symbol
  _atom_site_label
  _atom_site_symmetry_multiplicity
  _atom_site_fract_x
  _atom_site_fract_y
  _atom_site_fract_z
  _atom_site_occupancy
  Cd  Cd1       1.0  0.8657196760177612  0.6625080704689026  0.8261278867721557  1.0000
  Cd  Cd2       1.0  0.3696140944957733  0.5890486836433411  0.7083600163459777  1.0000
  Cd  Cd3       1.0  0.8732008934020996  0.4282315671443939  0.45810687541961664  1.0000
  Cd  Cd4       1.0  0.37655436992645264  0.46842455863952637  0.2377311140298843  1.0000
  Cd  Cd5       1.0  0.506648063659668  0.4025816023349762  0.04304895177483558  1.0000
  Cd  Cd6       1.0  0.6107544898986816  0.28742745518684387  0.15495926141738892  1.0000
  Cd  Cd7       1.0  0.915389358997345  0.17277587950229645  0.13783927261829376  1.0000
  Cd  Cd8       1.0  0.119842030107975  0.736910343170166  0.6192004084587097  1.0000
  H   H1        1.0  0.8854584693908691  0.3368750810623169  0.38363963365554804  1.0000
