data_image0
_chemical_formula_structural       Cd8H
_chemical_formula_sum              "Cd8 H1"
_cell_length_a       5.825329390832329
_cell_length_b       6.587923097648499
_cell_length_c       7.157677173614502
_cell_angle_alpha    102.47387365450552
_cell_angle_beta     89.56991139705482
_cell_angle_gamma    92.19373151214747

_space_group_name_H-M_alt    "P 1"
_space_group_IT_number       1

loop_
  _space_group_symop_operation_xyz
  'x, y, z'

loop_
  _atom_site_type_symbol
  _atom_site_label
  _atom_site_symmetry_multiplicity
  _atom_site_fract_x
  _atom_site_fract_y
  _atom_site_fract_z
  _atom_site_occupancy
  Cd  Cd1       1.0  0.9179117679595947  0.38998863101005554  0.3575031161308289  1.0000
  Cd  Cd2       1.0  0.4205411970615387  0.7495156526565552  0.941466510295868  1.0000
  Cd  Cd3       1.0  0.41929689049720764  0.5298337340354919  0.11410943418741228  1.0000
  Cd  Cd4       1.0  0.9164221286773682  0.5508474111557007  0.8502450585365297  1.0000
  Cd  Cd5       1.0  0.916096031665802  0.5165931582450867  0.18958465754985812  1.0000
  Cd  Cd6       1.0  0.4193382263183594  0.1756751984357834  0.8643739223480226  1.0000
  Cd  Cd7       1.0  0.9183843731880188  0.8400163054466248  0.056245177984237706  1.0000
  Cd  Cd8       1.0  0.2970297634601593  0.6133887767791748  0.3549091219902039  1.0000
  H   H1        1.0  0.42054182291030884  0.7252627015113831  0.2634222805500031  1.0000
