data_image0
_chemical_formula_structural       Cd7HgLa
_chemical_formula_sum              "Cd7 Hg1 La1"
_cell_length_a       5.274125672818232
_cell_length_b       5.848754999171543
_cell_length_c       7.068584442138672
_cell_angle_alpha    89.3255717001983
_cell_angle_beta     88.0318155074413
_cell_angle_gamma    112.36922821002817

_space_group_name_H-M_alt    "P 1"
_space_group_IT_number       1

loop_
  _space_group_symop_operation_xyz
  'x, y, z'

loop_
  _atom_site_type_symbol
  _atom_site_label
  _atom_site_symmetry_multiplicity
  _atom_site_fract_x
  _atom_site_fract_y
  _atom_site_fract_z
  _atom_site_occupancy
  Cd  Cd1       1.0  0.10881233960390099  0.9401271343231202  0.02903384901583195  1.0000
  Cd  Cd2       1.0  0.1096590980887413  0.5166569352149963  0.33281967043876654  1.0000
  Cd  Cd3       1.0  0.11639445275068283  0.7995155453681946  0.9354723691940309  1.0000
  Cd  Cd4       1.0  0.11077161133289337  0.1651148945093155  0.5101707577705383  1.0000
  Cd  Cd5       1.0  0.3898131251335144  0.7241359353065491  0.9426356554031373  1.0000
  Cd  Cd6       1.0  0.6120554208755493  0.5549660921096802  0.8396036028862001  1.0000
  Cd  Cd7       1.0  0.6151531934738159  0.8166527152061464  0.15300676226615909  1.0000
  Hg  Hg1       1.0  0.6127432584762573  0.32129141688346863  0.5096680521965027  1.0000
  La  La1       1.0  0.6177860498428345  0.5482019186019897  0.8415966033935548  1.0000
