data_image0
_chemical_formula_structural       Cd9
_chemical_formula_sum              "Cd9"
_cell_length_a       5.439236201725771
_cell_length_b       6.4268229687605745
_cell_length_c       6.724882125854492
_cell_angle_alpha    118.36719457594877
_cell_angle_beta     89.21189561349763
_cell_angle_gamma    90.94839089728745

_space_group_name_H-M_alt    "P 1"
_space_group_IT_number       1

loop_
  _space_group_symop_operation_xyz
  'x, y, z'

loop_
  _atom_site_type_symbol
  _atom_site_label
  _atom_site_symmetry_multiplicity
  _atom_site_fract_x
  _atom_site_fract_y
  _atom_site_fract_z
  _atom_site_occupancy
  Cd  Cd1       1.0  0.0042870850302278996  0.717221736907959  0.710116982460022  1.0000
  Cd  Cd2       1.0  0.005083374213427305  0.16620448231697083  0.41016536951065063  1.0000
  Cd  Cd3       1.0  0.5063098073005676  0.9194469451904297  0.31104663014411926  1.0000
  Cd  Cd4       1.0  0.5040917992591858  0.30866262316703796  0.9515535235404968  1.0000
  Cd  Cd5       1.0  0.506299614906311  0.5266801714897156  0.07715130597352984  1.0000
  Cd  Cd6       1.0  0.003386941971257329  0.9786746501922607  0.601246178150177  1.0000
  Cd  Cd7       1.0  0.5044796466827393  0.11522316187620163  0.5219765305519104  1.0000
  Cd  Cd8       1.0  0.5014654397964478  0.1749175786972046  0.5215715765953064  1.0000
  Cd  Cd9       1.0  0.010830521583557129  0.16353942453861237  0.5562001466751099  1.0000
