data_image0
_chemical_formula_structural       Cd9
_chemical_formula_sum              "Cd9"
_cell_length_a       4.664671213176539
_cell_length_b       6.561416932881657
_cell_length_c       6.4839253425598145
_cell_angle_alpha    113.95657457589324
_cell_angle_beta     89.51493811974659
_cell_angle_gamma    90.04566825826792

_space_group_name_H-M_alt    "P 1"
_space_group_IT_number       1

loop_
  _space_group_symop_operation_xyz
  'x, y, z'

loop_
  _atom_site_type_symbol
  _atom_site_label
  _atom_site_symmetry_multiplicity
  _atom_site_fract_x
  _atom_site_fract_y
  _atom_site_fract_z
  _atom_site_occupancy
  Cd  Cd1       1.0  0.4304494261741638  0.3496166169643402  0.8467686772346497  1.0000
  Cd  Cd2       1.0  0.42887046933174133  0.5432244539260864  0.034557584673166275  1.0000
  Cd  Cd3       1.0  0.9245160222053528  0.12435091286897658  0.8745332360267639  1.0000
  Cd  Cd4       1.0  0.93010014295578  0.3242429196834564  0.5605607628822326  1.0000
  Cd  Cd5       1.0  0.92918461561203  0.8338139653205872  0.3382082283496856  1.0000
  Cd  Cd6       1.0  0.4282313883304596  0.37491536140441895  0.7097498178482056  1.0000
  Cd  Cd7       1.0  0.9285417199134827  0.9673010110855101  0.39455148577690125  1.0000
  Cd  Cd8       1.0  0.9285210371017456  0.3244880437850952  0.7803333997726439  1.0000
  Cd  Cd9       1.0  0.43066245317459106  0.8199737668037415  0.271632969379425  1.0000
