data_image0
_chemical_formula_structural       B4Ge4
_chemical_formula_sum              "B4 Ge4"
_cell_length_a       6.223740140515454
_cell_length_b       6.195527114888828
_cell_length_c       6.636174201965332
_cell_angle_alpha    106.65357797539815
_cell_angle_beta     105.45906299487827
_cell_angle_gamma    112.29319323047987

_space_group_name_H-M_alt    "P 1"
_space_group_IT_number       1

loop_
  _space_group_symop_operation_xyz
  'x, y, z'

loop_
  _atom_site_type_symbol
  _atom_site_label
  _atom_site_symmetry_multiplicity
  _atom_site_fract_x
  _atom_site_fract_y
  _atom_site_fract_z
  _atom_site_occupancy
  B   B1        1.0  0.07848110795021057  0.14007222652435303  0.05488279834389689  1.0000
  B   B2        1.0  0.36929979920387274  0.9322082996368409  0.15023790299892434  1.0000
  B   B3        1.0  0.3712246417999267  0.5985669493675232  0.8044854402542114  1.0000
  B   B4        1.0  0.04006592556834221  0.34840306639671326  0.04177404195070269  1.0000
  Ge  Ge1       1.0  0.102640263736248  0.6872643828392029  0.6445286870002747  1.0000
  Ge  Ge2       1.0  0.7587625384330748  0.12573844194412231  0.0184143278747797  1.0000
  Ge  Ge3       1.0  0.6080512404441833  0.3844115138053894  0.4052196145057678  1.0000
  Ge  Ge4       1.0  0.7883563637733458  0.6312463879585266  0.5241740942001344  1.0000
