data_image0
_chemical_formula_structural       B4Ge3Pb
_chemical_formula_sum              "B4 Ge3 Pb1"
_cell_length_a       5.112905587084857
_cell_length_b       5.2187405248400776
_cell_length_c       6.831385612487793
_cell_angle_alpha    114.14015426661162
_cell_angle_beta     110.70993270279524
_cell_angle_gamma    90.16335813868348

_space_group_name_H-M_alt    "P 1"
_space_group_IT_number       1

loop_
  _space_group_symop_operation_xyz
  'x, y, z'

loop_
  _atom_site_type_symbol
  _atom_site_label
  _atom_site_symmetry_multiplicity
  _atom_site_fract_x
  _atom_site_fract_y
  _atom_site_fract_z
  _atom_site_occupancy
  B   B1        1.0  0.2779942750930786  0.4248829483985901  0.7069919705390931  1.0000
  B   B2        1.0  0.7718355059623718  0.41019198298454285  0.08235102146863937  1.0000
  B   B3        1.0  0.9542660117149353  0.9217453002929688  0.572333574295044  1.0000
  B   B4        1.0  0.26229387521743774  0.41080740094184875  0.6851148605346681  1.0000
  Ge  Ge1       1.0  0.4676375687122345  0.6650469899177551  0.8347926139831544  1.0000
  Ge  Ge2       1.0  0.5682111978530884  0.16231824457645416  0.16480790078639984  1.0000
  Ge  Ge3       1.0  0.4756793677806854  0.6619853377342224  0.8111132979393006  1.0000
  Pb  Pb1       1.0  0.025746017694473267  0.6770894527435303  0.441578894853592  1.0000
