data_image0
_chemical_formula_structural       B2Ge4STe
_chemical_formula_sum              "B2 Ge4 S1 Te1"
_cell_length_a       5.31032006152691
_cell_length_b       4.926705507136922
_cell_length_c       6.378958225250244
_cell_angle_alpha    113.1711781263806
_cell_angle_beta     104.4368028964633
_cell_angle_gamma    113.17783327841941

_space_group_name_H-M_alt    "P 1"
_space_group_IT_number       1

loop_
  _space_group_symop_operation_xyz
  'x, y, z'

loop_
  _atom_site_type_symbol
  _atom_site_label
  _atom_site_symmetry_multiplicity
  _atom_site_fract_x
  _atom_site_fract_y
  _atom_site_fract_z
  _atom_site_occupancy
  B   B1        1.0  0.8988199234008788  0.21887217462062838  0.2319530993700027  1.0000
  B   B2        1.0  0.7975426912307739  0.9166189432144166  0.507111132144928  1.0000
  Ge  Ge1       1.0  0.11668134480714797  0.26195400953292847  0.8217722177505492  1.0000
  Ge  Ge2       1.0  0.3050641119480133  0.599475085735321  0.7265437841415405  1.0000
  Ge  Ge3       1.0  0.2334176599979401  0.6697147488594056  0.12350825965404509  1.0000
  Ge  Ge4       1.0  0.6670975685119629  0.7519158124923707  0.1278047412633896  1.0000
  S   S1        1.0  0.5012816786766052  0.10119550675153734  0.06605892628431317  1.0000
  Te  Te1       1.0  0.8198719620704651  0.9264698624610902  0.6231635212898253  1.0000
