data_image0
_chemical_formula_structural       Bi2BrGeH2I2Na2SiTi2UZn
_chemical_formula_sum              "Bi2 Br1 Ge1 H2 I2 Na2 Si1 Ti2 U1 Zn1"
_cell_length_a       5.866317074425854
_cell_length_b       3.615076024414711
_cell_length_c       11.238080978393555
_cell_angle_alpha    88.22731093690291
_cell_angle_beta     76.55918093881434
_cell_angle_gamma    35.662037006524734

_space_group_name_H-M_alt    "P 1"
_space_group_IT_number       1

loop_
  _space_group_symop_operation_xyz
  'x, y, z'

loop_
  _atom_site_type_symbol
  _atom_site_label
  _atom_site_symmetry_multiplicity
  _atom_site_fract_x
  _atom_site_fract_y
  _atom_site_fract_z
  _atom_site_occupancy
  Bi  Bi1       1.0  0.5983961224555969  0.5533711910247803  0.8168902397155762  1.0000
  Bi  Bi2       1.0  0.47252416610717773  0.5486224293708801  0.2835451662540436  1.0000
  Br  Br1       1.0  0.2693912088871002  0.6586591005325317  0.8278402090072632  1.0000
  Ge  Ge1       1.0  0.8731990456581116  0.8861032128334045  0.03613210842013359  1.0000
  H   H1        1.0  0.79636150598526  0.6827243566513062  0.9131001830101013  1.0000
  H   H2        1.0  0.4779511094093323  0.5677675604820251  0.24259337782859802  1.0000
  I   I1        1.0  0.4950115978717804  0.6274980306625366  0.8457574844360352  1.0000
  I   I2        1.0  0.23975642025470734  0.5839659571647644  0.24446380138397217  1.0000
  Na  Na1       1.0  0.9717344641685486  0.15953339636325836  0.9922388195991516  1.0000
  Na  Na2       1.0  0.9743700623512268  0.06284056603908539  0.9708055853843689  1.0000
  Si  Si1       1.0  0.46537888050079346  0.24606627225875854  0.29052138328552246  1.0000
  Ti  Ti1       1.0  0.8324518203735352  0.5611295700073242  0.8608217239379883  1.0000
  Ti  Ti2       1.0  0.5109624862670898  0.2589457929134369  0.8721888661384583  1.0000
  U   U1        1.0  0.14401127398014069  0.8589859008789062  0.3083692491054535  1.0000
  Zn  Zn1       1.0  0.030832400545477867  0.9420811533927917  0.6989412307739258  1.0000
