data_image0
_chemical_formula_structural       AlAuCs2IIrLaNaOPTi2U2Zn
_chemical_formula_sum              "Al1 Au1 Cs2 I1 Ir1 La1 Na1 O1 P1 Ti2 U2 Zn1"
_cell_length_a       7.021067288700202
_cell_length_b       8.611951639218562
_cell_length_c       9.33787727355957
_cell_angle_alpha    115.75903939287302
_cell_angle_beta     90.24653576817526
_cell_angle_gamma    90.28760660081355

_space_group_name_H-M_alt    "P 1"
_space_group_IT_number       1

loop_
  _space_group_symop_operation_xyz
  'x, y, z'

loop_
  _atom_site_type_symbol
  _atom_site_label
  _atom_site_symmetry_multiplicity
  _atom_site_fract_x
  _atom_site_fract_y
  _atom_site_fract_z
  _atom_site_occupancy
  Al  Al1       1.0  0.22623932361602783  0.3054392337799072  0.9444231986999512  1.0000
  Au  Au1       1.0  0.23462751507759094  0.07008685916662216  0.8129761219024658  1.0000
  Cs  Cs1       1.0  0.7377734184265137  0.9144533872604369  0.9371087551116943  1.0000
  Cs  Cs2       1.0  0.7354165315628052  0.4676640629768371  0.33386194705963135  1.0000
  I   I1        1.0  0.23503518104553223  0.5553883910179138  0.8507574796676635  1.0000
  Ir  Ir1       1.0  0.2393229901790619  0.9123885631561278  0.6770637631416321  1.0000
  La  La1       1.0  0.7327737212181091  0.011492321267724035  0.788993775844574  1.0000
  Na  Na1       1.0  0.2394132763147354  0.2141683995723724  0.40076568722724915  1.0000
  O   O1        1.0  0.7531896829605103  0.8253639340400695  0.5856150984764099  1.0000
  P   P1        1.0  0.738490879535675  0.2382780462503433  0.05505728349089622  1.0000
  Ti  Ti1       1.0  0.24084877967834473  0.4031799733638763  0.5112552046775818  1.0000
  Ti  Ti2       1.0  0.7427451610565186  0.753362476825714  0.4268535673618316  1.0000
  U   U1        1.0  0.7403128147125244  0.9123738408088683  0.2508964240550995  1.0000
  U   U2        1.0  0.7419490814208983  0.9092645049095153  0.48183122277259827  1.0000
  Zn  Zn1       1.0  0.7401732802391052  0.95989853143692  0.5634300708770752  1.0000
