data_image0
_chemical_formula_structural       BiCaEuHI2OPTbTi3U2Zn
_chemical_formula_sum              "Bi1 Ca1 Eu1 H1 I2 O1 P1 Tb1 Ti3 U2 Zn1"
_cell_length_a       6.768560900563177
_cell_length_b       7.00339690377617
_cell_length_c       9.848626136779785
_cell_angle_alpha    91.22194049046672
_cell_angle_beta     84.52454617361803
_cell_angle_gamma    87.74366566630052

_space_group_name_H-M_alt    "P 1"
_space_group_IT_number       1

loop_
  _space_group_symop_operation_xyz
  'x, y, z'

loop_
  _atom_site_type_symbol
  _atom_site_label
  _atom_site_symmetry_multiplicity
  _atom_site_fract_x
  _atom_site_fract_y
  _atom_site_fract_z
  _atom_site_occupancy
  Bi  Bi1       1.0  0.6268534064292908  0.8741858601570129  0.22001194953918457  1.0000
  Ca  Ca1       1.0  0.1189170479774475  0.521378219127655  0.6629083752632141  1.0000
  Eu  Eu1       1.0  0.633094310760498  0.36741524934768677  0.8793832659721375  1.0000
  H   H1        1.0  0.6271308064460754  0.9000648856163025  0.7395147085189819  1.0000
  I   I1        1.0  0.1375075727701187  0.44219183921813965  0.26441365480422974  1.0000
  I   I2        1.0  0.6164484024047852  0.6552082300186157  0.6341378092765808  1.0000
  O   O1        1.0  0.6673152446746826  0.864075779914856  0.06837255507707596  1.0000
  P   P1        1.0  0.14868082106113434  0.8518458604812622  0.5140277147293091  1.0000
  Tb  Tb1       1.0  0.13442739844322205  0.2022458165884018  0.06668967008590698  1.0000
  Ti  Ti1       1.0  0.12596425414085388  0.9228160381317139  0.9128660559654236  1.0000
  Ti  Ti2       1.0  0.9149838685989379  0.5371917486190796  0.4318234324455261  1.0000
  Ti  Ti3       1.0  0.14170901477336884  0.08144107460975647  0.7165478467941284  1.0000
  U   U1        1.0  0.10419648140668868  0.8002952337265015  0.18600058555603027  1.0000
  U   U2        1.0  0.6207535862922668  0.0520176999270916  0.3362647593021393  1.0000
  Zn  Zn1       1.0  0.6346602439880371  0.3008910119533539  0.3090468645095825  1.0000
