data_image0
_chemical_formula_structural       Au2Bi4CoCsI2LaLiNaO2
_chemical_formula_sum              "Au2 Bi4 Co1 Cs1 I2 La1 Li1 Na1 O2"
_cell_length_a       6.3534197735379365
_cell_length_b       6.144832712390434
_cell_length_c       14.660399436950684
_cell_angle_alpha    90.35260915633272
_cell_angle_beta     89.66262621247273
_cell_angle_gamma    109.13335026572297

_space_group_name_H-M_alt    "P 1"
_space_group_IT_number       1

loop_
  _space_group_symop_operation_xyz
  'x, y, z'

loop_
  _atom_site_type_symbol
  _atom_site_label
  _atom_site_symmetry_multiplicity
  _atom_site_fract_x
  _atom_site_fract_y
  _atom_site_fract_z
  _atom_site_occupancy
  Au  Au1       1.0  0.600642740726471  0.12013737112283707  0.17345723509788513  1.0000
  Au  Au2       1.0  0.4008394479751587  0.6348604559898376  0.880698025226593  1.0000
  Bi  Bi1       1.0  0.08690442144870758  0.44407305121421814  0.0453956313431263  1.0000
  Bi  Bi2       1.0  0.902546763420105  0.02386695146560669  0.1473241150379181  1.0000
  Bi  Bi3       1.0  0.8662309646606445  0.4062435030937195  0.6396921277046204  1.0000
  Bi  Bi4       1.0  0.37266868352890015  0.8693050742149353  0.1324838101863861  1.0000
  Co  Co1       1.0  0.37655606865882874  0.9735873341560364  0.17314819991588593  1.0000
  Cs  Cs1       1.0  0.9106231927871704  0.5146636366844177  0.965573251247406  1.0000
  I   I1        1.0  0.02190040983259678  0.8452188372612  0.5006809830665588  1.0000
  I   I2        1.0  0.8705040216445923  0.012486031278967857  0.7111511826515198  1.0000
  La  La1       1.0  0.9227454662322998  0.18342451751232147  0.19638238847255707  1.0000
  Li  Li1       1.0  0.8971774578094482  0.6704645156860352  0.25643330812454224  1.0000
  Na  Na1       1.0  0.3597317636013031  0.5025334358215332  0.7350186109542847  1.0000
  O   O1        1.0  0.40027281641960144  0.6841956377029419  0.8603720664978027  1.0000
  O   O2        1.0  0.8932329416275024  0.10062640905380249  0.8178001642227173  1.0000
