data_image0
_chemical_formula_structural       Au3Bi6NaNiO4
_chemical_formula_sum              "Au3 Bi6 Na1 Ni1 O4"
_cell_length_a       4.401321648424894
_cell_length_b       5.370542534469206
_cell_length_c       6.143560886383057
_cell_angle_alpha    110.5231729038516
_cell_angle_beta     118.45054963185034
_cell_angle_gamma    126.57049889650918

_space_group_name_H-M_alt    "P 1"
_space_group_IT_number       1

loop_
  _space_group_symop_operation_xyz
  'x, y, z'

loop_
  _atom_site_type_symbol
  _atom_site_label
  _atom_site_symmetry_multiplicity
  _atom_site_fract_x
  _atom_site_fract_y
  _atom_site_fract_z
  _atom_site_occupancy
  Au  Au1       1.0  0.5864955782890319  0.19797617197036735  0.7459815144538879  1.0000
  Au  Au2       1.0  0.6281253099441528  0.2868839800357818  0.7719653248786926  1.0000
  Au  Au3       1.0  0.6270647644996643  0.2672283053398132  0.6650255918502808  1.0000
  Bi  Bi1       1.0  0.5927258729934693  0.5339636206626893  0.5909947156906129  1.0000
  Bi  Bi2       1.0  0.20811605453491205  0.38267344236373896  0.5508397221565247  1.0000
  Bi  Bi3       1.0  0.09886442869901657  0.7643532156944275  0.4133254587650299  1.0000
  Bi  Bi4       1.0  0.7744860053062438  0.6841080784797667  0.6552919149398804  1.0000
  Bi  Bi5       1.0  0.07933318614959706  0.6395672559738158  0.5901852250099182  1.0000
  Bi  Bi6       1.0  0.838663101196289  0.17484693229198447  0.4164797067642212  1.0000
  Na  Na1       1.0  0.09746702015399933  0.37030506134033203  0.9259917140007019  1.0000
  Ni  Ni1       1.0  0.07283242046833033  0.11554750800132746  0.1962957680225372  1.0000
  O   O1        1.0  0.5128114819526672  0.114752784371376  0.4686703085899353  1.0000
  O   O2        1.0  0.35536906123161294  0.8902535438537595  0.9456490278244017  1.0000
  O   O3        1.0  0.8546237945556641  0.44847437739372253  0.15923409163951877  1.0000
  O   O4        1.0  0.598336935043335  0.03937254101037974  0.6419646739959717  1.0000
