data_image0
_chemical_formula_structural       Bi11O4
_chemical_formula_sum              "Bi11 O4"
_cell_length_a       5.85024889218643
_cell_length_b       5.43656962716788
_cell_length_c       7.169863224029541
_cell_angle_alpha    71.75075026546307
_cell_angle_beta     60.247019420850776
_cell_angle_gamma    44.49053136482971

_space_group_name_H-M_alt    "P 1"
_space_group_IT_number       1

loop_
  _space_group_symop_operation_xyz
  'x, y, z'

loop_
  _atom_site_type_symbol
  _atom_site_label
  _atom_site_symmetry_multiplicity
  _atom_site_fract_x
  _atom_site_fract_y
  _atom_site_fract_z
  _atom_site_occupancy
  Bi  Bi1       1.0  0.3328825831413269  0.36442407965660095  0.9112431406974794  1.0000
  Bi  Bi2       1.0  0.4495083391666413  0.14561565220355988  0.7669985294342042  1.0000
  Bi  Bi3       1.0  0.6926437616348267  0.004879087209701538  0.4208784699440003  1.0000
  Bi  Bi4       1.0  0.5952380299568176  0.40148332715034485  0.09989877790212633  1.0000
  Bi  Bi5       1.0  0.9271634817123414  0.30951231718063354  0.680767059326172  1.0000
  Bi  Bi6       1.0  0.011060689575970173  0.3718351125717163  0.49456086754798895  1.0000
  Bi  Bi7       1.0  0.6056995987892151  0.5258597135543823  0.37494164705276495  1.0000
  Bi  Bi8       1.0  0.05861248821020127  0.5691530108451843  0.32197770476341253  1.0000
  Bi  Bi9       1.0  0.458589255809784  0.8618665337562561  0.05821144953370095  1.0000
  Bi  Bi10      1.0  0.47403633594512945  0.3229178190231323  0.14783428609371185  1.0000
  Bi  Bi11      1.0  0.08632371574640274  0.7199664115905762  0.9330120682716371  1.0000
  O   O1        1.0  0.897122085094452  0.5779853463172913  0.13090692460536957  1.0000
  O   O2        1.0  0.9072635769844056  0.31868723034858704  0.1841893941164017  1.0000
  O   O3        1.0  0.27312952280044556  0.9910992980003357  0.4880902469158173  1.0000
  O   O4        1.0  0.5468333959579468  0.6503819823265076  0.09481810033321382  1.0000
