data_image0
_chemical_formula_structural       F5HKN2O4UZr
_chemical_formula_sum              "F5 H1 K1 N2 O4 U1 Zr1"
_cell_length_a       6.615093106567424
_cell_length_b       6.684348431425544
_cell_length_c       6.823203086853027
_cell_angle_alpha    60.221666715633575
_cell_angle_beta     61.5299796924517
_cell_angle_gamma    64.08456057317227

_space_group_name_H-M_alt    "P 1"
_space_group_IT_number       1

loop_
  _space_group_symop_operation_xyz
  'x, y, z'

loop_
  _atom_site_type_symbol
  _atom_site_label
  _atom_site_symmetry_multiplicity
  _atom_site_fract_x
  _atom_site_fract_y
  _atom_site_fract_z
  _atom_site_occupancy
  F   F1        1.0  0.12222187221050262  0.04659676179289818  0.17650702595710754  1.0000
  F   F2        1.0  0.02006435953080658  0.863309621810913  0.5352654457092286  1.0000
  F   F3        1.0  0.7670435905456543  0.377946674823761  0.046021606773137984  1.0000
  F   F4        1.0  0.4117489457130432  0.3783772587776184  0.0706847608089447  1.0000
  F   F5        1.0  0.4777821898460388  0.6961953639984131  0.6692460179328918  1.0000
  H   H1        1.0  0.2598641812801361  0.3281903862953186  0.6187387108802795  1.0000
  K   K1        1.0  0.6582551002502441  0.8927283287048339  0.41803911328315735  1.0000
  N   N1        1.0  0.21474790573120123  0.9624127745628356  0.4634456932544708  1.0000
  N   N2        1.0  0.0665656328201294  0.8212930560112  0.2536206841468811  1.0000
  O   O1        1.0  0.007746174931526222  0.8922178149223327  0.031308405101299286  1.0000
  O   O2        1.0  0.29028981924057007  0.4389184415340423  0.7510576844215393  1.0000
  O   O3        1.0  0.6656209230422974  0.9012614488601683  0.42114904522895813  1.0000
  O   O4        1.0  0.3203602135181427  0.5938597321510315  0.24604532122612  1.0000
  U   U1        1.0  0.12149215489625931  0.6861135959625244  0.8569581508636475  1.0000
  Zr  Zr1       1.0  0.8278334140777588  0.1619323343038559  0.32383626699447626  1.0000
