data_image0
_chemical_formula_structural       F4KN3O5YbZr
_chemical_formula_sum              "F4 K1 N3 O5 Yb1 Zr1"
_cell_length_a       6.159730137649325
_cell_length_b       6.326552971400154
_cell_length_c       6.367372035980225
_cell_angle_alpha    60.286451109490265
_cell_angle_beta     60.33160103908633
_cell_angle_gamma    64.3227036124819

_space_group_name_H-M_alt    "P 1"
_space_group_IT_number       1

loop_
  _space_group_symop_operation_xyz
  'x, y, z'

loop_
  _atom_site_type_symbol
  _atom_site_label
  _atom_site_symmetry_multiplicity
  _atom_site_fract_x
  _atom_site_fract_y
  _atom_site_fract_z
  _atom_site_occupancy
  F   F1        1.0  0.5945900678634644  0.8181763887405396  0.4486086666584015  1.0000
  F   F2        1.0  0.2926616072654724  0.9925022721290588  0.9521342515945435  1.0000
  F   F3        1.0  0.47237884998321533  0.6366265416145325  0.939248263835907  1.0000
  F   F4        1.0  0.8719626069068909  0.8162997364997864  0.2793406844139099  1.0000
  K   K1        1.0  0.26423102617263794  0.8193157315254211  0.21517933905124664  1.0000
  N   N1        1.0  0.6035037636756897  0.43446385860443115  0.4596306085586548  1.0000
  N   N2        1.0  0.05106605216860771  0.24433177709579468  0.668850302696228  1.0000
  N   N3        1.0  0.805568516254425  0.4142247438430786  0.7214434146881104  1.0000
  O   O1        1.0  0.7370719909667969  0.05435968562960625  0.7545199990272522  1.0000
  O   O2        1.0  0.10404620319604874  0.989319920539856  0.45256343483924866  1.0000
  O   O3        1.0  0.7357485294342041  0.12381386011838913  0.8845982551574707  1.0000
  O   O4        1.0  0.18784891068935394  0.32254812121391296  0.9572685360908508  1.0000
  O   O5        1.0  0.16788142919540405  0.5350624918937683  0.48813319206237793  1.0000
  Yb  Yb1       1.0  0.5937814712524414  0.5840854048728943  0.18241246044635773  1.0000
  Zr  Zr1       1.0  0.8672254085540771  0.8167197704315186  0.8790106773376465  1.0000
