data_image0
_chemical_formula_structural       F6ORh2Ru6
_chemical_formula_sum              "F6 O1 Rh2 Ru6"
_cell_length_a       5.484777894010915
_cell_length_b       5.655878660290457
_cell_length_c       5.027379035949707
_cell_angle_alpha    74.27370470030525
_cell_angle_beta     57.601009149139315
_cell_angle_gamma    79.90170068694044

_space_group_name_H-M_alt    "P 1"
_space_group_IT_number       1

loop_
  _space_group_symop_operation_xyz
  'x, y, z'

loop_
  _atom_site_type_symbol
  _atom_site_label
  _atom_site_symmetry_multiplicity
  _atom_site_fract_x
  _atom_site_fract_y
  _atom_site_fract_z
  _atom_site_occupancy
  F   F1        1.0  0.24437591433525085  0.9639796018600464  0.11446957290172577  1.0000
  F   F2        1.0  0.7645095586776733  0.33683884143829346  0.8931154608726501  1.0000
  F   F3        1.0  0.2828075885772705  0.4791078567504883  0.20650893449783325  1.0000
  F   F4        1.0  0.011594010517001152  0.8237358927726746  0.9515778422355652  1.0000
  F   F5        1.0  0.7266457080841064  0.932205319404602  0.1407945156097412  1.0000
  F   F6        1.0  0.28655165433883667  0.3592129945755005  0.6062100529670715  1.0000
  O   O1        1.0  0.9235683083534241  0.9859752655029297  0.3374815285205841  1.0000
  Rh  Rh1       1.0  0.935734748840332  0.9912415146827698  0.8490451574325562  1.0000
  Rh  Rh2       1.0  0.4252608120441437  0.5059364438056946  0.552221953868866  1.0000
  Ru  Ru1       1.0  0.7630338072776794  0.4677821099758148  0.7209652066230774  1.0000
  Ru  Ru2       1.0  0.9313589930534363  0.7530667781829834  0.45254746079444885  1.0000
  Ru  Ru3       1.0  0.19920003414154053  0.11620651185512543  0.6629231572151184  1.0000
  Ru  Ru4       1.0  0.4555512070655823  0.5070319175720215  0.3936997652053833  1.0000
  Ru  Ru5       1.0  0.5424619913101196  0.04960772767663002  0.05919133126735692  1.0000
  Ru  Ru6       1.0  0.1840844601392746  0.24981343746185303  0.6702475547790527  1.0000
