data_image0
_chemical_formula_structural       F8HN2O3Ru
_chemical_formula_sum              "F8 H1 N2 O3 Ru1"
_cell_length_a       6.0366010870747955
_cell_length_b       6.006391084461372
_cell_length_c       6.357264518737793
_cell_angle_alpha    57.19844311303576
_cell_angle_beta     60.04552644720515
_cell_angle_gamma    64.31546581214596

_space_group_name_H-M_alt    "P 1"
_space_group_IT_number       1

loop_
  _space_group_symop_operation_xyz
  'x, y, z'

loop_
  _atom_site_type_symbol
  _atom_site_label
  _atom_site_symmetry_multiplicity
  _atom_site_fract_x
  _atom_site_fract_y
  _atom_site_fract_z
  _atom_site_occupancy
  F   F1        1.0  0.0037497140001505613  0.3381616473197937  0.12216541916131973  1.0000
  F   F2        1.0  0.5545918345451355  0.8355703353881836  0.5285448431968689  1.0000
  F   F3        1.0  0.9268921613693237  0.5425518751144409  0.4652969241142273  1.0000
  F   F4        1.0  0.2993546724319458  0.12437063455581665  0.05446755141019821  1.0000
  F   F5        1.0  0.5014350414276123  0.8531100153923035  0.8043924570083618  1.0000
  F   F6        1.0  0.03700537607073784  0.8742382526397705  0.2407549023628235  1.0000
  F   F7        1.0  0.5034800171852112  0.35727378726005554  0.8386724591255188  1.0000
  F   F8        1.0  0.804267406463623  0.8400225639343262  0.8480446934700012  1.0000
  H   H1        1.0  0.10994531214237213  0.3041995167732239  0.37593701481819153  1.0000
  N   N1        1.0  0.28744935989379883  0.36740076541900635  0.5603914260864258  1.0000
  N   N2        1.0  0.6945282220840454  0.969506025314331  0.4375041127204895  1.0000
  O   O1        1.0  0.5201764702796936  0.3700602948665619  0.9717146754264832  1.0000
  O   O2        1.0  0.6061462163925171  0.29409247636795044  0.38103193044662476  1.0000
  O   O3        1.0  0.21805152297019958  0.5424401760101318  0.5800485014915466  1.0000
  Ru  Ru1       1.0  0.691612720489502  0.562877893447876  0.27779895067214966  1.0000
