data_image0
_chemical_formula_structural       F5HN4O3SiZr
_chemical_formula_sum              "F5 H1 N4 O3 Si1 Zr1"
_cell_length_a       6.319752773087364
_cell_length_b       6.707932356726738
_cell_length_c       7.104094982147217
_cell_angle_alpha    90.77024699053239
_cell_angle_beta     92.86303825195871
_cell_angle_gamma    118.80964839496767

_space_group_name_H-M_alt    "P 1"
_space_group_IT_number       1

loop_
  _space_group_symop_operation_xyz
  'x, y, z'

loop_
  _atom_site_type_symbol
  _atom_site_label
  _atom_site_symmetry_multiplicity
  _atom_site_fract_x
  _atom_site_fract_y
  _atom_site_fract_z
  _atom_site_occupancy
  F   F1        1.0  0.8460986018180847  0.5768384337425232  0.879574954509735  1.0000
  F   F2        1.0  0.026285098865628312  0.7535786628723146  0.6529763340950012  1.0000
  F   F3        1.0  0.6086341738700867  0.02366842329502106  0.6238842010498047  1.0000
  F   F4        1.0  0.3862901329994202  0.7492893338203431  0.9015783071517943  1.0000
  F   F5        1.0  0.3458795547485352  0.9191467761993409  0.32668060064315796  1.0000
  H   H1        1.0  0.13621254265308386  0.9920528531074525  0.5851477980613708  1.0000
  N   N1        1.0  0.7430849671363831  0.27096027135849  0.41044333577156067  1.0000
  N   N2        1.0  0.018343983218073914  0.7299213409423829  0.17641843855381012  1.0000
  N   N3        1.0  0.18538126349449158  0.3526620864868164  0.7449109554290771  1.0000
  N   N4        1.0  0.38978880643844604  0.7163317203521729  0.3095528483390808  1.0000
  O   O1        1.0  0.14437930285930634  0.30706921219825745  0.271850049495697  1.0000
  O   O2        1.0  0.5898464322090149  0.48979765176773077  0.636300265789032  1.0000
  O   O3        1.0  0.46499836444854736  0.2466005235910416  0.012775581330060962  1.0000
  Si  Si1       1.0  0.32373255491256714  0.4076469540596009  0.38193148374557495  1.0000
  Zr  Zr1       1.0  0.1328131407499314  0.9754881858825685  0.9308189153671264  1.0000
