data_image0
_chemical_formula_structural       F4NORu9
_chemical_formula_sum              "F4 N1 O1 Ru9"
_cell_length_a       5.5274904726267495
_cell_length_b       5.767081096015322
_cell_length_c       5.667265892028809
_cell_angle_alpha    62.94788489105277
_cell_angle_beta     62.91617239124458
_cell_angle_gamma    63.22589500289284

_space_group_name_H-M_alt    "P 1"
_space_group_IT_number       1

loop_
  _space_group_symop_operation_xyz
  'x, y, z'

loop_
  _atom_site_type_symbol
  _atom_site_label
  _atom_site_symmetry_multiplicity
  _atom_site_fract_x
  _atom_site_fract_y
  _atom_site_fract_z
  _atom_site_occupancy
  F   F1        1.0  0.7517554759979248  0.1869358867406845  0.9512835144996643  1.0000
  F   F2        1.0  0.2718443274497986  0.21246328949928284  0.3740260899066925  1.0000
  F   F3        1.0  0.8554033637046814  0.39337825775146484  0.24548031389713287  1.0000
  F   F4        1.0  0.2726150453090668  0.7011024355888367  0.8247885704040527  1.0000
  N   N1        1.0  0.6468222737312317  0.5918431282043457  0.9278820157051086  1.0000
  O   O1        1.0  0.5661302804946899  0.12205368280410767  0.500901460647583  1.0000
  Ru  Ru1       1.0  0.3935902416706085  0.42731884121894836  0.2876893877983093  1.0000
  Ru  Ru2       1.0  0.6572621464729309  0.28380662202835083  0.8432269096374512  1.0000
  Ru  Ru3       1.0  0.6446264386177063  0.8171114921569824  0.448755294084549  1.0000
  Ru  Ru4       1.0  0.6434876322746277  0.6001163125038147  0.8850027322769165  1.0000
  Ru  Ru5       1.0  0.15201538801193237  0.9694507122039795  0.2171879708766938  1.0000
  Ru  Ru6       1.0  0.9238539338111877  0.9533653855323792  0.15444931387901306  1.0000
  Ru  Ru7       1.0  0.2059355229139328  0.9686771631240845  0.8200287222862244  1.0000
  Ru  Ru8       1.0  0.14896371960639954  0.6714851260185242  0.8280007243156433  1.0000
  Ru  Ru9       1.0  0.6532275080680847  0.16681843996047974  0.7631945013999939  1.0000
