data_image0
_chemical_formula_structural       Mn5NiSnZn3
_chemical_formula_sum              "Mn5 Ni1 Sn1 Zn3"
_cell_length_a       6.482211031348588
_cell_length_b       5.175033567482277
_cell_length_c       6.846088886260986
_cell_angle_alpha    115.9711049825507
_cell_angle_beta     109.10538757584543
_cell_angle_gamma    126.83405377167246

_space_group_name_H-M_alt    "P 1"
_space_group_IT_number       1

loop_
  _space_group_symop_operation_xyz
  'x, y, z'

loop_
  _atom_site_type_symbol
  _atom_site_label
  _atom_site_symmetry_multiplicity
  _atom_site_fract_x
  _atom_site_fract_y
  _atom_site_fract_z
  _atom_site_occupancy
  Mn  Mn1       1.0  0.09748432040214539  0.5760170817375183  0.6151622533798218  1.0000
  Mn  Mn2       1.0  0.45972493290901184  0.8747034668922424  0.20795878767967216  1.0000
  Mn  Mn3       1.0  0.1510258316993712  0.3568313419818876  0.9179181456565856  1.0000
  Mn  Mn4       1.0  0.053466930985450745  0.8748698830604553  0.19872482120990742  1.0000
  Mn  Mn5       1.0  0.738696277141571  0.6907432675361633  0.1705782711505889  1.0000
  Ni  Ni1       1.0  0.3411518931388855  0.01939455978572367  0.37787914276123047  1.0000
  Sn  Sn1       1.0  0.7967939376831054  0.40365916490554793  0.8642197847366332  1.0000
  Zn  Zn1       1.0  0.45648983120918274  0.34808820486068726  0.17960540950298307  1.0000
  Zn  Zn2       1.0  0.4563958942890166  0.4132236838340757  0.6121761202812194  1.0000
  Zn  Zn3       1.0  0.29089987277984597  0.04162808507680858  0.8162854313850402  1.0000
