data_image0
_chemical_formula_structural       Mn5NiPtZn3
_chemical_formula_sum              "Mn5 Ni1 Pt1 Zn3"
_cell_length_a       6.1328111910097105
_cell_length_b       6.10615878135012
_cell_length_c       6.569198131561279
_cell_angle_alpha    106.25189799059315
_cell_angle_beta     107.66165614781019
_cell_angle_gamma    116.30826962086297

_space_group_name_H-M_alt    "P 1"
_space_group_IT_number       1

loop_
  _space_group_symop_operation_xyz
  'x, y, z'

loop_
  _atom_site_type_symbol
  _atom_site_label
  _atom_site_symmetry_multiplicity
  _atom_site_fract_x
  _atom_site_fract_y
  _atom_site_fract_z
  _atom_site_occupancy
  Mn  Mn1       1.0  0.26923948526382446  0.40982845425605774  0.9172636270523072  1.0000
  Mn  Mn2       1.0  0.6407188773155212  0.5486465692520142  0.8736919164657593  1.0000
  Mn  Mn3       1.0  0.304260790348053  0.17955711483955383  0.11412081122398375  1.0000
  Mn  Mn4       1.0  0.9745993614196777  0.9158604741096497  0.6999987363815308  1.0000
  Mn  Mn5       1.0  0.6122280359268188  0.4033854305744171  0.43641939759254456  1.0000
  Ni  Ni1       1.0  0.8279156684875488  0.07958387583494186  0.2996772825717926  1.0000
  Pt  Pt1       1.0  0.9382590651512146  0.42399370670318604  0.6049029231071472  1.0000
  Zn  Zn1       1.0  0.9628263711929321  0.8810387253761292  0.15892736613750444  1.0000
  Zn  Zn2       1.0  0.9257218837738037  0.40991637110710144  0.943483054637909  1.0000
  Zn  Zn3       1.0  0.5522230863571167  0.09741019457578659  0.05090443044900894  1.0000
