data_image0
_chemical_formula_structural       Mn7Sn2Zn
_chemical_formula_sum              "Mn7 Sn2 Zn1"
_cell_length_a       5.438823090392353
_cell_length_b       5.39312120937459
_cell_length_c       8.091214179992676
_cell_angle_alpha    91.26390994058991
_cell_angle_beta     88.3984394033837
_cell_angle_gamma    115.7345118928173

_space_group_name_H-M_alt    "P 1"
_space_group_IT_number       1

loop_
  _space_group_symop_operation_xyz
  'x, y, z'

loop_
  _atom_site_type_symbol
  _atom_site_label
  _atom_site_symmetry_multiplicity
  _atom_site_fract_x
  _atom_site_fract_y
  _atom_site_fract_z
  _atom_site_occupancy
  Mn  Mn1       1.0  0.018374096602201462  0.6737675070762634  0.8390495777130127  1.0000
  Mn  Mn2       1.0  0.3856393098831177  0.6523644924163818  0.5840239524841309  1.0000
  Mn  Mn3       1.0  0.33011624217033386  0.6938113570213318  0.4816064238548279  1.0000
  Mn  Mn4       1.0  0.6609344482421875  0.398950457572937  0.19999265670776367  1.0000
  Mn  Mn5       1.0  0.3477068245410919  0.3592449426651001  0.38035035133361816  1.0000
  Mn  Mn6       1.0  0.017113178968429565  0.4118383228778839  0.20833633840084076  1.0000
  Mn  Mn7       1.0  0.6051623821258545  0.893322765827179  0.10590250045061111  1.0000
  Sn  Sn1       1.0  0.6086872816085815  0.40682685375213623  0.30955570936203003  1.0000
  Sn  Sn2       1.0  0.30231523513793945  0.39238131046295166  0.21991470456123352  1.0000
  Zn  Zn1       1.0  0.0001851701381383502  0.19543248414993286  0.9865432381629944  1.0000
