data_image0
_chemical_formula_structural       ClMn5NiZn3
_chemical_formula_sum              "Cl1 Mn5 Ni1 Zn3"
_cell_length_a       6.007558492946765
_cell_length_b       6.042391404650736
_cell_length_c       6.398383140563965
_cell_angle_alpha    106.67739744206392
_cell_angle_beta     105.90196072911252
_cell_angle_gamma    116.9394813888819

_space_group_name_H-M_alt    "P 1"
_space_group_IT_number       1

loop_
  _space_group_symop_operation_xyz
  'x, y, z'

loop_
  _atom_site_type_symbol
  _atom_site_label
  _atom_site_symmetry_multiplicity
  _atom_site_fract_x
  _atom_site_fract_y
  _atom_site_fract_z
  _atom_site_occupancy
  Cl  Cl1       1.0  0.47730207443237305  0.11856864392757416  0.6399538516998291  1.0000
  Mn  Mn1       1.0  0.04627184197306633  0.4514668583869934  0.2665891647338867  1.0000
  Mn  Mn2       1.0  0.3944181501865387  0.4291878342628479  0.25180333852767944  1.0000
  Mn  Mn3       1.0  0.049316637217998505  0.7945405840873718  0.5782675743103027  1.0000
  Mn  Mn4       1.0  0.3843919634819031  0.7004867792129517  0.021270338445901836  1.0000
  Mn  Mn5       1.0  0.4887068271636963  0.07216700166463852  0.7553474307060242  1.0000
  Ni  Ni1       1.0  0.44048431515693665  0.5904614925384521  0.37375250458717346  1.0000
  Zn  Zn1       1.0  0.9748772382736206  0.3776646554470062  0.8715752959251404  1.0000
  Zn  Zn2       1.0  0.747892439365387  0.3727864921092987  0.9179142117500305  1.0000
  Zn  Zn3       1.0  0.7459580898284912  0.8705723881721497  0.03482652083039284  1.0000
