data_image0
_chemical_formula_structural       GaMn7Sn2
_chemical_formula_sum              "Ga1 Mn7 Sn2"
_cell_length_a       5.345963425635665
_cell_length_b       6.038001407031084
_cell_length_c       6.703222751617432
_cell_angle_alpha    75.10940845026964
_cell_angle_beta     67.30285620365738
_cell_angle_gamma    62.461275806861785

_space_group_name_H-M_alt    "P 1"
_space_group_IT_number       1

loop_
  _space_group_symop_operation_xyz
  'x, y, z'

loop_
  _atom_site_type_symbol
  _atom_site_label
  _atom_site_symmetry_multiplicity
  _atom_site_fract_x
  _atom_site_fract_y
  _atom_site_fract_z
  _atom_site_occupancy
  Ga  Ga1       1.0  0.8149217963218689  0.28547203540802  0.8346017003059387  1.0000
  Mn  Mn1       1.0  0.6134724617004395  0.7455601096153259  0.14148890972137457  1.0000
  Mn  Mn2       1.0  0.06633934378623962  0.9599722623825073  0.16756823658943176  1.0000
  Mn  Mn3       1.0  0.1809907704591751  0.2920876741409302  0.47001200914382935  1.0000
  Mn  Mn4       1.0  0.5794668793678284  0.7551289796829224  0.9630285501480103  1.0000
  Mn  Mn5       1.0  0.1686621457338333  0.8173938989639282  0.1657465249300003  1.0000
  Mn  Mn6       1.0  0.5712869763374329  0.5060694217681885  0.35659515857696533  1.0000
  Mn  Mn7       1.0  0.8236290216445923  0.30321449041366577  0.6572529077529907  1.0000
  Sn  Sn1       1.0  0.383317768573761  0.8803253173828125  0.3872281014919281  1.0000
  Sn  Sn2       1.0  0.8504548668861389  0.02621462568640709  0.4696162939071655  1.0000
