data_image0
_chemical_formula_structural       ClMn6Zn3
_chemical_formula_sum              "Cl1 Mn6 Zn3"
_cell_length_a       5.764644574629596
_cell_length_b       6.274309929313179
_cell_length_c       6.388019561767578
_cell_angle_alpha    66.92762699676895
_cell_angle_beta     64.28583139723665
_cell_angle_gamma    62.75595256864278

_space_group_name_H-M_alt    "P 1"
_space_group_IT_number       1

loop_
  _space_group_symop_operation_xyz
  'x, y, z'

loop_
  _atom_site_type_symbol
  _atom_site_label
  _atom_site_symmetry_multiplicity
  _atom_site_fract_x
  _atom_site_fract_y
  _atom_site_fract_z
  _atom_site_occupancy
  Cl  Cl1       1.0  0.13769346475601196  0.34524667263031006  0.04859133437275887  1.0000
  Mn  Mn1       1.0  0.517692506313324  0.15458673238754272  0.10936488211154939  1.0000
  Mn  Mn2       1.0  0.5077104568481445  0.6338538527488708  0.610209047794342  1.0000
  Mn  Mn3       1.0  0.5053795576095581  0.6554796695709229  0.09202554076910019  1.0000
  Mn  Mn4       1.0  0.9980430603027344  0.6580162644386292  0.6141090989112854  1.0000
  Mn  Mn5       1.0  0.5037078857421875  0.15066735446453094  0.9850550293922425  1.0000
  Mn  Mn6       1.0  0.028475433588027954  0.1534055471420288  0.692162036895752  1.0000
  Zn  Zn1       1.0  0.5077115297317505  0.18861939013004303  0.42063906788825994  1.0000
  Zn  Zn2       1.0  0.012288798578083515  0.656022310256958  0.9026837348937989  1.0000
  Zn  Zn3       1.0  0.5295214056968689  0.8210978507995605  0.6133740544319153  1.0000
