data_image0
_chemical_formula_structural       ClNb3O7
_chemical_formula_sum              "Cl1 Nb3 O7"
_cell_length_a       5.93472328054215
_cell_length_b       5.807851451525554
_cell_length_c       5.8248186111450195
_cell_angle_alpha    61.00075093231042
_cell_angle_beta     60.2083989646418
_cell_angle_gamma    60.577572102184305

_space_group_name_H-M_alt    "P 1"
_space_group_IT_number       1

loop_
  _space_group_symop_operation_xyz
  'x, y, z'

loop_
  _atom_site_type_symbol
  _atom_site_label
  _atom_site_symmetry_multiplicity
  _atom_site_fract_x
  _atom_site_fract_y
  _atom_site_fract_z
  _atom_site_occupancy
  Cl  Cl1       1.0  0.03992004692554474  0.7036221027374268  0.7842785716056824  1.0000
  Nb  Nb1       1.0  0.9435477852821349  0.17367929220199585  0.09742467105388641  1.0000
  Nb  Nb2       1.0  0.43798378109931946  0.6607767939567566  0.2654416859149933  1.0000
  Nb  Nb3       1.0  0.43714848160743713  0.17318738996982574  0.06324883550405502  1.0000
  O   O1        1.0  0.9164240956306458  0.9776853322982788  0.9260929822921753  1.0000
  O   O2        1.0  0.24122822284698484  0.9482802748680115  0.5293889045715332  1.0000
  O   O3        1.0  0.7079333662986755  0.9537957906723022  0.79921555519104  1.0000
  O   O4        1.0  0.6525542736053467  0.3388996422290802  0.035936303436756134  1.0000
  O   O5        1.0  0.3998200595378876  0.4614107310771942  0.027942392975091934  1.0000
  O   O6        1.0  0.17420805990695953  0.3835686147212982  0.8397035002708435  1.0000
  O   O7        1.0  0.8061111569404602  0.6110917925834656  0.504887044429779  1.0000
