data_image0
_chemical_formula_structural       Nb2O7SiTi
_chemical_formula_sum              "Nb2 O7 Si1 Ti1"
_cell_length_a       5.51773250179021
_cell_length_b       6.2038593891338545
_cell_length_c       6.235301971435547
_cell_angle_alpha    69.94372066988844
_cell_angle_beta     66.1862427438394
_cell_angle_gamma    59.568312779715846

_space_group_name_H-M_alt    "P 1"
_space_group_IT_number       1

loop_
  _space_group_symop_operation_xyz
  'x, y, z'

loop_
  _atom_site_type_symbol
  _atom_site_label
  _atom_site_symmetry_multiplicity
  _atom_site_fract_x
  _atom_site_fract_y
  _atom_site_fract_z
  _atom_site_occupancy
  Nb  Nb1       1.0  0.2808508574962616  0.5536552667617798  0.30091750621795654  1.0000
  Nb  Nb2       1.0  0.28428423404693604  0.2886565327644348  0.8613217473030091  1.0000
  O   O1        1.0  0.12337500602006912  0.7686557173728943  0.5024731159210205  1.0000
  O   O2        1.0  0.9789955615997314  0.09465719759464264  0.634470522403717  1.0000
  O   O3        1.0  0.6908367872238159  0.0036863412242382765  0.3562445044517517  1.0000
  O   O4        1.0  0.4648292362689972  0.33364367485046387  0.6732853055000305  1.0000
  O   O5        1.0  0.4201353192329407  0.10946506261825562  0.23058205842971805  1.0000
  O   O6        1.0  0.9031339883804321  0.3584831953048706  0.9429352283477784  1.0000
  O   O7        1.0  0.6062319874763489  0.7139951586723328  0.46883088350296026  1.0000
  Si  Si1       1.0  0.8562571406364441  0.5593010187149048  0.05270007625222207  1.0000
  Ti  Ti1       1.0  0.7635151147842407  0.03536897897720337  0.6945946216583252  1.0000
