data_image0
_chemical_formula_structural       Nb3O7Pd
_chemical_formula_sum              "Nb3 O7 Pd1"
_cell_length_a       4.211828489001098
_cell_length_b       4.827450373161286
_cell_length_c       4.679474830627441
_cell_angle_alpha    53.81360861028926
_cell_angle_beta     9.946995160130387
_cell_angle_gamma    58.273921041141186

_space_group_name_H-M_alt    "P 1"
_space_group_IT_number       1

loop_
  _space_group_symop_operation_xyz
  'x, y, z'

loop_
  _atom_site_type_symbol
  _atom_site_label
  _atom_site_symmetry_multiplicity
  _atom_site_fract_x
  _atom_site_fract_y
  _atom_site_fract_z
  _atom_site_occupancy
  Nb  Nb1       1.0  0.45311236381530773  0.5388409495353699  0.6315284967422484  1.0000
  Nb  Nb2       1.0  0.9211315512657163  0.9130919575691223  0.9181889295578005  1.0000
  Nb  Nb3       1.0  0.7692024707794187  0.8731287717819214  0.14425826072692888  1.0000
  O   O1        1.0  0.8553933501243591  0.06265931576490402  0.959068775177002  1.0000
  O   O2        1.0  0.19646698236465435  0.8481956124305725  0.9788051843643191  1.0000
  O   O3        1.0  0.057523142546415114  0.3271838426589966  0.3683241009712221  1.0000
  O   O4        1.0  0.5257148742675781  0.3464125990867615  0.3001800477504731  1.0000
  O   O5        1.0  0.3166986107826232  0.6276840567588806  0.14355875551700603  1.0000
  O   O6        1.0  0.08381209522485733  0.3596715033054352  0.9073500633239746  1.0000
  O   O7        1.0  0.640174388885498  0.6330737471580505  0.8283205628395082  1.0000
  Pd  Pd1       1.0  0.4383205771446228  0.032961275428533554  0.15035222470760348  1.0000
