data_image0
_chemical_formula_structural       Nb3O8
_chemical_formula_sum              "Nb3 O8"
_cell_length_a       5.308802776967905
_cell_length_b       5.579243122729725
_cell_length_c       5.2719855308532715
_cell_angle_alpha    65.05425008644605
_cell_angle_beta     61.7288127936848
_cell_angle_gamma    56.90885530308891

_space_group_name_H-M_alt    "P 1"
_space_group_IT_number       1

loop_
  _space_group_symop_operation_xyz
  'x, y, z'

loop_
  _atom_site_type_symbol
  _atom_site_label
  _atom_site_symmetry_multiplicity
  _atom_site_fract_x
  _atom_site_fract_y
  _atom_site_fract_z
  _atom_site_occupancy
  Nb  Nb1       1.0  0.7954573631286621  0.4970511496067047  0.4605853259563446  1.0000
  Nb  Nb2       1.0  0.30112627148628235  0.9305849075317383  0.9518390893936157  1.0000
  Nb  Nb3       1.0  0.8373795747756958  0.18246300518512726  0.9607685804367065  1.0000
  O   O1        1.0  0.6061607599258423  0.8855941891670227  0.9154694080352783  1.0000
  O   O2        1.0  0.10020402818918228  0.8624011874198914  0.7385761141777039  1.0000
  O   O3        1.0  0.9264188408851624  0.1729193776845932  0.7112171053886414  1.0000
  O   O4        1.0  0.8673154711723328  0.6919929385185242  0.01746552251279354  1.0000
  O   O5        1.0  0.33109867572784424  0.6876135468482971  0.4632371664047241  1.0000
  O   O6        1.0  0.6377977728843689  0.38635435700416565  0.20985814929008476  1.0000
  O   O7        1.0  0.3171435296535492  0.9810755252838135  0.5210744142532349  1.0000
  O   O8        1.0  0.15202730894088745  0.5532722473144531  0.27411913871765137  1.0000
