data_image0
_chemical_formula_structural       Ag2Nb3O6
_chemical_formula_sum              "Ag2 Nb3 O6"
_cell_length_a       5.303615905436119
_cell_length_b       5.520768929364852
_cell_length_c       6.51011323928833
_cell_angle_alpha    65.80301899790278
_cell_angle_beta     63.81175085307317
_cell_angle_gamma    63.08859436778667

_space_group_name_H-M_alt    "P 1"
_space_group_IT_number       1

loop_
  _space_group_symop_operation_xyz
  'x, y, z'

loop_
  _atom_site_type_symbol
  _atom_site_label
  _atom_site_symmetry_multiplicity
  _atom_site_fract_x
  _atom_site_fract_y
  _atom_site_fract_z
  _atom_site_occupancy
  Ag  Ag1       1.0  0.2915269136428833  0.10742494463920593  0.8984823822975159  1.0000
  Ag  Ag2       1.0  0.28217026591300964  0.6000356078147888  0.8753927946090698  1.0000
  Nb  Nb1       1.0  0.5977882146835327  0.10161130130290985  0.5085257291793823  1.0000
  Nb  Nb2       1.0  0.06738275289535522  0.32002246379852295  0.22276370227336884  1.0000
  Nb  Nb3       1.0  0.5874177813529968  0.014489000663161278  0.24149003624916077  1.0000
  O   O1        1.0  0.4781961739063263  0.48528051376342773  0.31749916076660156  1.0000
  O   O2        1.0  0.7755131721496582  0.07065041363239288  0.7591555714607239  1.0000
  O   O3        1.0  0.6480177044868469  0.9602982401847839  0.5210034251213074  1.0000
  O   O4        1.0  0.3313156068325043  0.602655827999115  0.9739007949829102  1.0000
  O   O5        1.0  0.17497318983078003  0.9608398079872131  0.6878920793533325  1.0000
  O   O6        1.0  0.9862276911735535  0.33632364869117737  0.47703754901885986  1.0000
