data_image0
_chemical_formula_structural       Ag2Nb2O6Sb
_chemical_formula_sum              "Ag2 Nb2 O6 Sb1"
_cell_length_a       5.0212506379137425
_cell_length_b       5.400204653465724
_cell_length_c       8.07711124420166
_cell_angle_alpha    77.76814243592982
_cell_angle_beta     74.15832906689667
_cell_angle_gamma    62.881767348586834

_space_group_name_H-M_alt    "P 1"
_space_group_IT_number       1

loop_
  _space_group_symop_operation_xyz
  'x, y, z'

loop_
  _atom_site_type_symbol
  _atom_site_label
  _atom_site_symmetry_multiplicity
  _atom_site_fract_x
  _atom_site_fract_y
  _atom_site_fract_z
  _atom_site_occupancy
  Ag  Ag1       1.0  0.6392821073532104  0.2257881909608841  0.3464641273021698  1.0000
  Ag  Ag2       1.0  0.9883413910865784  0.35859277844429016  0.10852644592523575  1.0000
  Nb  Nb1       1.0  0.1452387273311615  0.9482646584510803  0.6936934590339661  1.0000
  Nb  Nb2       1.0  0.16464518010616302  0.4575681984424591  0.7111075520515442  1.0000
  O   O1        1.0  0.06103302538394928  0.19022046029567719  0.8931491374969482  1.0000
  O   O2        1.0  0.16704879701137543  0.16846111416816711  0.6990315914154053  1.0000
  O   O3        1.0  0.6474107503890991  0.37358662486076355  0.7015048265457153  1.0000
  O   O4        1.0  0.5822004079818726  0.8809984922409058  0.8527308702468872  1.0000
  O   O5        1.0  0.6374415755271912  0.9610101580619812  0.34211811423301697  1.0000
  O   O6        1.0  0.16696138679981232  0.8093271255493164  0.3473493158817291  1.0000
  Sb  Sb1       1.0  0.7826834321022034  0.6606305837631226  0.0830035284161568  1.0000
