data_image0
_chemical_formula_structural       Hf4Mo2W
_chemical_formula_sum              "Hf4 Mo2 W1"
_cell_length_a       4.813363092340096
_cell_length_b       5.451383517161639
_cell_length_c       5.7186055183410645
_cell_angle_alpha    119.01130203123287
_cell_angle_beta     96.32121219722603
_cell_angle_gamma    89.25260143320905

_space_group_name_H-M_alt    "P 1"
_space_group_IT_number       1

loop_
  _space_group_symop_operation_xyz
  'x, y, z'

loop_
  _atom_site_type_symbol
  _atom_site_label
  _atom_site_symmetry_multiplicity
  _atom_site_fract_x
  _atom_site_fract_y
  _atom_site_fract_z
  _atom_site_occupancy
  Hf  Hf1       1.0  0.6313422918319702  0.5057870745658875  0.9827648401260376  1.0000
  Hf  Hf2       1.0  0.1294345110654831  0.1549684852361679  0.598551332950592  1.0000
  Hf  Hf3       1.0  0.6288927793502808  0.4194892942905426  0.6039618253707886  1.0000
  Hf  Hf4       1.0  0.6113330125808716  0.06632579863071442  0.7566289305686951  1.0000
  Mo  Mo1       1.0  0.13365936279296875  0.647334635257721  0.8579484224319458  1.0000
  Mo  Mo2       1.0  0.6263958215713501  0.7043160796165466  0.2759759724140167  1.0000
  W   W1        1.0  0.38185712695121765  0.8427656292915344  0.3548114895820618  1.0000
