data_image0
_chemical_formula_structural       Hf3Mo4
_chemical_formula_sum              "Hf3 Mo4"
_cell_length_a       5.179996072009784
_cell_length_b       5.334129529250562
_cell_length_c       5.565456390380859
_cell_angle_alpha    115.49616142264877
_cell_angle_beta     88.82864061482269
_cell_angle_gamma    89.71767042149071

_space_group_name_H-M_alt    "P 1"
_space_group_IT_number       1

loop_
  _space_group_symop_operation_xyz
  'x, y, z'

loop_
  _atom_site_type_symbol
  _atom_site_label
  _atom_site_symmetry_multiplicity
  _atom_site_fract_x
  _atom_site_fract_y
  _atom_site_fract_z
  _atom_site_occupancy
  Hf  Hf1       1.0  0.6944348812103271  0.4660458564758301  0.9758937954902649  1.0000
  Hf  Hf2       1.0  0.203786239027977  0.4666194021701813  0.8500023484230042  1.0000
  Hf  Hf3       1.0  0.2143418937921524  0.9347483515739441  0.48405703902244573  1.0000
  Mo  Mo1       1.0  0.716529130935669  0.7985802888870239  0.33160296082496643  1.0000
  Mo  Mo2       1.0  0.7100594639778137  0.0040529086254537106  0.7151812314987182  1.0000
  Mo  Mo3       1.0  0.21894611418247223  0.7926198244094849  0.2828835248947144  1.0000
  Mo  Mo4       1.0  0.22504593431949615  0.17378497123718262  0.07062259316444398  1.0000
