data_image0
_chemical_formula_structural       HHf3Mo3
_chemical_formula_sum              "H1 Hf3 Mo3"
_cell_length_a       4.8945033286336885
_cell_length_b       5.202193314012403
_cell_length_c       5.061686038970947
_cell_angle_alpha    118.87897997416817
_cell_angle_beta     93.73111869127143
_cell_angle_gamma    89.00615406881228

_space_group_name_H-M_alt    "P 1"
_space_group_IT_number       1

loop_
  _space_group_symop_operation_xyz
  'x, y, z'

loop_
  _atom_site_type_symbol
  _atom_site_label
  _atom_site_symmetry_multiplicity
  _atom_site_fract_x
  _atom_site_fract_y
  _atom_site_fract_z
  _atom_site_occupancy
  H   H1        1.0  0.2892695665359497  0.6833901405334473  0.858917534351349  1.0000
  Hf  Hf1       1.0  0.7858042120933533  0.6711985468864441  0.7060654759407043  1.0000
  Hf  Hf2       1.0  0.2906149625778198  0.702403724193573  0.42371523380279547  1.0000
  Hf  Hf3       1.0  0.28877100348472595  0.16670511662960052  0.2586779296398163  1.0000
  Mo  Mo1       1.0  0.7834781408309937  0.6709514856338501  0.7202089428901672  1.0000
  Mo  Mo2       1.0  0.2959575951099396  0.9304018020629883  0.6863536238670349  1.0000
  Mo  Mo3       1.0  0.9892942905426025  0.41758081316947937  0.04746526107192035  1.0000
