data_image0
_chemical_formula_structural       Hf3Mo4
_chemical_formula_sum              "Hf3 Mo4"
_cell_length_a       6.359706214890566
_cell_length_b       6.208133140946836
_cell_length_c       5.642523765563965
_cell_angle_alpha    120.31646824786915
_cell_angle_beta     87.70396005311197
_cell_angle_gamma    89.98412044956802

_space_group_name_H-M_alt    "P 1"
_space_group_IT_number       1

loop_
  _space_group_symop_operation_xyz
  'x, y, z'

loop_
  _atom_site_type_symbol
  _atom_site_label
  _atom_site_symmetry_multiplicity
  _atom_site_fract_x
  _atom_site_fract_y
  _atom_site_fract_z
  _atom_site_occupancy
  Hf  Hf1       1.0  0.07815185934305191  0.24240270256996152  0.5212110877037048  1.0000
  Hf  Hf2       1.0  0.5797697901725769  0.9160349369049071  0.41076269745826716  1.0000
  Hf  Hf3       1.0  0.578413724899292  0.7314388751983643  0.42317122220993036  1.0000
  Mo  Mo1       1.0  0.07876164466142654  0.3813953697681427  0.14565704762935638  1.0000
  Mo  Mo2       1.0  0.07630976289510727  0.36201047897338867  0.7385088205337524  1.0000
  Mo  Mo3       1.0  0.5765698552131653  0.894584834575653  0.0697029381990432  1.0000
  Mo  Mo4       1.0  0.8610687255859376  0.5486174821853638  0.04630507528781883  1.0000
