data_image0
_chemical_formula_structural       P2RhSV2
_chemical_formula_sum              "P2 Rh1 S1 V2"
_cell_length_a       3.547256213472806
_cell_length_b       4.077957015819006
_cell_length_c       7.193154811859131
_cell_angle_alpha    91.31708587854388
_cell_angle_beta     92.5629595825593
_cell_angle_gamma    91.94235973534524

_space_group_name_H-M_alt    "P 1"
_space_group_IT_number       1

loop_
  _space_group_symop_operation_xyz
  'x, y, z'

loop_
  _atom_site_type_symbol
  _atom_site_label
  _atom_site_symmetry_multiplicity
  _atom_site_fract_x
  _atom_site_fract_y
  _atom_site_fract_z
  _atom_site_occupancy
  P   P1        1.0  0.16942651569843292  0.11530321091413498  0.8042168617248536  1.0000
  P   P2        1.0  0.09499388188123702  0.41233211755752563  0.9737863540649415  1.0000
  Rh  Rh1       1.0  0.1447868049144745  0.9771828055381775  0.7802546620368959  1.0000
  S   S1        1.0  0.1417916864156723  0.4832933247089386  0.8187727928161622  1.0000
  V   V1        1.0  0.6478684544563293  0.5987193584442139  0.006584435235708953  1.0000
  V   V2        1.0  0.6455603837966919  0.05829562991857529  0.000742316246032715  1.0000
