data_image0
_chemical_formula_structural       HPRhV3
_chemical_formula_sum              "H1 P1 Rh1 V3"
_cell_length_a       3.919198199716571
_cell_length_b       3.7263630607812277
_cell_length_c       6.174626350402832
_cell_angle_alpha    103.76696003707829
_cell_angle_beta     105.28121331183044
_cell_angle_gamma    88.68789944911249

_space_group_name_H-M_alt    "P 1"
_space_group_IT_number       1

loop_
  _space_group_symop_operation_xyz
  'x, y, z'

loop_
  _atom_site_type_symbol
  _atom_site_label
  _atom_site_symmetry_multiplicity
  _atom_site_fract_x
  _atom_site_fract_y
  _atom_site_fract_z
  _atom_site_occupancy
  H   H1        1.0  0.8881842494010924  0.7445397973060609  0.07002799212932587  1.0000
  P   P1        1.0  0.6532558202743529  0.23356792330741885  0.5692382454872131  1.0000
  Rh  Rh1       1.0  0.16174341738224027  0.9511324167251588  0.7979395389556885  1.0000
  V   V1        1.0  0.5565103888511658  0.6178904175758363  0.9102911353111267  1.0000
  V   V2        1.0  0.05109619721770286  0.6366774439811708  0.7487846612930298  1.0000
  V   V3        1.0  0.29328790307044983  0.1810666769742966  0.4070899486541748  1.0000
