data_image0
_chemical_formula_structural       LaP2RhV2
_chemical_formula_sum              "La1 P2 Rh1 V2"
_cell_length_a       3.7258098820538663
_cell_length_b       4.023903550328294
_cell_length_c       6.407739162445068
_cell_angle_alpha    106.21797772373243
_cell_angle_beta     98.52363681728784
_cell_angle_gamma    90.67004869425479

_space_group_name_H-M_alt    "P 1"
_space_group_IT_number       1

loop_
  _space_group_symop_operation_xyz
  'x, y, z'

loop_
  _atom_site_type_symbol
  _atom_site_label
  _atom_site_symmetry_multiplicity
  _atom_site_fract_x
  _atom_site_fract_y
  _atom_site_fract_z
  _atom_site_occupancy
  La  La1       1.0  0.869993031024933  0.8227868676185608  0.8209241628646851  1.0000
  P   P1        1.0  0.1965366750955582  0.4934081435203552  0.19797825813293457  1.0000
  P   P2        1.0  0.32741785049438477  0.2891390919685364  0.9639059305191039  1.0000
  Rh  Rh1       1.0  0.6484388709068298  0.7215902805328369  0.3323002755641937  1.0000
  V   V1        1.0  0.36236244440078735  0.8601251244544983  0.07652140408754352  1.0000
  V   V2        1.0  0.8137994408607484  0.2964296042919159  0.5824835896492004  1.0000
