data_image0
_chemical_formula_structural       AgBaFRh2Se
_chemical_formula_sum              "Ag1 Ba1 F1 Rh2 Se1"
_cell_length_a       3.3618886309003564
_cell_length_b       3.584329168892335
_cell_length_c       5.385412216186523
_cell_angle_alpha    105.3217554084828
_cell_angle_beta     107.26510631281259
_cell_angle_gamma    90.73625027598031

_space_group_name_H-M_alt    "P 1"
_space_group_IT_number       1

loop_
  _space_group_symop_operation_xyz
  'x, y, z'

loop_
  _atom_site_type_symbol
  _atom_site_label
  _atom_site_symmetry_multiplicity
  _atom_site_fract_x
  _atom_site_fract_y
  _atom_site_fract_z
  _atom_site_occupancy
  Ag  Ag1       1.0  0.8668702840805054  0.1294073611497879  0.7136585116386414  1.0000
  Ba  Ba1       1.0  0.3110780715942383  0.1440313458442688  0.0053362371399998665  1.0000
  F   F1        1.0  0.2027762085199356  0.9786069989204407  0.3445523977279663  1.0000
  Rh  Rh1       1.0  0.16401393711566925  0.0655319020152092  0.48337817192077637  1.0000
  Rh  Rh2       1.0  0.9041510224342346  0.6142752170562744  0.7548162341117859  1.0000
  Se  Se1       1.0  0.5423383712768555  0.6082913279533386  0.045808978378772736  1.0000
