data_image0
_chemical_formula_structural       Ca5Si6
_chemical_formula_sum              "Ca5 Si6"
_cell_length_a       5.495574349622488
_cell_length_b       7.894594382753158
_cell_length_c       8.446061134338379
_cell_angle_alpha    120.39978056488161
_cell_angle_beta     88.45188899171869
_cell_angle_gamma    89.61788838162259

_space_group_name_H-M_alt    "P 1"
_space_group_IT_number       1

loop_
  _space_group_symop_operation_xyz
  'x, y, z'

loop_
  _atom_site_type_symbol
  _atom_site_label
  _atom_site_symmetry_multiplicity
  _atom_site_fract_x
  _atom_site_fract_y
  _atom_site_fract_z
  _atom_site_occupancy
  Ca  Ca1       1.0  0.9144768118858337  0.31932660937309265  0.5827111005783081  1.0000
  Ca  Ca2       1.0  0.4369193911552429  0.3895421326160431  0.5200867652893066  1.0000
  Ca  Ca3       1.0  0.9194987416267395  0.7357257008552551  0.042269825935363825  1.0000
  Ca  Ca4       1.0  0.41704970598220825  0.7313359379768372  0.264156699180603  1.0000
  Ca  Ca5       1.0  0.417944073677063  0.15396179258823395  0.7177757024765015  1.0000
  Si  Si1       1.0  0.9040355086326599  0.050254154950380325  0.589080274105072  1.0000
  Si  Si2       1.0  0.13294291496276855  0.21152503788471222  0.8731526732444763  1.0000
  Si  Si3       1.0  0.40638816356658936  0.04282510653138161  0.42372533679008484  1.0000
  Si  Si4       1.0  0.9019145369529724  0.9786764979362488  0.9785679578781128  1.0000
  Si  Si5       1.0  0.42553478479385376  0.06252742558717728  0.6994026303291321  1.0000
  Si  Si6       1.0  0.925199031829834  0.6173264980316162  0.5430426597595215  1.0000
