data_image0
_chemical_formula_structural       Ca3Si8
_chemical_formula_sum              "Ca3 Si8"
_cell_length_a       5.254219224987255
_cell_length_b       5.618214684206778
_cell_length_c       8.860085487365723
_cell_angle_alpha    83.20938223033676
_cell_angle_beta     75.93810261195446
_cell_angle_gamma    59.891173375704504

_space_group_name_H-M_alt    "P 1"
_space_group_IT_number       1

loop_
  _space_group_symop_operation_xyz
  'x, y, z'

loop_
  _atom_site_type_symbol
  _atom_site_label
  _atom_site_symmetry_multiplicity
  _atom_site_fract_x
  _atom_site_fract_y
  _atom_site_fract_z
  _atom_site_occupancy
  Ca  Ca1       1.0  0.2859010398387909  0.2419942021369934  0.6377466320991516  1.0000
  Ca  Ca2       1.0  0.28435802459716797  0.7361631393432617  0.011396405287086964  1.0000
  Ca  Ca3       1.0  0.2408466637134552  0.6117175817489624  0.8775283694267273  1.0000
  Si  Si1       1.0  0.31029075384140015  0.262042373418808  0.19871750473976135  1.0000
  Si  Si2       1.0  0.08959591388702393  0.46928003430366516  0.5975534319877625  1.0000
  Si  Si3       1.0  0.6258327960968018  0.21592290699481964  0.9369476437568667  1.0000
  Si  Si4       1.0  0.6238880753517151  0.6182394027709961  0.3887713849544525  1.0000
  Si  Si5       1.0  0.3015803396701813  0.7475982904434204  0.13248078525066376  1.0000
  Si  Si6       1.0  0.615517795085907  0.12019522488117218  0.4750290811061859  1.0000
  Si  Si7       1.0  0.9618306159973145  0.2639486491680145  0.8489938378334045  1.0000
  Si  Si8       1.0  0.7709627151489258  0.7693719863891602  0.1912030279636383  1.0000
