data_image0
_chemical_formula_structural       Ca6Cu3Si2
_chemical_formula_sum              "Ca6 Cu3 Si2"
_cell_length_a       5.9060044081455105
_cell_length_b       6.735612726592576
_cell_length_c       6.367751598358154
_cell_angle_alpha    64.69982644698358
_cell_angle_beta     59.44396589255454
_cell_angle_gamma    59.42089587645923

_space_group_name_H-M_alt    "P 1"
_space_group_IT_number       1

loop_
  _space_group_symop_operation_xyz
  'x, y, z'

loop_
  _atom_site_type_symbol
  _atom_site_label
  _atom_site_symmetry_multiplicity
  _atom_site_fract_x
  _atom_site_fract_y
  _atom_site_fract_z
  _atom_site_occupancy
  Ca  Ca1       1.0  0.5452589392662048  0.8665768504142761  0.2655714452266693  1.0000
  Ca  Ca2       1.0  0.3257597088813782  0.43939104676246643  0.992148220539093  1.0000
  Ca  Ca3       1.0  0.284866601228714  0.5696265697479248  0.8130456805229187  1.0000
  Ca  Ca4       1.0  0.6736641526222229  0.673581063747406  0.6298415660858154  1.0000
  Ca  Ca5       1.0  0.901448667049408  0.9098014235496521  0.3174048662185669  1.0000
  Ca  Ca6       1.0  0.9307917952537537  0.5827053785324097  0.4625975489616394  1.0000
  Cu  Cu1       1.0  0.8353040218353271  0.40721753239631653  0.06024964898824692  1.0000
  Cu  Cu2       1.0  0.6396638751029968  0.6637685298919678  0.7992066740989685  1.0000
  Cu  Cu3       1.0  0.3238960802555084  0.9091527462005615  0.31832098960876465  1.0000
  Si  Si1       1.0  0.17303769290447235  0.16944746673107147  0.08312763273715973  1.0000
  Si  Si2       1.0  0.6574909090995789  0.18500971794128418  0.12011561542749405  1.0000
