data_image0
_chemical_formula_structural       Ca6Cu2La2Si
_chemical_formula_sum              "Ca6 Cu2 La2 Si1"
_cell_length_a       6.0761858214694096
_cell_length_b       6.953765139150288
_cell_length_c       7.582722187042236
_cell_angle_alpha    77.09805044241239
_cell_angle_beta     69.67049076906169
_cell_angle_gamma    64.52896917744687

_space_group_name_H-M_alt    "P 1"
_space_group_IT_number       1

loop_
  _space_group_symop_operation_xyz
  'x, y, z'

loop_
  _atom_site_type_symbol
  _atom_site_label
  _atom_site_symmetry_multiplicity
  _atom_site_fract_x
  _atom_site_fract_y
  _atom_site_fract_z
  _atom_site_occupancy
  Ca  Ca1       1.0  0.6680490374565125  0.351618230342865  0.44489946961402893  1.0000
  Ca  Ca2       1.0  0.37847593426704407  0.039559148252010345  0.18497513234615326  1.0000
  Ca  Ca3       1.0  0.9115800857543945  0.1340881586074829  0.015148864127695501  1.0000
  Ca  Ca4       1.0  0.8907380700111389  0.35955557227134705  0.947977602481842  1.0000
  Ca  Ca5       1.0  0.3823191225528717  0.1063486710190773  0.9389684796333313  1.0000
  Ca  Ca6       1.0  0.6530106663703918  0.6732375621795654  0.18791227042675013  1.0000
  Cu  Cu1       1.0  0.2441590130329132  0.4764541685581207  0.8996297717094421  1.0000
  Cu  Cu2       1.0  0.6733232736587524  0.8609409928321838  0.4370311200618744  1.0000
  La  La1       1.0  0.16954642534255981  0.7016424536705017  0.6944477558135986  1.0000
  La  La2       1.0  0.18249259889125824  0.18349510431289673  0.5201897621154785  1.0000
  Si  Si1       1.0  0.9311293959617615  0.15748915076255798  0.15072470903396606  1.0000
