data_image0
_chemical_formula_structural       Ca4CuDyLaSi4
_chemical_formula_sum              "Ca4 Cu1 Dy1 La1 Si4"
_cell_length_a       4.983010056556116
_cell_length_b       7.41666272885372
_cell_length_c       8.42391300201416
_cell_angle_alpha    119.0370708417388
_cell_angle_beta     89.22518710277308
_cell_angle_gamma    90.4358813772025

_space_group_name_H-M_alt    "P 1"
_space_group_IT_number       1

loop_
  _space_group_symop_operation_xyz
  'x, y, z'

loop_
  _atom_site_type_symbol
  _atom_site_label
  _atom_site_symmetry_multiplicity
  _atom_site_fract_x
  _atom_site_fract_y
  _atom_site_fract_z
  _atom_site_occupancy
  Ca  Ca1       1.0  0.009160741232335567  0.8185836672782898  0.994030773639679  1.0000
  Ca  Ca2       1.0  0.0011728719109669328  0.49261248111724854  0.21181742846965793  1.0000
  Ca  Ca3       1.0  0.4954668879508972  0.6311778426170349  0.37861210107803345  1.0000
  Ca  Ca4       1.0  0.9989662766456604  0.2884308099746704  0.11551479250192645  1.0000
  Cu  Cu1       1.0  0.9997477531433105  0.2882322669029236  0.6231874823570251  1.0000
  Dy  Dy1       1.0  0.497030109167099  0.13638348877429962  0.9218143224716187  1.0000
  La  La1       1.0  0.4953870177268982  0.30224326252937317  0.4184454083442688  1.0000
  Si  Si1       1.0  0.5031498670578003  0.501094400882721  0.10526616126298907  1.0000
  Si  Si2       1.0  0.9900428652763367  0.8470143675804138  0.9139592051506042  1.0000
  Si  Si3       1.0  0.7412272095680237  0.9833502769470215  0.8039214611053467  1.0000
  Si  Si4       1.0  0.5050135254859924  0.4853073060512543  0.618841290473938  1.0000
