data_image0
_chemical_formula_structural       Ca4LaSi6
_chemical_formula_sum              "Ca4 La1 Si6"
_cell_length_a       5.272950307670347
_cell_length_b       5.6768585257328565
_cell_length_c       11.154668807983398
_cell_angle_alpha    86.28225254397134
_cell_angle_beta     85.36758198153403
_cell_angle_gamma    57.13108091753752

_space_group_name_H-M_alt    "P 1"
_space_group_IT_number       1

loop_
  _space_group_symop_operation_xyz
  'x, y, z'

loop_
  _atom_site_type_symbol
  _atom_site_label
  _atom_site_symmetry_multiplicity
  _atom_site_fract_x
  _atom_site_fract_y
  _atom_site_fract_z
  _atom_site_occupancy
  Ca  Ca1       1.0  0.2959738075733185  0.9341418743133545  0.6827984452247621  1.0000
  Ca  Ca2       1.0  0.4951225519180298  0.3562036454677582  0.7985267043113708  1.0000
  Ca  Ca3       1.0  0.9920226335525513  0.8514940142631531  0.5053890347480774  1.0000
  Ca  Ca4       1.0  0.7745462656021118  0.8894070982933044  0.24987949430942535  1.0000
  La  La1       1.0  0.10804742574691772  0.0835774838924408  0.5522336363792419  1.0000
  Si  Si1       1.0  0.8002092838287354  0.5748433470726013  0.6566660404205322  1.0000
  Si  Si2       1.0  0.47170305252075195  0.8585332632064819  0.278868168592453  1.0000
  Si  Si3       1.0  0.9719436168670654  0.1798449158668518  0.3382962644100189  1.0000
  Si  Si4       1.0  0.49653950333595276  0.6323763132095337  0.7438648343086243  1.0000
  Si  Si5       1.0  0.5083810687065125  0.6521905064582825  0.8721272349357605  1.0000
  Si  Si6       1.0  0.32055363059043884  0.916799783706665  0.04373166337609291  1.0000
