data_image0
_chemical_formula_structural       Co2CrGaIPPbPtSbZr3
_chemical_formula_sum              "Co2 Cr1 Ga1 I1 P1 Pb1 Pt1 Sb1 Zr3"
_cell_length_a       6.871013530925268
_cell_length_b       6.949019248167125
_cell_length_c       7.226347923278809
_cell_angle_alpha    71.82954949324274
_cell_angle_beta     66.35799818007679
_cell_angle_gamma    63.29468893821956

_space_group_name_H-M_alt    "P 1"
_space_group_IT_number       1

loop_
  _space_group_symop_operation_xyz
  'x, y, z'

loop_
  _atom_site_type_symbol
  _atom_site_label
  _atom_site_symmetry_multiplicity
  _atom_site_fract_x
  _atom_site_fract_y
  _atom_site_fract_z
  _atom_site_occupancy
  Co  Co1       1.0  0.9334906339645386  0.1575372815132141  0.33482369780540466  1.0000
  Co  Co2       1.0  0.611631453037262  0.22908011078834534  0.1416667252779007  1.0000
  Cr  Cr1       1.0  0.9831388592720032  0.8529332876205444  0.5949756503105164  1.0000
  Ga  Ga1       1.0  0.32859140634536743  0.2653469443321228  0.7199393510818481  1.0000
  I   I1        1.0  0.9666072726249695  0.7474664449691772  0.425167977809906  1.0000
  P   P1        1.0  0.9652664065361023  0.19986607134342194  0.18558797240257263  1.0000
  Pb  Pb1       1.0  0.12140731513500214  0.6180805563926697  0.9673690199851991  1.0000
  Pt  Pt1       1.0  0.28492823243141174  0.45691561698913574  0.13897010684013367  1.0000
  Sb  Sb1       1.0  0.47280973196029663  0.741693913936615  0.2874644100666046  1.0000
  Zr  Zr1       1.0  0.8405426144599915  0.23422463238239288  0.559454083442688  1.0000
  Zr  Zr2       1.0  0.482984334230423  0.8192263841629028  0.06880214065313339  1.0000
  Zr  Zr3       1.0  0.22268110513687134  0.6757748126983643  0.14138861000537872  1.0000
