data_image0
_chemical_formula_structural       Co3HfInPbPt2Zr4
_chemical_formula_sum              "Co3 Hf1 In1 Pb1 Pt2 Zr4"
_cell_length_a       5.496192071260343
_cell_length_b       6.593875654219343
_cell_length_c       6.837484836578369
_cell_angle_alpha    114.97365501024136
_cell_angle_beta     90.13330048420916
_cell_angle_gamma    90.13357920762235

_space_group_name_H-M_alt    "P 1"
_space_group_IT_number       1

loop_
  _space_group_symop_operation_xyz
  'x, y, z'

loop_
  _atom_site_type_symbol
  _atom_site_label
  _atom_site_symmetry_multiplicity
  _atom_site_fract_x
  _atom_site_fract_y
  _atom_site_fract_z
  _atom_site_occupancy
  Co  Co1       1.0  0.17791540920734406  0.7706201076507568  0.449688196182251  1.0000
  Co  Co2       1.0  0.6749667525291443  0.5979203581809998  0.2773096859455109  1.0000
  Co  Co3       1.0  0.6718858480453491  0.6324067711830139  0.9527004361152649  1.0000
  Hf  Hf1       1.0  0.674636721611023  0.7151830792427063  0.4608782231807709  1.0000
  In  In1       1.0  0.676345944404602  0.723697304725647  0.1805847287178039  1.0000
  Pb  Pb1       1.0  0.6780034303665161  0.8473596572875977  0.300068587064743  1.0000
  Pt  Pt1       1.0  0.18009909987449646  0.7659748196601868  0.1765429675579071  1.0000
  Pt  Pt2       1.0  0.17762114107608795  0.9833021759986877  0.36338406801223755  1.0000
  Zr  Zr1       1.0  0.6811668276786804  0.8202375769615173  0.5364236831665039  1.0000
  Zr  Zr2       1.0  0.17820844054222107  0.9557412266731262  0.8270518779754639  1.0000
  Zr  Zr3       1.0  0.17688512802124023  0.04661265015602112  0.47865957021713257  1.0000
  Zr  Zr4       1.0  0.18051543831825256  0.7496744394302368  0.5244306921958923  1.0000
