data_image0
_chemical_formula_structural       CoHf3LiMoPbPt2Zr3
_chemical_formula_sum              "Co1 Hf3 Li1 Mo1 Pb1 Pt2 Zr3"
_cell_length_a       5.113271836504732
_cell_length_b       5.566772394805448
_cell_length_c       8.020766258239746
_cell_angle_alpha    89.89118493306812
_cell_angle_beta     90.84756700902555
_cell_angle_gamma    89.96973235170177

_space_group_name_H-M_alt    "P 1"
_space_group_IT_number       1

loop_
  _space_group_symop_operation_xyz
  'x, y, z'

loop_
  _atom_site_type_symbol
  _atom_site_label
  _atom_site_symmetry_multiplicity
  _atom_site_fract_x
  _atom_site_fract_y
  _atom_site_fract_z
  _atom_site_occupancy
  Co  Co1       1.0  0.6224991679191589  0.25053849816322327  0.5109344720840454  1.0000
  Hf  Hf1       1.0  0.7287952303886414  0.7299013733863831  0.18817779421806335  1.0000
  Hf  Hf2       1.0  0.624660074710846  0.3560572862625122  0.031110545620322227  1.0000
  Hf  Hf3       1.0  0.27103903889656067  0.9309003353118895  0.011542008258402348  1.0000
  Li  Li1       1.0  0.6326290965080261  0.8038830161094664  0.3420563936233521  1.0000
  Mo  Mo1       1.0  0.008319047279655933  0.7124382853507996  0.762902021408081  1.0000
  Pb  Pb1       1.0  0.13769571483135223  0.6505201458930969  0.8747729063034058  1.0000
  Pt  Pt1       1.0  0.2523244321346283  0.09467071294784546  0.7166338562965393  1.0000
  Pt  Pt2       1.0  0.6404873132705688  0.4317254424095153  0.8296949863433838  1.0000
  Zr  Zr1       1.0  0.2726461589336395  0.4774333238601684  0.8467877507209778  1.0000
  Zr  Zr2       1.0  0.7690263986587524  0.5912728309631348  0.5831283926963806  1.0000
  Zr  Zr3       1.0  0.7402240633964539  0.45306536555290217  0.25169506669044495  1.0000
