data_image0
_chemical_formula_structural       Co2CrHf2MoPtZr5
_chemical_formula_sum              "Co2 Cr1 Hf2 Mo1 Pt1 Zr5"
_cell_length_a       5.031696660806783
_cell_length_b       5.126534443284936
_cell_length_c       6.6923909187316895
_cell_angle_alpha    106.02415229214893
_cell_angle_beta     91.50305204569014
_cell_angle_gamma    90.79740373861131

_space_group_name_H-M_alt    "P 1"
_space_group_IT_number       1

loop_
  _space_group_symop_operation_xyz
  'x, y, z'

loop_
  _atom_site_type_symbol
  _atom_site_label
  _atom_site_symmetry_multiplicity
  _atom_site_fract_x
  _atom_site_fract_y
  _atom_site_fract_z
  _atom_site_occupancy
  Co  Co1       1.0  0.8057905435562134  0.3879948854446411  0.1463281810283661  1.0000
  Co  Co2       1.0  0.8055239319801331  0.25788813829421997  0.1354551762342453  1.0000
  Cr  Cr1       1.0  0.3023129403591156  0.922774076461792  0.7066941857337952  1.0000
  Hf  Hf1       1.0  0.819247841835022  0.0730520710349083  0.36897802352905273  1.0000
  Hf  Hf2       1.0  0.3213120996952057  0.9595991373062134  0.06520269811153409  1.0000
  Mo  Mo1       1.0  0.30560970306396484  0.8528292775154114  0.8669143319129944  1.0000
  Pt  Pt1       1.0  0.585155189037323  0.9618293642997742  0.09658885002136224  1.0000
  Zr  Zr1       1.0  0.13042980432510376  0.6359148025512695  0.45700690150260925  1.0000
  Zr  Zr2       1.0  0.6071651577949524  0.13845281302928925  0.0457095205783844  1.0000
  Zr  Zr3       1.0  0.11841132491827011  0.1273099035024643  0.4173697829246521  1.0000
  Zr  Zr4       1.0  0.7986031174659729  0.6846550107002258  0.8220611214637756  1.0000
  Zr  Zr5       1.0  0.3392932713031769  0.8282505869865417  0.42999181151390076  1.0000
