data_image0
_chemical_formula_structural       Co4FHHfZr5
_chemical_formula_sum              "Co4 F1 H1 Hf1 Zr5"
_cell_length_a       3.7352320178895257
_cell_length_b       5.384519452911678
_cell_length_c       6.0803961753845215
_cell_angle_alpha    114.47024897070442
_cell_angle_beta     92.53896579284587
_cell_angle_gamma    86.14668837101712

_space_group_name_H-M_alt    "P 1"
_space_group_IT_number       1

loop_
  _space_group_symop_operation_xyz
  'x, y, z'

loop_
  _atom_site_type_symbol
  _atom_site_label
  _atom_site_symmetry_multiplicity
  _atom_site_fract_x
  _atom_site_fract_y
  _atom_site_fract_z
  _atom_site_occupancy
  Co  Co1       1.0  0.3539294898509979  0.9313028454780579  0.16780631244182578  1.0000
  Co  Co2       1.0  0.8471015095710754  0.0882997065782547  0.5429372787475586  1.0000
  Co  Co3       1.0  0.853987455368042  0.31800562143325806  0.6791656017303467  1.0000
  Co  Co4       1.0  0.35336244106292725  0.4088902175426483  0.3666265308856964  1.0000
  F   F1        1.0  0.3582804203033447  0.13877135515213013  0.7386957406997681  1.0000
  H   H1        1.0  0.8695509433746338  0.266192764043808  0.11703890562057495  1.0000
  Hf  Hf1       1.0  0.8431392312049866  0.9831058979034424  0.9505924582481384  1.0000
  Zr  Zr1       1.0  0.3598511815071106  0.49546271562576294  0.26774242520332336  1.0000
  Zr  Zr2       1.0  0.36255696415901184  0.6290953159332275  0.021079376339912376  1.0000
  Zr  Zr3       1.0  0.36244550347328186  0.4489806592464447  0.2696549594402313  1.0000
  Zr  Zr4       1.0  0.8578620553016663  0.2939684987068176  0.7007456421852112  1.0000
  Zr  Zr5       1.0  0.35698819160461426  0.4550882875919342  0.5261363387107849  1.0000
