data_image0
_chemical_formula_structural       Co3CrF2HfIPtZr3
_chemical_formula_sum              "Co3 Cr1 F2 Hf1 I1 Pt1 Zr3"
_cell_length_a       5.4044384917381905
_cell_length_b       5.364789687808926
_cell_length_c       8.632010459899902
_cell_angle_alpha    102.4481798798364
_cell_angle_beta     89.09815031181425
_cell_angle_gamma    90.14707470203297

_space_group_name_H-M_alt    "P 1"
_space_group_IT_number       1

loop_
  _space_group_symop_operation_xyz
  'x, y, z'

loop_
  _atom_site_type_symbol
  _atom_site_label
  _atom_site_symmetry_multiplicity
  _atom_site_fract_x
  _atom_site_fract_y
  _atom_site_fract_z
  _atom_site_occupancy
  Co  Co1       1.0  0.755365252494812  0.08275644481182098  0.9800980091094971  1.0000
  Co  Co2       1.0  0.25280043482780457  0.7947999238967896  0.8391276597976685  1.0000
  Co  Co3       1.0  0.2522943913936615  0.9160097241401671  0.6622619032859801  1.0000
  Cr  Cr1       1.0  0.7558362483978271  0.7162784337997437  0.6526306867599487  1.0000
  F   F1        1.0  0.7614007592201233  0.1614566445350647  0.8063098788261414  1.0000
  F   F2        1.0  0.7513828277587891  0.40416815876960754  0.5542855858802795  1.0000
  Hf  Hf1       1.0  0.7495680451393127  0.4565852284431457  0.6350622177124023  1.0000
  I   I1        1.0  0.256910502910614  0.4861979484558105  0.9591926336288452  1.0000
  Pt  Pt1       1.0  0.2547138035297394  0.38732755184173584  0.9607993364334106  1.0000
  Zr  Zr1       1.0  0.25941190123558044  0.6744635701179504  0.17157168686389923  1.0000
  Zr  Zr2       1.0  0.2582958936691284  0.026919825002551075  0.6806024312973022  1.0000
  Zr  Zr3       1.0  0.2607915997505188  0.17744150757789612  0.9410431981086731  1.0000
