data_image0
_chemical_formula_structural       F2GdKLuMn3Zn
_chemical_formula_sum              "F2 Gd1 K1 Lu1 Mn3 Zn1"
_cell_length_a       5.157234945301196
_cell_length_b       6.3144385316523834
_cell_length_c       7.143242359161377
_cell_angle_alpha    101.5851013328812
_cell_angle_beta     93.02773889724172
_cell_angle_gamma    115.4086959844206

_space_group_name_H-M_alt    "P 1"
_space_group_IT_number       1

loop_
  _space_group_symop_operation_xyz
  'x, y, z'

loop_
  _atom_site_type_symbol
  _atom_site_label
  _atom_site_symmetry_multiplicity
  _atom_site_fract_x
  _atom_site_fract_y
  _atom_site_fract_z
  _atom_site_occupancy
  F   F1        1.0  0.4916057884693146  0.7906786203384399  0.45808604359626776  1.0000
  F   F2        1.0  0.04194195196032524  0.2920669615268707  0.7819157838821413  1.0000
  Gd  Gd1       1.0  0.7140401005744934  0.40730923414230347  0.7480192184448243  1.0000
  K   K1        1.0  0.2925090789794922  0.6234192252159119  0.7422209978103639  1.0000
  Lu  Lu1       1.0  0.716053307056427  0.1241595223546028  0.05822871252894402  1.0000
  Mn  Mn1       1.0  0.19761286675930015  0.9126028418540953  0.46958854794502264  1.0000
  Mn  Mn2       1.0  0.6988013386726378  0.9038075208663939  0.4728196263313294  1.0000
  Mn  Mn3       1.0  0.21282869577407837  0.4369117319583893  0.25294744968414307  1.0000
  Zn  Zn1       1.0  0.9201810359954834  0.6074732542037964  0.957255780696869  1.0000
