data_image0
_chemical_formula_structural       F3Mn3STe2
_chemical_formula_sum              "F3 Mn3 S1 Te2"
_cell_length_a       5.352933293247161
_cell_length_b       5.364328167959059
_cell_length_c       5.881577968597412
_cell_angle_alpha    104.39178880847297
_cell_angle_beta     102.86268411979535
_cell_angle_gamma    127.95514754112415

_space_group_name_H-M_alt    "P 1"
_space_group_IT_number       1

loop_
  _space_group_symop_operation_xyz
  'x, y, z'

loop_
  _atom_site_type_symbol
  _atom_site_label
  _atom_site_symmetry_multiplicity
  _atom_site_fract_x
  _atom_site_fract_y
  _atom_site_fract_z
  _atom_site_occupancy
  F   F1        1.0  0.8993353247642517  0.3397406339645386  0.22150558233261108  1.0000
  F   F2        1.0  0.20590484142303467  0.0336814783513546  0.7365306615829468  1.0000
  F   F3        1.0  0.2569314241409302  0.1584009975194931  0.5133481025695801  1.0000
  Mn  Mn1       1.0  0.5988975167274475  0.28152522444725037  0.8389135003089905  1.0000
  Mn  Mn2       1.0  0.9281052947044373  0.7502313852310181  0.3381913602352142  1.0000
  Mn  Mn3       1.0  0.3536398708820343  0.5876155495643616  0.24237237870693204  1.0000
  S   S1        1.0  0.8022658824920654  0.19361375272274017  0.5767441391944885  1.0000
  Te  Te1       1.0  0.19339509308338165  0.05790910124778747  0.22774820029735565  1.0000
  Te  Te2       1.0  0.27049314975738525  0.15892243385314941  0.3270397484302521  1.0000
