data_image0
_chemical_formula_structural       Hf4K2
_chemical_formula_sum              "Hf4 K2"
_cell_length_a       5.288747817623698
_cell_length_b       5.945211227536787
_cell_length_c       5.987411022186279
_cell_angle_alpha    112.08236403817547
_cell_angle_beta     89.94525305573708
_cell_angle_gamma    90.02441049371758

_space_group_name_H-M_alt    "P 1"
_space_group_IT_number       1

loop_
  _space_group_symop_operation_xyz
  'x, y, z'

loop_
  _atom_site_type_symbol
  _atom_site_label
  _atom_site_symmetry_multiplicity
  _atom_site_fract_x
  _atom_site_fract_y
  _atom_site_fract_z
  _atom_site_occupancy
  Hf  Hf1       1.0  0.2147933542728424  0.4731552004814148  0.8988555669784546  1.0000
  Hf  Hf2       1.0  0.7147238850593567  0.13253793120384216  0.8357935547828674  1.0000
  Hf  Hf3       1.0  0.21638506650924683  0.08739612251520157  0.08253828436136246  1.0000
  Hf  Hf4       1.0  0.2143223136663437  0.9466720223426819  0.5614889860153198  1.0000
  K   K1        1.0  0.7135058045387268  0.4676109254360199  0.4973874092102051  1.0000
  K   K2        1.0  0.7174416780471802  0.7916749119758606  0.18335182964801788  1.0000
