data_image0
_chemical_formula_structural       Hf3K3
_chemical_formula_sum              "Hf3 K3"
_cell_length_a       5.250271187449965
_cell_length_b       6.232169895493697
_cell_length_c       6.236414909362793
_cell_angle_alpha    112.90884876657464
_cell_angle_beta     89.84227124443274
_cell_angle_gamma    90.03606299677458

_space_group_name_H-M_alt    "P 1"
_space_group_IT_number       1

loop_
  _space_group_symop_operation_xyz
  'x, y, z'

loop_
  _atom_site_type_symbol
  _atom_site_label
  _atom_site_symmetry_multiplicity
  _atom_site_fract_x
  _atom_site_fract_y
  _atom_site_fract_z
  _atom_site_occupancy
  Hf  Hf1       1.0  0.5251941084861755  0.7450128793716431  0.7096902132034302  1.0000
  Hf  Hf2       1.0  0.025590291246771812  0.5550398230552673  0.45233187079429626  1.0000
  Hf  Hf3       1.0  0.524145781993866  0.5403826832771301  0.18949508666992188  1.0000
  K   K1        1.0  0.5240378975868225  0.14797590672969818  0.3953337073326111  1.0000
  K   K2        1.0  0.024172237142920494  0.19313770532608032  0.8436694741249084  1.0000
  K   K3        1.0  0.026154829189181328  0.7914636135101318  0.07058498263359074  1.0000
