data_image0
_chemical_formula_structural       BiFGeHfKY
_chemical_formula_sum              "Bi1 F1 Ge1 Hf1 K1 Y1"
_cell_length_a       4.2470880813377905
_cell_length_b       4.234472122554312
_cell_length_c       10.056487083435059
_cell_angle_alpha    77.68007620315053
_cell_angle_beta     77.77496083584573
_cell_angle_gamma    59.8623842649047

_space_group_name_H-M_alt    "P 1"
_space_group_IT_number       1

loop_
  _space_group_symop_operation_xyz
  'x, y, z'

loop_
  _atom_site_type_symbol
  _atom_site_label
  _atom_site_symmetry_multiplicity
  _atom_site_fract_x
  _atom_site_fract_y
  _atom_site_fract_z
  _atom_site_occupancy
  Bi  Bi1       1.0  0.6759999990463257  0.05325978621840477  0.8595201969146726  1.0000
  F   F1        1.0  0.940027117729187  0.3239979147911072  0.07333849370479584  1.0000
  Ge  Ge1       1.0  0.20643848180770874  0.5929436683654785  0.25734221935272217  1.0000
  Hf  Hf1       1.0  0.29379400610923767  0.6688992977142334  0.015797503292560577  1.0000
  K   K1        1.0  0.07956741005182266  0.4695776700973511  0.6328678727149963  1.0000
  Y   Y1        1.0  0.8505042791366577  0.22311456501483917  0.34372809529304504  1.0000
