data_image0
_chemical_formula_structural       GeHHfKTeY
_chemical_formula_sum              "Ge1 H1 Hf1 K1 Te1 Y1"
_cell_length_a       4.1261968459905445
_cell_length_b       4.146350440407349
_cell_length_c       11.12924575805664
_cell_angle_alpha    79.35456083945303
_cell_angle_beta     79.11065049271409
_cell_angle_gamma    59.804199735357955

_space_group_name_H-M_alt    "P 1"
_space_group_IT_number       1

loop_
  _space_group_symop_operation_xyz
  'x, y, z'

loop_
  _atom_site_type_symbol
  _atom_site_label
  _atom_site_symmetry_multiplicity
  _atom_site_fract_x
  _atom_site_fract_y
  _atom_site_fract_z
  _atom_site_occupancy
  Ge  Ge1       1.0  0.20718756318092346  0.17676793038845062  0.8760515451431274  1.0000
  H   H1        1.0  0.7502766847610474  0.7326829433441162  0.2120819836854935  1.0000
  Hf  Hf1       1.0  0.5592113137245178  0.5368820428848267  0.8003104329109192  1.0000
  K   K1        1.0  0.38433992862701416  0.3606264591217041  0.3394708335399627  1.0000
  Te  Te1       1.0  0.6484096050262451  0.6109250783920288  0.5603598952293396  1.0000
  Y   Y1        1.0  0.8293778300285339  0.8047037720680237  0.014903070405125618  1.0000
