data_image0
_chemical_formula_structural       Na2O3PTi4
_chemical_formula_sum              "Na2 O3 P1 Ti4"
_cell_length_a       5.215436915313599
_cell_length_b       5.796016264734695
_cell_length_c       5.692927360534668
_cell_angle_alpha    61.91047173846925
_cell_angle_beta     59.90837824930129
_cell_angle_gamma    62.978876765359665

_space_group_name_H-M_alt    "P 1"
_space_group_IT_number       1

loop_
  _space_group_symop_operation_xyz
  'x, y, z'

loop_
  _atom_site_type_symbol
  _atom_site_label
  _atom_site_symmetry_multiplicity
  _atom_site_fract_x
  _atom_site_fract_y
  _atom_site_fract_z
  _atom_site_occupancy
  Na  Na1       1.0  0.0670635923743248  0.5378589630126953  0.47859072685241705  1.0000
  Na  Na2       1.0  0.6753919124603271  0.8973484039306641  0.24741980433464053  1.0000
  O   O1        1.0  0.5472989678382874  0.6569615006446838  0.19443050026893616  1.0000
  O   O2        1.0  0.20047077536582947  0.6954755187034607  0.9428600072860719  1.0000
  O   O3        1.0  0.9776936769485474  0.68730628490448  0.7465364933013916  1.0000
  P   P1        1.0  0.3569104075431824  0.9364326000213623  0.48154798150062567  1.0000
  Ti  Ti1       1.0  0.719967782497406  0.4204249083995819  0.97702294588089  1.0000
  Ti  Ti2       1.0  0.23672999441623688  0.41829508543014526  0.5517119765281677  1.0000
  Ti  Ti3       1.0  0.21746423840522766  0.9176754951477051  0.2832353711128235  1.0000
  Ti  Ti4       1.0  0.23687921464443207  0.1152050793170929  0.09506676346063614  1.0000
