data_image0
_chemical_formula_structural       NaO5Ti3Tl
_chemical_formula_sum              "Na1 O5 Ti3 Tl1"
_cell_length_a       4.945350027572194
_cell_length_b       5.38057210788179
_cell_length_c       6.496605396270752
_cell_angle_alpha    104.29308004273243
_cell_angle_beta     106.3307044153453
_cell_angle_gamma    102.93544754999371

_space_group_name_H-M_alt    "P 1"
_space_group_IT_number       1

loop_
  _space_group_symop_operation_xyz
  'x, y, z'

loop_
  _atom_site_type_symbol
  _atom_site_label
  _atom_site_symmetry_multiplicity
  _atom_site_fract_x
  _atom_site_fract_y
  _atom_site_fract_z
  _atom_site_occupancy
  Na  Na1       1.0  0.4310739040374756  0.1546957641839981  0.37926095724105835  1.0000
  O   O1        1.0  0.6505007743835449  0.9901500344276428  0.658606767654419  1.0000
  O   O2        1.0  0.7318060994148254  0.8341256976127625  0.9305412769317627  1.0000
  O   O3        1.0  0.43201935291290283  0.6652774214744568  0.8644260764122009  1.0000
  O   O4        1.0  0.9453229308128357  0.4671596884727478  0.46663013100624084  1.0000
  O   O5        1.0  0.5683752298355103  0.8475827574729919  0.40824252367019653  1.0000
  Ti  Ti1       1.0  0.22351279854774475  0.8718353509902954  0.8904473781585693  1.0000
  Ti  Ti2       1.0  0.9038832187652588  0.49751585721969604  0.1567798107862473  1.0000
  Ti  Ti3       1.0  0.18274514377117157  0.9900946617126465  0.6925321221351624  1.0000
  Tl  Tl1       1.0  0.4223584234714508  0.4820164144039154  0.17773941159248352  1.0000
