data_image0
_chemical_formula_structural       Na2O3Ti5
_chemical_formula_sum              "Na2 O3 Ti5"
_cell_length_a       4.670053025400663
_cell_length_b       5.081752107668
_cell_length_c       6.4283127784729
_cell_angle_alpha    91.32165056713545
_cell_angle_beta     92.74149497420646
_cell_angle_gamma    91.05571902387814

_space_group_name_H-M_alt    "P 1"
_space_group_IT_number       1

loop_
  _space_group_symop_operation_xyz
  'x, y, z'

loop_
  _atom_site_type_symbol
  _atom_site_label
  _atom_site_symmetry_multiplicity
  _atom_site_fract_x
  _atom_site_fract_y
  _atom_site_fract_z
  _atom_site_occupancy
  Na  Na1       1.0  0.2906545400619507  0.04707580804824829  0.7291992902755738  1.0000
  Na  Na2       1.0  0.7839962244033813  0.015997741371393204  0.8373885154724122  1.0000
  O   O1        1.0  0.5069645643234253  0.3204445242881775  0.9240729212760926  1.0000
  O   O2        1.0  0.037119586020708084  0.333848237991333  0.730148732662201  1.0000
  O   O3        1.0  0.0966663733124733  0.7232745289802551  0.45725598931312567  1.0000
  Ti  Ti1       1.0  0.3443078100681305  0.5325313806533813  0.5458880662918091  1.0000
  Ti  Ti2       1.0  0.7507340908050537  0.029965434223413467  0.3219888210296631  1.0000
  Ti  Ti3       1.0  0.24927575886249542  0.0472748689353466  0.3149183690547943  1.0000
  Ti  Ti4       1.0  0.8542231917381287  0.32304537296295166  0.9638684988021852  1.0000
  Ti  Ti5       1.0  0.3179275095462799  0.045218612998723984  0.9595173597335817  1.0000
