data_image0
_chemical_formula_structural       Na2O4Ti4
_chemical_formula_sum              "Na2 O4 Ti4"
_cell_length_a       5.311960332854258
_cell_length_b       5.8140830818581275
_cell_length_c       5.818384170532227
_cell_angle_alpha    64.00665995264282
_cell_angle_beta     62.39001650337537
_cell_angle_gamma    63.32428604082862

_space_group_name_H-M_alt    "P 1"
_space_group_IT_number       1

loop_
  _space_group_symop_operation_xyz
  'x, y, z'

loop_
  _atom_site_type_symbol
  _atom_site_label
  _atom_site_symmetry_multiplicity
  _atom_site_fract_x
  _atom_site_fract_y
  _atom_site_fract_z
  _atom_site_occupancy
  Na  Na1       1.0  0.6231817603111267  0.18394078314304352  0.08948405086994171  1.0000
  Na  Na2       1.0  0.08124516904354095  0.2116723656654358  0.828610897064209  1.0000
  O   O1        1.0  0.6418402791023254  0.4266645312309265  0.7198194265365601  1.0000
  O   O2        1.0  0.35805371403694153  0.20260947942733765  0.8314934968948364  1.0000
  O   O3        1.0  0.6878995299339294  0.7051905393600464  0.3404947817325592  1.0000
  O   O4        1.0  0.28518885374069214  0.8376667499542236  0.5817716717720032  1.0000
  Ti  Ti1       1.0  0.43641766905784607  0.8580895662307739  0.1227201372385025  1.0000
  Ti  Ti2       1.0  0.9535926580429077  0.6804496645927429  0.13866035640239716  1.0000
  Ti  Ti3       1.0  0.9221338629722595  0.8631891012191772  0.6289978623390198  1.0000
  Ti  Ti4       1.0  0.44699135422706604  0.18449410796165466  0.6387235522270203  1.0000
