data_image0
_chemical_formula_structural       Na3O2Ti5
_chemical_formula_sum              "Na3 O2 Ti5"
_cell_length_a       5.123922148581022
_cell_length_b       5.32823145482187
_cell_length_c       5.869692802429199
_cell_angle_alpha    63.01241439850488
_cell_angle_beta     63.45838888344277
_cell_angle_gamma    59.071858764516335

_space_group_name_H-M_alt    "P 1"
_space_group_IT_number       1

loop_
  _space_group_symop_operation_xyz
  'x, y, z'

loop_
  _atom_site_type_symbol
  _atom_site_label
  _atom_site_symmetry_multiplicity
  _atom_site_fract_x
  _atom_site_fract_y
  _atom_site_fract_z
  _atom_site_occupancy
  Na  Na1       1.0  0.3034289479255676  0.1689838469028473  0.7272062897682189  1.0000
  Na  Na2       1.0  0.31128251552581787  0.5377035140991211  0.393730878829956  1.0000
  Na  Na3       1.0  0.7956107258796692  0.039492107927799225  0.38537237048149103  1.0000
  O   O1        1.0  0.6244738698005676  0.5497192740440369  0.10640610009431838  1.0000
  O   O2        1.0  0.010940278880298138  0.03790542110800743  0.9171981215476989  1.0000
  Ti  Ti1       1.0  0.9884101748466491  0.5424647331237793  0.35824409127235407  1.0000
  Ti  Ti2       1.0  0.9936674833297728  0.024320688098669052  0.885907232761383  1.0000
  Ti  Ti3       1.0  0.6348768472671509  0.045141708105802536  0.11591244488954547  1.0000
  Ti  Ti4       1.0  0.4798290133476257  0.4093654155731201  0.8549368977546691  1.0000
  Ti  Ti5       1.0  0.9680486917495726  0.6635348796844482  0.8372077345848082  1.0000
