data_image0
_chemical_formula_structural       Na2O4Ti4
_chemical_formula_sum              "Na2 O4 Ti4"
_cell_length_a       4.9999040406221615
_cell_length_b       5.415884493913192
_cell_length_c       5.710470676422119
_cell_angle_alpha    65.20864728528552
_cell_angle_beta     63.84830495904453
_cell_angle_gamma    63.41655238396075

_space_group_name_H-M_alt    "P 1"
_space_group_IT_number       1

loop_
  _space_group_symop_operation_xyz
  'x, y, z'

loop_
  _atom_site_type_symbol
  _atom_site_label
  _atom_site_symmetry_multiplicity
  _atom_site_fract_x
  _atom_site_fract_y
  _atom_site_fract_z
  _atom_site_occupancy
  Na  Na1       1.0  0.6231871843338013  0.3786832094192505  0.7670463919639587  1.0000
  Na  Na2       1.0  0.2021455317735672  0.401006817817688  0.6060895323753357  1.0000
  O   O1        1.0  0.11606122553348541  0.14019553363323212  0.8504037857055663  1.0000
  O   O2        1.0  0.6094422340393066  0.37253716588020325  0.9762409925460814  1.0000
  O   O3        1.0  0.7184569835662842  0.8958286046981812  0.22549109160900113  1.0000
  O   O4        1.0  0.0937890037894249  0.8840020298957825  0.5863431692123413  1.0000
  Ti  Ti1       1.0  0.278608113527298  0.21615758538246155  0.6050951480865479  1.0000
  Ti  Ti2       1.0  0.9361618757247925  0.6560738682746887  0.34323248267173767  1.0000
  Ti  Ti3       1.0  0.7019109725952148  0.8920827507972717  0.6637508869171143  1.0000
  Ti  Ti4       1.0  0.4465089440345764  0.13670288026332855  0.2692750096321106  1.0000
