data_image0
_chemical_formula_structural       CoDy9GaGe
_chemical_formula_sum              "Co1 Dy9 Ga1 Ge1"
_cell_length_a       6.252862274997713
_cell_length_b       8.201666991711681
_cell_length_c       8.341755867004395
_cell_angle_alpha    123.79526284599586
_cell_angle_beta     89.69105971908849
_cell_angle_gamma    89.00028330599078

_space_group_name_H-M_alt    "P 1"
_space_group_IT_number       1

loop_
  _space_group_symop_operation_xyz
  'x, y, z'

loop_
  _atom_site_type_symbol
  _atom_site_label
  _atom_site_symmetry_multiplicity
  _atom_site_fract_x
  _atom_site_fract_y
  _atom_site_fract_z
  _atom_site_occupancy
  Co  Co1       1.0  0.7932524085044861  0.2652195990085602  0.7467461228370667  1.0000
  Dy  Dy1       1.0  0.7969832420349121  0.7553107738494873  0.21033856272697443  1.0000
  Dy  Dy2       1.0  0.28687533736228943  0.04299796745181084  0.2924205958843231  1.0000
  Dy  Dy3       1.0  0.7976210713386536  0.5279771089553833  0.0075434972532093  1.0000
  Dy  Dy4       1.0  0.29595890641212463  0.48282837867736816  0.1235248371958732  1.0000
  Dy  Dy5       1.0  0.7986059784889221  0.3465946316719055  0.785828709602356  1.0000
  Dy  Dy6       1.0  0.28379568457603455  0.10788575559854507  0.4922792911529541  1.0000
  Dy  Dy7       1.0  0.3091171085834503  0.3042614161968231  0.9212769269943237  1.0000
  Dy  Dy8       1.0  0.2944638729095459  0.7174440026283264  0.18206511437892908  1.0000
  Dy  Dy9       1.0  0.7973036766052246  0.6323908567428589  0.3316770493984222  1.0000
  Ga  Ga1       1.0  0.7982380986213684  0.15647868812084198  0.9200012683868408  1.0000
  Ge  Ge1       1.0  0.7981653213500977  0.01961112953722477  0.8913531303405762  1.0000
