data_image0
_chemical_formula_structural       Dy9GeITb
_chemical_formula_sum              "Dy9 Ge1 I1 Tb1"
_cell_length_a       6.395620429467629
_cell_length_b       8.231238276198996
_cell_length_c       8.539289474487305
_cell_angle_alpha    122.3729473438581
_cell_angle_beta     90.53475438876396
_cell_angle_gamma    90.99809440756825

_space_group_name_H-M_alt    "P 1"
_space_group_IT_number       1

loop_
  _space_group_symop_operation_xyz
  'x, y, z'

loop_
  _atom_site_type_symbol
  _atom_site_label
  _atom_site_symmetry_multiplicity
  _atom_site_fract_x
  _atom_site_fract_y
  _atom_site_fract_z
  _atom_site_occupancy
  Dy  Dy1       1.0  0.8255168199539185  0.3819122016429901  0.2586299777030945  1.0000
  Dy  Dy2       1.0  0.3256409466266632  0.12498202174901961  0.07603240013122557  1.0000
  Dy  Dy3       1.0  0.8265979290008545  0.9088483452796935  0.26728564500808705  1.0000
  Dy  Dy4       1.0  0.8260242342948914  0.6909908056259155  0.05845500528812398  1.0000
  Dy  Dy5       1.0  0.32584142684936523  0.14162710309028625  0.1374497413635254  1.0000
  Dy  Dy6       1.0  0.8254892230033875  0.9709395766258239  0.3157781362533568  1.0000
  Dy  Dy7       1.0  0.8259072899818419  0.11602868139743804  0.6839876174926758  1.0000
  Dy  Dy8       1.0  0.3260720372200012  0.5295472145080566  0.5218495726585388  1.0000
  Dy  Dy9       1.0  0.3284570872783661  0.23526827991008756  0.13494944572448728  1.0000
  Ge  Ge1       1.0  0.8264577388763428  0.4294983744621277  0.47717422246932983  1.0000
  I   I1        1.0  0.3266802132129669  0.13864988088607788  0.7182862758636475  1.0000
  Tb  Tb1       1.0  0.8275243639945984  0.31131476163864136  0.3949768841266632  1.0000
