data_image0
_chemical_formula_structural       CoDy7Ga2GeZn
_chemical_formula_sum              "Co1 Dy7 Ga2 Ge1 Zn1"
_cell_length_a       6.504759590643855
_cell_length_b       7.994147173879374
_cell_length_c       8.1548490524292
_cell_angle_alpha    122.92929140667779
_cell_angle_beta     89.91913929665856
_cell_angle_gamma    89.95001521034673

_space_group_name_H-M_alt    "P 1"
_space_group_IT_number       1

loop_
  _space_group_symop_operation_xyz
  'x, y, z'

loop_
  _atom_site_type_symbol
  _atom_site_label
  _atom_site_symmetry_multiplicity
  _atom_site_fract_x
  _atom_site_fract_y
  _atom_site_fract_z
  _atom_site_occupancy
  Co  Co1       1.0  0.8031702637672424  0.41330716013908386  0.4894506335258484  1.0000
  Dy  Dy1       1.0  0.29040560126304626  0.8452651500701904  0.8516739010810852  1.0000
  Dy  Dy2       1.0  0.2961837947368622  0.7822813987731934  0.42139393091201777  1.0000
  Dy  Dy3       1.0  0.7808933258056641  0.15284356474876404  0.3946012556552887  1.0000
  Dy  Dy4       1.0  0.5403221845626831  0.8946106433868408  0.2997706830501556  1.0000
  Dy  Dy5       1.0  0.050819698721170425  0.17855621874332428  0.2750570774078369  1.0000
  Dy  Dy6       1.0  0.7938859462738037  0.2342226505279541  0.5783361792564392  1.0000
  Dy  Dy7       1.0  0.7785967588424683  0.44236651062965393  0.3695828914642334  1.0000
  Ga  Ga1       1.0  0.0715535432100296  0.2360132783651352  0.6509248614311218  1.0000
  Ga  Ga2       1.0  0.09780732542276382  0.8736531138420105  0.7123307585716248  1.0000
  Ge  Ge1       1.0  0.7819247841835022  0.8812280893325806  0.9356489777565002  1.0000
  Zn  Zn1       1.0  0.5226378440856934  0.29254764318466187  0.3711506724357605  1.0000
