data_image0
_chemical_formula_structural       Dy10GaTb
_chemical_formula_sum              "Dy10 Ga1 Tb1"
_cell_length_a       5.79208295348308
_cell_length_b       7.790152534439045
_cell_length_c       7.751309394836426
_cell_angle_alpha    108.26119683456857
_cell_angle_beta     89.12440911602367
_cell_angle_gamma    89.92289582679301

_space_group_name_H-M_alt    "P 1"
_space_group_IT_number       1

loop_
  _space_group_symop_operation_xyz
  'x, y, z'

loop_
  _atom_site_type_symbol
  _atom_site_label
  _atom_site_symmetry_multiplicity
  _atom_site_fract_x
  _atom_site_fract_y
  _atom_site_fract_z
  _atom_site_occupancy
  Dy  Dy1       1.0  0.7096529006958008  0.7652066349983215  0.145168885588646  1.0000
  Dy  Dy2       1.0  0.1960843950510025  0.05457734316587448  0.8921448588371279  1.0000
  Dy  Dy3       1.0  0.7072802782058716  0.30191928148269653  0.46607467532157904  1.0000
  Dy  Dy4       1.0  0.20541392266750336  0.8726639151573181  0.3003491163253785  1.0000
  Dy  Dy5       1.0  0.7013949155807495  0.6943199038505554  0.33891779184341436  1.0000
  Dy  Dy6       1.0  0.2044830620288849  0.4174617826938629  0.5943241119384767  1.0000
  Dy  Dy7       1.0  0.6985076069831848  0.5021134614944458  0.2128403335809708  1.0000
  Dy  Dy8       1.0  0.7115399837493896  0.9935992956161499  0.24371677637100223  1.0000
  Dy  Dy9       1.0  0.20856145024299622  0.2816700339317322  0.7114285826683046  1.0000
  Dy  Dy10      1.0  0.6965359449386597  0.9377406239509583  0.08065907657146455  1.0000
  Ga  Ga1       1.0  0.20601700246334076  0.5489071607589722  0.2928989231586457  1.0000
  Tb  Tb1       1.0  0.20582431554794312  0.7557883262634277  0.3657036423683167  1.0000
