data_image0
_chemical_formula_structural       DyFe8GaGdNd
_chemical_formula_sum              "Dy1 Fe8 Ga1 Gd1 Nd1"
_cell_length_a       4.743386326273817
_cell_length_b       4.576910862946717
_cell_length_c       5.389862537384033
_cell_angle_alpha    83.16745454133434
_cell_angle_beta     81.19398787087273
_cell_angle_gamma    75.2989870678739

_space_group_name_H-M_alt    "P 1"
_space_group_IT_number       1

loop_
  _space_group_symop_operation_xyz
  'x, y, z'

loop_
  _atom_site_type_symbol
  _atom_site_label
  _atom_site_symmetry_multiplicity
  _atom_site_fract_x
  _atom_site_fract_y
  _atom_site_fract_z
  _atom_site_occupancy
  Dy  Dy1       1.0  0.4160526990890503  0.7681657671928406  0.6661588549613953  1.0000
  Fe  Fe1       1.0  0.2793561816215515  0.14588290452957153  0.4845314621925354  1.0000
  Fe  Fe2       1.0  0.7959103584289551  0.38775286078453064  0.2793327867984772  1.0000
  Fe  Fe3       1.0  0.8956591486930847  0.7219312787055969  0.5620535612106323  1.0000
  Fe  Fe4       1.0  0.7962250709533691  0.8623046278953552  0.9776480793952942  1.0000
  Fe  Fe5       1.0  0.32601094245910645  0.04027339816093445  0.5891435146331787  1.0000
  Fe  Fe6       1.0  0.3536979556083679  0.8209091424942017  0.18735720217227936  1.0000
  Fe  Fe7       1.0  0.3633832037448883  0.8387638926506042  0.20358897745609283  1.0000
  Fe  Fe8       1.0  0.34472548961639404  0.8606382608413696  0.8701444864273071  1.0000
  Ga  Ga1       1.0  0.8978983759880066  0.5867632627487183  0.18284669518470764  1.0000
  Gd  Gd1       1.0  0.9180014729499817  0.2854595184326172  0.19534091651439667  1.0000
  Nd  Nd1       1.0  0.028808584436774254  0.7032709121704102  0.151326984167099  1.0000
