data_image0
_chemical_formula_structural       Fe6Ga6
_chemical_formula_sum              "Fe6 Ga6"
_cell_length_a       5.039406323829587
_cell_length_b       5.406507574411133
_cell_length_c       5.299113750457764
_cell_angle_alpha    73.38090694172664
_cell_angle_beta     69.83522022186861
_cell_angle_gamma    67.21418364917851

_space_group_name_H-M_alt    "P 1"
_space_group_IT_number       1

loop_
  _space_group_symop_operation_xyz
  'x, y, z'

loop_
  _atom_site_type_symbol
  _atom_site_label
  _atom_site_symmetry_multiplicity
  _atom_site_fract_x
  _atom_site_fract_y
  _atom_site_fract_z
  _atom_site_occupancy
  Fe  Fe1       1.0  0.471761018037796  0.612462043762207  0.07029380649328232  1.0000
  Fe  Fe2       1.0  0.8590474724769592  0.25439801812171936  0.918692409992218  1.0000
  Fe  Fe3       1.0  0.6106846332550049  0.5301284193992615  0.0614944696426392  1.0000
  Fe  Fe4       1.0  0.49744024872779846  0.17911136150360107  0.8753305673599243  1.0000
  Fe  Fe5       1.0  0.9060087203979492  0.10185407847166061  0.5985426306724548  1.0000
  Fe  Fe6       1.0  0.1197153851389885  0.992116391658783  0.911949098110199  1.0000
  Ga  Ga1       1.0  0.2124667763710022  0.37964576482772827  0.45943427085876465  1.0000
  Ga  Ga2       1.0  0.558864414691925  0.888692319393158  0.4279816746711731  1.0000
  Ga  Ga3       1.0  0.9925269484519958  0.1996038407087326  0.775924563407898  1.0000
  Ga  Ga4       1.0  0.49313169717788696  0.7026088237762451  0.6687777042388916  1.0000
  Ga  Ga5       1.0  0.21122366189956665  0.060810115188360214  0.7066795825958252  1.0000
  Ga  Ga6       1.0  0.9133940935134888  0.0736686959862709  0.5269893407821655  1.0000
