data_image0
_chemical_formula_structural       FK8
_chemical_formula_sum              "F1 K8"
_cell_length_a       7.521140076558771
_cell_length_b       7.160419515293959
_cell_length_c       7.998548984527588
_cell_angle_alpha    111.15177152082103
_cell_angle_beta     113.3335693789745
_cell_angle_gamma    104.86767673829159

_space_group_name_H-M_alt    "P 1"
_space_group_IT_number       1

loop_
  _space_group_symop_operation_xyz
  'x, y, z'

loop_
  _atom_site_type_symbol
  _atom_site_label
  _atom_site_symmetry_multiplicity
  _atom_site_fract_x
  _atom_site_fract_y
  _atom_site_fract_z
  _atom_site_occupancy
  F   F1        1.0  0.7704927325248718  0.6253280639648438  0.49070993065834045  1.0000
  K   K1        1.0  0.34757959842681885  0.7753057479858398  0.30237615108489996  1.0000
  K   K2        1.0  0.7563864588737488  0.13008935749530792  0.09766089171171188  1.0000
  K   K3        1.0  0.4564374685287475  0.36625322699546814  0.7692291736602783  1.0000
  K   K4        1.0  0.30635443329811096  0.08567842841148376  0.9705649614334106  1.0000
  K   K5        1.0  0.0004721879959106445  0.10019006580114365  0.1821776181459427  1.0000
  K   K6        1.0  0.7917367219924927  0.8715326189994812  0.10903381556272507  1.0000
  K   K7        1.0  0.7778438329696655  0.4253098964691162  0.19521602988243103  1.0000
  K   K8        1.0  0.07373381406068802  0.6945617198944092  0.17567221820354462  1.0000
