data_image0
_chemical_formula_structural       F2K7
_chemical_formula_sum              "F2 K7"
_cell_length_a       7.1283593520101896
_cell_length_b       6.7314053306657256
_cell_length_c       8.011432647705078
_cell_angle_alpha    110.53503886823513
_cell_angle_beta     111.13193219749945
_cell_angle_gamma    116.3460595218705

_space_group_name_H-M_alt    "P 1"
_space_group_IT_number       1

loop_
  _space_group_symop_operation_xyz
  'x, y, z'

loop_
  _atom_site_type_symbol
  _atom_site_label
  _atom_site_symmetry_multiplicity
  _atom_site_fract_x
  _atom_site_fract_y
  _atom_site_fract_z
  _atom_site_occupancy
  F   F1        1.0  0.06749988347291946  0.16112971305847168  0.27942341566085815  1.0000
  F   F2        1.0  0.508756160736084  0.2452431172132492  0.5417935848236084  1.0000
  K   K1        1.0  0.9483604431152344  0.4663015305995941  0.531718373298645  1.0000
  K   K2        1.0  0.01017368771135807  0.09149261564016342  0.4258577823638916  1.0000
  K   K3        1.0  0.7724990248680115  0.8116936087608337  0.7785340547561646  1.0000
  K   K4        1.0  0.5163328647613525  0.47239950299263  0.6186625957489014  1.0000
  K   K5        1.0  0.5154517889022827  0.6011043190956116  0.2302672117948532  1.0000
  K   K6        1.0  0.5390670299530029  0.6939216256141663  0.907593846321106  1.0000
  K   K7        1.0  0.5041607022285461  0.7459181547164917  0.3017231822013855  1.0000
