data_image0
_chemical_formula_structural       InLi6PbScZn
_chemical_formula_sum              "In1 Li6 Pb1 Sc1 Zn1"
_cell_length_a       5.655492630777339
_cell_length_b       5.99278339443283
_cell_length_c       7.0653862953186035
_cell_angle_alpha    68.55494158007053
_cell_angle_beta     65.41215163502119
_cell_angle_gamma    61.46838728306395

_space_group_name_H-M_alt    "P 1"
_space_group_IT_number       1

loop_
  _space_group_symop_operation_xyz
  'x, y, z'

loop_
  _atom_site_type_symbol
  _atom_site_label
  _atom_site_symmetry_multiplicity
  _atom_site_fract_x
  _atom_site_fract_y
  _atom_site_fract_z
  _atom_site_occupancy
  In  In1       1.0  0.4177616536617279  0.8761650323867798  0.20247070491313934  1.0000
  Li  Li1       1.0  0.9002392292022705  0.9095932841300964  0.02848818339407444  1.0000
  Li  Li2       1.0  0.9036534428596497  0.03394722938537598  0.635758101940155  1.0000
  Li  Li3       1.0  0.2793548107147217  0.33610180020332336  0.48748368024826055  1.0000
  Li  Li4       1.0  0.3690008819103241  0.7566355466842651  0.2894114553928375  1.0000
  Li  Li5       1.0  0.7977173924446106  0.8394407629966736  0.47711840271949774  1.0000
  Li  Li6       1.0  0.3227352499961853  0.7430943846702576  0.4553093910217285  1.0000
  Pb  Pb1       1.0  0.42945876717567444  0.43712180852890015  0.19591553509235382  1.0000
  Sc  Sc1       1.0  0.933893084526062  0.2770816385746002  0.2410891503095627  1.0000
  Zn  Zn1       1.0  0.6043888926506042  0.6465010046958923  0.5942273736000061  1.0000
