data_image0
_chemical_formula_structural       Li7SScV
_chemical_formula_sum              "Li7 S1 Sc1 V1"
_cell_length_a       4.638437486219525
_cell_length_b       4.233374630682773
_cell_length_c       4.620058536529541
_cell_angle_alpha    88.53417328454037
_cell_angle_beta     92.61961806969079
_cell_angle_gamma    107.53855405408768

_space_group_name_H-M_alt    "P 1"
_space_group_IT_number       1

loop_
  _space_group_symop_operation_xyz
  'x, y, z'

loop_
  _atom_site_type_symbol
  _atom_site_label
  _atom_site_symmetry_multiplicity
  _atom_site_fract_x
  _atom_site_fract_y
  _atom_site_fract_z
  _atom_site_occupancy
  Li  Li1       1.0  0.8725351691246033  0.6873495578765869  0.40077418088912964  1.0000
  Li  Li2       1.0  0.8270394802093506  0.031092675402760506  0.8675626516342163  1.0000
  Li  Li3       1.0  0.7029289603233337  0.7907559275627136  0.9589472413063049  1.0000
  Li  Li4       1.0  0.4255131781101227  0.7524091005325317  0.09196613729000092  1.0000
  Li  Li5       1.0  0.7553507089614868  0.1808096170425415  0.2227494865655899  1.0000
  Li  Li6       1.0  0.4092155694961548  0.07570560276508331  0.21505054831504822  1.0000
  Li  Li7       1.0  0.18544456362724304  0.14346446096897125  0.16020230948925018  1.0000
  S   S1        1.0  0.2930302321910858  0.9800767302513123  0.40416812896728516  1.0000
  Sc  Sc1       1.0  0.7658055424690247  0.713988184928894  0.16923868656158447  1.0000
  V   V1        1.0  0.1546662449836731  0.35431304574012756  0.44385164976119995  1.0000
