data_image0
_chemical_formula_structural       Li6O4
_chemical_formula_sum              "Li6 O4"
_cell_length_a       4.158892243562317
_cell_length_b       4.663939548037513
_cell_length_c       4.98483419418335
_cell_angle_alpha    94.33082436493005
_cell_angle_beta     100.760826403758
_cell_angle_gamma    92.27342876033981

_space_group_name_H-M_alt    "P 1"
_space_group_IT_number       1

loop_
  _space_group_symop_operation_xyz
  'x, y, z'

loop_
  _atom_site_type_symbol
  _atom_site_label
  _atom_site_symmetry_multiplicity
  _atom_site_fract_x
  _atom_site_fract_y
  _atom_site_fract_z
  _atom_site_occupancy
  Li  Li1       1.0  0.7870956659317017  0.04370083287358284  0.610223650932312  1.0000
  Li  Li2       1.0  0.28069084882736206  0.7377194166183472  0.7152748107910156  1.0000
  Li  Li3       1.0  0.7865848541259766  0.42563551664352417  0.9929251074790955  1.0000
  Li  Li4       1.0  0.7506035566329956  0.909562349319458  0.3169082701206207  1.0000
  Li  Li5       1.0  0.13743871450424194  0.13462960720062256  0.4326663911342621  1.0000
  Li  Li6       1.0  0.28772109746932983  0.633949875831604  0.7780993580818176  1.0000
  O   O1        1.0  0.7715943455696106  0.771345317363739  0.8221966624259949  1.0000
  O   O2        1.0  0.7694554924964905  0.4832342565059662  0.5115827918052673  1.0000
  O   O3        1.0  0.15045017004013062  0.05895585939288139  0.3150917887687683  1.0000
  O   O4        1.0  0.749687671661377  0.28395169973373413  0.35343989729881287  1.0000
