data_image0
_chemical_formula_structural       Li7SeZnZr
_chemical_formula_sum              "Li7 Se1 Zn1 Zr1"
_cell_length_a       4.163643614837637
_cell_length_b       4.425414933754582
_cell_length_c       6.934530735015869
_cell_angle_alpha    87.17075080364948
_cell_angle_beta     84.45030927224441
_cell_angle_gamma    80.28388572307793

_space_group_name_H-M_alt    "P 1"
_space_group_IT_number       1

loop_
  _space_group_symop_operation_xyz
  'x, y, z'

loop_
  _atom_site_type_symbol
  _atom_site_label
  _atom_site_symmetry_multiplicity
  _atom_site_fract_x
  _atom_site_fract_y
  _atom_site_fract_z
  _atom_site_occupancy
  Li  Li1       1.0  0.20309366285800934  0.9166114926338196  0.29485538601875305  1.0000
  Li  Li2       1.0  0.19325383007526398  0.9307189583778381  0.9218709468841554  1.0000
  Li  Li3       1.0  0.681742250919342  0.12236861884593964  0.11780253052711488  1.0000
  Li  Li4       1.0  0.1851503998041153  0.7802340984344482  0.509795069694519  1.0000
  Li  Li5       1.0  0.6809774041175842  0.5463342070579529  0.8792198300361634  1.0000
  Li  Li6       1.0  0.6890811324119568  0.4918804466724396  0.78651762008667  1.0000
  Li  Li7       1.0  0.16224658489227295  0.17029143869876862  0.39707976579666143  1.0000
  Se  Se1       1.0  0.7176925539970398  0.1374257206916809  0.6911192536354066  1.0000
  Zn  Zn1       1.0  0.6841174960136414  0.09267259389162064  0.3808796405792237  1.0000
  Zr  Zr1       1.0  0.21157678961753845  0.325257807970047  0.8231539726257325  1.0000
