data_image0
_chemical_formula_structural       CuLaLi4O4
_chemical_formula_sum              "Cu1 La1 Li4 O4"
_cell_length_a       4.842582050154022
_cell_length_b       4.570957835640175
_cell_length_c       5.302173614501953
_cell_angle_alpha    115.41647093887255
_cell_angle_beta     114.34094662119242
_cell_angle_gamma    99.87430324914062

_space_group_name_H-M_alt    "P 1"
_space_group_IT_number       1

loop_
  _space_group_symop_operation_xyz
  'x, y, z'

loop_
  _atom_site_type_symbol
  _atom_site_label
  _atom_site_symmetry_multiplicity
  _atom_site_fract_x
  _atom_site_fract_y
  _atom_site_fract_z
  _atom_site_occupancy
  Cu  Cu1       1.0  0.8962282538414001  0.41115716099739075  0.8097203373908997  1.0000
  La  La1       1.0  0.4032045304775238  0.13882757723331451  0.9949783682823181  1.0000
  Li  Li1       1.0  0.9176398515701294  0.9448052048683167  0.55884850025177  1.0000
  Li  Li2       1.0  0.8875937461853027  0.884843647480011  0.7344552874565125  1.0000
  Li  Li3       1.0  0.38094207644462585  0.1527906060218811  0.5308976769447327  1.0000
  Li  Li4       1.0  0.17204606533050537  0.25392410159111023  0.5448420643806458  1.0000
  O   O1        1.0  0.6786852478981018  0.6984370350837708  0.05193888768553734  1.0000
  O   O2        1.0  0.8811133503913879  0.8349702954292297  0.943108081817627  1.0000
  O   O3        1.0  0.8850468397140503  0.8975836634635925  0.7650805115699768  1.0000
  O   O4        1.0  0.16766664385795593  0.7519155740737915  0.7091194987297058  1.0000
