data_image0
_chemical_formula_structural       I4P3Tb3
_chemical_formula_sum              "I4 P3 Tb3"
_cell_length_a       5.741025277381414
_cell_length_b       6.58515419158858
_cell_length_c       8.481017112731934
_cell_angle_alpha    100.12065783242241
_cell_angle_beta     90.2596642888851
_cell_angle_gamma    91.71234632966221

_space_group_name_H-M_alt    "P 1"
_space_group_IT_number       1

loop_
  _space_group_symop_operation_xyz
  'x, y, z'

loop_
  _atom_site_type_symbol
  _atom_site_label
  _atom_site_symmetry_multiplicity
  _atom_site_fract_x
  _atom_site_fract_y
  _atom_site_fract_z
  _atom_site_occupancy
  I   I1        1.0  0.1377662569284439  0.5803139209747314  0.20744697749614716  1.0000
  I   I2        1.0  0.6314688324928284  0.0761532187461853  0.13571704924106598  1.0000
  I   I3        1.0  0.1336551308631897  0.6428406238555908  0.8370489478111267  1.0000
  I   I4        1.0  0.8977651596069337  0.5853253602981567  0.6406956911087036  1.0000
  P   P1        1.0  0.7107427716255188  0.8653066754341127  0.558387815952301  1.0000
  P   P2        1.0  0.8950436115264894  0.8976153731346131  0.21587784588336945  1.0000
  P   P3        1.0  0.6503188610076904  0.4120993912220002  0.20703184604644775  1.0000
  Tb  Tb1       1.0  0.39452743530273443  0.7813706398010255  0.7967456579208374  1.0000
  Tb  Tb2       1.0  0.6212820410728455  0.3773318231105805  0.30612972378730774  1.0000
  Tb  Tb3       1.0  0.14458751678466797  0.07250335812568665  0.7532287836074829  1.0000
