data_image0
_chemical_formula_structural       FeI3P2Tb4
_chemical_formula_sum              "Fe1 I3 P2 Tb4"
_cell_length_a       5.602790138429012
_cell_length_b       6.589363364938641
_cell_length_c       9.337971687316895
_cell_angle_alpha    91.99947983938549
_cell_angle_beta     93.38208557119185
_cell_angle_gamma    91.19135697561642

_space_group_name_H-M_alt    "P 1"
_space_group_IT_number       1

loop_
  _space_group_symop_operation_xyz
  'x, y, z'

loop_
  _atom_site_type_symbol
  _atom_site_label
  _atom_site_symmetry_multiplicity
  _atom_site_fract_x
  _atom_site_fract_y
  _atom_site_fract_z
  _atom_site_occupancy
  Fe  Fe1       1.0  0.03261043131351471  0.9890332221984863  0.3313544690608978  1.0000
  I   I1        1.0  0.008386298082768917  0.6886330246925354  0.9836379885673523  1.0000
  I   I2        1.0  0.4949660003185273  0.5157886743545532  0.11636640131473541  1.0000
  I   I3        1.0  0.013957313261926176  0.729869544506073  0.8733257055282593  1.0000
  P   P1        1.0  0.8087007999420167  0.22578299045562744  0.596700131893158  1.0000
  P   P2        1.0  0.5573648810386658  0.4252428710460663  0.8902636170387268  1.0000
  Tb  Tb1       1.0  0.002803802490234375  0.32248055934906006  0.4765394330024719  1.0000
  Tb  Tb2       1.0  0.5069850087165833  0.5345432162284851  0.2629113793373108  1.0000
  Tb  Tb3       1.0  0.5034652948379517  0.40664035081863403  0.5350134968757629  1.0000
  Tb  Tb4       1.0  0.014382410794496538  0.6725316047668457  0.9214805364608765  1.0000
