data_image0
_chemical_formula_structural       Fe3P3Tb4
_chemical_formula_sum              "Fe3 P3 Tb4"
_cell_length_a       4.358626786127804
_cell_length_b       4.338130174389394
_cell_length_c       6.71091890335083
_cell_angle_alpha    71.3541754248595
_cell_angle_beta     72.76157541340923
_cell_angle_gamma    63.91232433405714

_space_group_name_H-M_alt    "P 1"
_space_group_IT_number       1

loop_
  _space_group_symop_operation_xyz
  'x, y, z'

loop_
  _atom_site_type_symbol
  _atom_site_label
  _atom_site_symmetry_multiplicity
  _atom_site_fract_x
  _atom_site_fract_y
  _atom_site_fract_z
  _atom_site_occupancy
  Fe  Fe1       1.0  0.39359545707702637  0.966166079044342  0.49754825234413147  1.0000
  Fe  Fe2       1.0  0.9114594459533691  0.9438793063163757  0.02309415489435196  1.0000
  Fe  Fe3       1.0  0.8932840824127197  0.3910992741584778  0.9576783180236816  1.0000
  P   P1        1.0  0.8876221776008606  0.7822954058647156  0.12549157440662384  1.0000
  P   P2        1.0  0.8779832124710083  0.17443622648715973  0.8589814901351929  1.0000
  P   P3        1.0  0.8833236694335938  0.9016826152801514  0.32399868965148926  1.0000
  Tb  Tb1       1.0  0.4273621439933777  0.11814474314451218  0.010891311801970005  1.0000
  Tb  Tb2       1.0  0.42709726095199585  0.13993658125400543  0.47469696402549744  1.0000
  Tb  Tb3       1.0  0.8768779039382935  0.22515861690044403  0.9034022092819214  1.0000
  Tb  Tb4       1.0  0.8794876933097839  0.9930211305618286  0.9828939437866211  1.0000
