data_image0
_chemical_formula_structural       FeI2P4PbTb2
_chemical_formula_sum              "Fe1 I2 P4 Pb1 Tb2"
_cell_length_a       5.368876622261694
_cell_length_b       6.193726769543461
_cell_length_c       6.685320854187012
_cell_angle_alpha    96.31084427780054
_cell_angle_beta     112.19343063280962
_cell_angle_gamma    110.14160968326584

_space_group_name_H-M_alt    "P 1"
_space_group_IT_number       1

loop_
  _space_group_symop_operation_xyz
  'x, y, z'

loop_
  _atom_site_type_symbol
  _atom_site_label
  _atom_site_symmetry_multiplicity
  _atom_site_fract_x
  _atom_site_fract_y
  _atom_site_fract_z
  _atom_site_occupancy
  Fe  Fe1       1.0  0.3723084032535553  0.20990611612796783  0.27194687724113464  1.0000
  I   I1        1.0  0.9989280700683593  0.2929396629333496  0.6555857062339783  1.0000
  I   I2        1.0  0.20660781860351562  0.6067084074020386  0.39280611276626587  1.0000
  P   P1        1.0  0.539763867855072  0.12990592420101166  0.9616532921791077  1.0000
  P   P2        1.0  0.8250698447227478  0.751886248588562  0.1872013807296753  1.0000
  P   P3        1.0  0.5365915298461914  0.2185584455728531  0.7116386890411377  1.0000
  P   P4        1.0  0.10427651554346085  0.861103355884552  0.4162594974040985  1.0000
  Pb  Pb1       1.0  0.2674349546432495  0.40478652715682983  0.20577755570411682  1.0000
  Tb  Tb1       1.0  0.7525978088378906  0.175103560090065  0.09199815243482587  1.0000
  Tb  Tb2       1.0  0.4124705493450165  0.2122430056333542  0.854278028011322  1.0000
