data_image0
_chemical_formula_structural       FeIP4PbTb3
_chemical_formula_sum              "Fe1 I1 P4 Pb1 Tb3"
_cell_length_a       6.254985386105415
_cell_length_b       5.975998889042539
_cell_length_c       6.752572536468506
_cell_angle_alpha    67.21889749883024
_cell_angle_beta     77.27438222458957
_cell_angle_gamma    77.09661111068984

_space_group_name_H-M_alt    "P 1"
_space_group_IT_number       1

loop_
  _space_group_symop_operation_xyz
  'x, y, z'

loop_
  _atom_site_type_symbol
  _atom_site_label
  _atom_site_symmetry_multiplicity
  _atom_site_fract_x
  _atom_site_fract_y
  _atom_site_fract_z
  _atom_site_occupancy
  Fe  Fe1       1.0  0.7720006704330444  0.7323757410049438  0.04511421546339989  1.0000
  I   I1        1.0  0.7810620069503784  0.8235278725624084  0.16858132183551788  1.0000
  P   P1        1.0  0.2573202848434448  0.25637906789779663  0.06442267447710037  1.0000
  P   P2        1.0  0.10944326967000961  0.8329128623008728  0.48882439732551575  1.0000
  P   P3        1.0  0.27357158064842224  0.22278925776481628  0.3124791383743286  1.0000
  P   P4        1.0  0.7714597582817078  0.0492483414709568  0.6066581010818481  1.0000
  Pb  Pb1       1.0  0.2788155674934387  0.4891504645347595  0.31189343333244324  1.0000
  Tb  Tb1       1.0  0.5001646876335144  0.6587750315666199  0.6202611923217773  1.0000
  Tb  Tb2       1.0  0.2087794840335846  0.001863996614702046  0.5118255019187927  1.0000
  Tb  Tb3       1.0  0.7730274796485901  0.08693097531795502  0.057641640305519104  1.0000
