data_image0
_chemical_formula_structural       BFe3I2PTb3
_chemical_formula_sum              "B1 Fe3 I2 P1 Tb3"
_cell_length_a       4.4289975419620955
_cell_length_b       4.641866354265166
_cell_length_c       6.1455206871032715
_cell_angle_alpha    80.45228485508494
_cell_angle_beta     85.29472131411575
_cell_angle_gamma    82.31293201761613

_space_group_name_H-M_alt    "P 1"
_space_group_IT_number       1

loop_
  _space_group_symop_operation_xyz
  'x, y, z'

loop_
  _atom_site_type_symbol
  _atom_site_label
  _atom_site_symmetry_multiplicity
  _atom_site_fract_x
  _atom_site_fract_y
  _atom_site_fract_z
  _atom_site_occupancy
  B   B1        1.0  0.9628751873970032  0.7052518129348755  0.45990374684333807  1.0000
  Fe  Fe1       1.0  0.9645532369613647  0.372092068195343  0.6475023627281189  1.0000
  Fe  Fe2       1.0  0.7675081491470337  0.5324949026107788  0.8594590425491334  1.0000
  Fe  Fe3       1.0  0.03833784908056259  0.44817984104156494  0.9410288929939271  1.0000
  I   I1        1.0  0.4551544785499573  0.0038714746478945017  0.276345431804657  1.0000
  I   I2        1.0  0.2624299228191376  0.10660857707262039  0.8873010873794557  1.0000
  P   P1        1.0  0.4926275908946991  0.6972668170928955  0.3992091119289398  1.0000
  Tb  Tb1       1.0  0.4713425934314728  0.7160592675209045  0.7254179120063782  1.0000
  Tb  Tb2       1.0  0.6422726511955261  0.9874893426895142  0.26049476861953735  1.0000
  Tb  Tb3       1.0  0.9771668314933777  0.653125524520874  0.7439180016517639  1.0000
