data_image0
_chemical_formula_structural       BClLi2O2RuTl2Tm
_chemical_formula_sum              "B1 Cl1 Li2 O2 Ru1 Tl2 Tm1"
_cell_length_a       6.020646436187788
_cell_length_b       5.8549380114496845
_cell_length_c       6.1919355392456055
_cell_angle_alpha    62.800695222752275
_cell_angle_beta     62.34733976594261
_cell_angle_gamma    60.72929295875481

_space_group_name_H-M_alt    "P 1"
_space_group_IT_number       1

loop_
  _space_group_symop_operation_xyz
  'x, y, z'

loop_
  _atom_site_type_symbol
  _atom_site_label
  _atom_site_symmetry_multiplicity
  _atom_site_fract_x
  _atom_site_fract_y
  _atom_site_fract_z
  _atom_site_occupancy
  B   B1        1.0  0.4224299490451813  0.7077240943908691  0.9776077270507812  1.0000
  Cl  Cl1       1.0  0.910149872303009  0.42770129442214966  0.14811591804027557  1.0000
  Li  Li1       1.0  0.5138235688209534  0.4276750683784485  0.41745525598526  1.0000
  Li  Li2       1.0  0.256838321685791  0.40924733877182007  0.8161439895629883  1.0000
  O   O1        1.0  0.9896693825721741  0.8987923264503479  0.4123135805130005  1.0000
  O   O2        1.0  0.5800308585166931  0.25369635224342346  0.38817042112350464  1.0000
  Ru  Ru1       1.0  0.3095260560512543  0.26832035183906555  0.09536921977996826  1.0000
  Tl  Tl1       1.0  0.1502774953842163  0.009595700539648533  0.7128227949142456  1.0000
  Tl  Tl2       1.0  0.7640638947486877  0.9099941253662109  0.910805881023407  1.0000
  Tm  Tm1       1.0  0.4491038918495178  0.9183360934257507  0.6679365038871765  1.0000
