data_image0
_chemical_formula_structural       GeLi4O3PbTl
_chemical_formula_sum              "Ge1 Li4 O3 Pb1 Tl1"
_cell_length_a       6.226951071356214
_cell_length_b       6.601540667115398
_cell_length_c       6.353348255157471
_cell_angle_alpha    62.189700467282755
_cell_angle_beta     60.96683261593259
_cell_angle_gamma    61.439877481422194

_space_group_name_H-M_alt    "P 1"
_space_group_IT_number       1

loop_
  _space_group_symop_operation_xyz
  'x, y, z'

loop_
  _atom_site_type_symbol
  _atom_site_label
  _atom_site_symmetry_multiplicity
  _atom_site_fract_x
  _atom_site_fract_y
  _atom_site_fract_z
  _atom_site_occupancy
  Ge  Ge1       1.0  0.06138690188527107  0.09146289527416229  0.4297816753387451  1.0000
  Li  Li1       1.0  0.15575231611728668  0.3031643331050873  0.045923370867967606  1.0000
  Li  Li2       1.0  0.029603907838463783  0.05293674394488335  0.8014402389526367  1.0000
  Li  Li3       1.0  0.5339496731758118  0.10437695682048798  0.7234740853309631  1.0000
  Li  Li4       1.0  0.3444867730140686  0.6661900877952576  0.8024871349334717  1.0000
  O   O1        1.0  0.42829450964927673  0.33966171741485596  0.6294232606887817  1.0000
  O   O2        1.0  0.7656121850013733  0.984291136264801  0.3688109517097473  1.0000
  O   O3        1.0  0.7706572413444519  0.7981882691383362  0.7352679371833801  1.0000
  Pb  Pb1       1.0  0.032091766595840454  0.47341397404670715  0.7150171995162964  1.0000
  Tl  Tl1       1.0  0.0377923808991909  0.08859343826770782  0.812852680683136  1.0000
