data_image0
_chemical_formula_structural       Br5Li5
_chemical_formula_sum              "Br5 Li5"
_cell_length_a       6.920305339665003
_cell_length_b       7.198274346423698
_cell_length_c       7.448238849639893
_cell_angle_alpha    119.46706277159532
_cell_angle_beta     114.14677675059335
_cell_angle_gamma    88.81677217984718

_space_group_name_H-M_alt    "P 1"
_space_group_IT_number       1

loop_
  _space_group_symop_operation_xyz
  'x, y, z'

loop_
  _atom_site_type_symbol
  _atom_site_label
  _atom_site_symmetry_multiplicity
  _atom_site_fract_x
  _atom_site_fract_y
  _atom_site_fract_z
  _atom_site_occupancy
  Br  Br1       1.0  0.39842507243156433  0.5174111127853394  0.8362843990325928  1.0000
  Br  Br2       1.0  0.7489510178565979  0.9198638796806335  0.39267662167549133  1.0000
  Br  Br3       1.0  0.03186121955513954  0.8695881962776184  0.7568551898002625  1.0000
  Br  Br4       1.0  0.9356862306594849  0.6277637481689453  0.8928238749504089  1.0000
  Br  Br5       1.0  0.0496247299015522  0.3910103440284729  0.38860830664634705  1.0000
  Li  Li1       1.0  0.7386981248855591  0.3847804069519043  0.5581334233283997  1.0000
  Li  Li2       1.0  0.7080640196800232  0.4252372086048126  0.8548592329025269  1.0000
  Li  Li3       1.0  0.03158536180853844  0.8731580376625061  0.26876330375671387  1.0000
  Li  Li4       1.0  0.29275617003440857  0.532198965549469  0.771858811378479  1.0000
  Li  Li5       1.0  0.4032967686653137  0.32791560888290405  0.9027071595191956  1.0000
