data_image0
_chemical_formula_structural       Br6Li4
_chemical_formula_sum              "Br6 Li4"
_cell_length_a       6.362737792260879
_cell_length_b       6.566180335145377
_cell_length_c       6.717685699462891
_cell_angle_alpha    119.04744901302034
_cell_angle_beta     116.11795449735475
_cell_angle_gamma    93.01434917320154

_space_group_name_H-M_alt    "P 1"
_space_group_IT_number       1

loop_
  _space_group_symop_operation_xyz
  'x, y, z'

loop_
  _atom_site_type_symbol
  _atom_site_label
  _atom_site_symmetry_multiplicity
  _atom_site_fract_x
  _atom_site_fract_y
  _atom_site_fract_z
  _atom_site_occupancy
  Br  Br1       1.0  0.3975578248500824  0.348538875579834  0.03165242820978165  1.0000
  Br  Br2       1.0  0.24515603482723236  0.8745771646499634  0.5393419861793518  1.0000
  Br  Br3       1.0  0.5820926427841187  0.767720639705658  0.21284089982509613  1.0000
  Br  Br4       1.0  0.5557858943939209  0.26324060559272766  0.8303167819976807  1.0000
  Br  Br5       1.0  0.8250890374183655  0.3494260907173157  0.01507633551955223  1.0000
  Br  Br6       1.0  0.05557249113917351  0.7642993330955505  0.5269361734390259  1.0000
  Li  Li1       1.0  0.7093182802200317  0.6678855419158936  0.6252530217170715  1.0000
  Li  Li2       1.0  0.045350197702646255  0.7834916710853577  0.17381960153579712  1.0000
  Li  Li3       1.0  0.06576374173164368  0.36222395300865173  0.0241179671138525  1.0000
  Li  Li4       1.0  0.19320771098136902  0.3798479437828064  0.21758873760700226  1.0000
