data_image0
_chemical_formula_structural       AlBrLi3O4Tl
_chemical_formula_sum              "Al1 Br1 Li3 O4 Tl1"
_cell_length_a       6.361691539925743
_cell_length_b       6.285419801868941
_cell_length_c       6.357722282409668
_cell_angle_alpha    60.507154656637226
_cell_angle_beta     61.50262256113754
_cell_angle_gamma    60.259917658698555

_space_group_name_H-M_alt    "P 1"
_space_group_IT_number       1

loop_
  _space_group_symop_operation_xyz
  'x, y, z'

loop_
  _atom_site_type_symbol
  _atom_site_label
  _atom_site_symmetry_multiplicity
  _atom_site_fract_x
  _atom_site_fract_y
  _atom_site_fract_z
  _atom_site_occupancy
  Al  Al1       1.0  0.8167895078659058  0.6654449105262756  0.08041236549615846  1.0000
  Br  Br1       1.0  0.769226610660553  0.05559254065155983  0.6938673853874207  1.0000
  Li  Li1       1.0  0.4300732910633087  0.32971203327178955  0.4941411018371581  1.0000
  Li  Li2       1.0  0.18528367578983307  0.6599460244178772  0.7397817969322205  1.0000
  Li  Li3       1.0  0.4408845901489258  0.0023902154061943293  0.4870510995388031  1.0000
  O   O1        1.0  0.05866264924407005  0.9371845126152039  0.4534117877483368  1.0000
  O   O2        1.0  0.7777705788612366  0.5234897136688232  0.05258126184344285  1.0000
  O   O3        1.0  0.7644374966621399  0.26204580068588257  0.09051418304443352  1.0000
  O   O4        1.0  0.32447540760040283  0.2825264036655426  0.8991129398345947  1.0000
  Tl  Tl1       1.0  0.07294150441884995  0.9502711296081543  0.9541811943054199  1.0000
