data_image0
_chemical_formula_structural       BrLi3O4PdS
_chemical_formula_sum              "Br1 Li3 O4 Pd1 S1"
_cell_length_a       6.402102510813883
_cell_length_b       6.434655893116082
_cell_length_c       6.251911640167236
_cell_angle_alpha    61.92096425174519
_cell_angle_beta     62.79968092549245
_cell_angle_gamma    60.39031048663754

_space_group_name_H-M_alt    "P 1"
_space_group_IT_number       1

loop_
  _space_group_symop_operation_xyz
  'x, y, z'

loop_
  _atom_site_type_symbol
  _atom_site_label
  _atom_site_symmetry_multiplicity
  _atom_site_fract_x
  _atom_site_fract_y
  _atom_site_fract_z
  _atom_site_occupancy
  Br  Br1       1.0  0.006202865857630967  0.6827988624572754  0.4543439745903015  1.0000
  Li  Li1       1.0  0.7148948311805725  0.2812495827674866  0.4596154689788819  1.0000
  Li  Li2       1.0  0.7158162593841553  0.7801744937896729  0.9551701545715332  1.0000
  Li  Li3       1.0  0.0416782982647419  0.3566490411758423  0.21611137688159943  1.0000
  O   O1        1.0  0.3896303176879882  0.835378885269165  0.958811342716217  1.0000
  O   O2        1.0  0.04145386070013046  0.9942799806594849  0.4672641158103943  1.0000
  O   O3        1.0  0.3917731940746307  0.7870568037033081  0.4571950435638428  1.0000
  O   O4        1.0  0.7194427251815796  0.5005567073822021  0.9605233669281006  1.0000
  Pd  Pd1       1.0  0.7213320136070251  0.5012210607528687  0.9578936696052551  1.0000
  S   S1        1.0  0.2054152190685272  0.24796316027641296  0.9563246369361877  1.0000
