data_image0
_chemical_formula_structural       BMo4O4S
_chemical_formula_sum              "B1 Mo4 O4 S1"
_cell_length_a       5.51174651220252
_cell_length_b       5.965364747918508
_cell_length_c       7.169832706451416
_cell_angle_alpha    116.42771866530313
_cell_angle_beta     104.50262775078005
_cell_angle_gamma    95.47594485110092

_space_group_name_H-M_alt    "P 1"
_space_group_IT_number       1

loop_
  _space_group_symop_operation_xyz
  'x, y, z'

loop_
  _atom_site_type_symbol
  _atom_site_label
  _atom_site_symmetry_multiplicity
  _atom_site_fract_x
  _atom_site_fract_y
  _atom_site_fract_z
  _atom_site_occupancy
  B   B1        1.0  0.7685452699661255  0.11339374631643295  0.3998132050037384  1.0000
  Mo  Mo1       1.0  0.7627657651901245  0.6302658915519714  0.23883715271949768  1.0000
  Mo  Mo2       1.0  0.28240305185317993  0.6305056214332581  0.24971595406532285  1.0000
  Mo  Mo3       1.0  0.311690092086792  0.8186879754066467  0.6476783156394958  1.0000
  Mo  Mo4       1.0  0.0069913724437355995  0.13919726014137268  0.07820779830217361  1.0000
  O   O1        1.0  0.4881269633769989  0.1789638251066208  0.39125946164131165  1.0000
  O   O2        1.0  0.037765469402074814  0.8383858799934387  0.26005521416664124  1.0000
  O   O3        1.0  0.9486472606658936  0.6612615585327148  0.8836355209350586  1.0000
  O   O4        1.0  0.7985246181488037  0.19496764242649078  0.6942270398139954  1.0000
  S   S1        1.0  0.4835858941078186  0.168307363986969  0.14177405834197998  1.0000
