data_image0
_chemical_formula_structural       Mo2O8
_chemical_formula_sum              "Mo2 O8"
_cell_length_a       5.822767547761263
_cell_length_b       6.355374914989234
_cell_length_c       5.817522048950195
_cell_angle_alpha    115.3320376246015
_cell_angle_beta     108.36542135819244
_cell_angle_gamma    90.25481483545279

_space_group_name_H-M_alt    "P 1"
_space_group_IT_number       1

loop_
  _space_group_symop_operation_xyz
  'x, y, z'

loop_
  _atom_site_type_symbol
  _atom_site_label
  _atom_site_symmetry_multiplicity
  _atom_site_fract_x
  _atom_site_fract_y
  _atom_site_fract_z
  _atom_site_occupancy
  Mo  Mo1       1.0  0.08241081237792969  0.33703482151031494  0.03123282827436924  1.0000
  Mo  Mo2       1.0  0.5926285982131958  0.8781861066818237  0.007895997725427074  1.0000
  O   O1        1.0  0.6907199621200562  0.0769522562623024  0.4654918909072876  1.0000
  O   O2        1.0  0.8537452220916748  0.5541879534721375  0.2654109597206116  1.0000
  O   O3        1.0  0.3479000926017761  0.633048951625824  0.33696353435516346  1.0000
  O   O4        1.0  0.5415147542953491  0.6185527443885803  0.8036081194877625  1.0000
  O   O5        1.0  0.3724028766155243  0.3710000514984131  0.3546937108039856  1.0000
  O   O6        1.0  0.8823292255401611  0.715531051158905  0.36169901490211487  1.0000
  O   O7        1.0  0.36544910073280334  0.14198057353496552  0.4767158627510071  1.0000
  O   O8        1.0  0.36178040504455566  0.12949742376804352  0.9969672560691833  1.0000
