data_image0
_chemical_formula_structural       Mo2O8
_chemical_formula_sum              "Mo2 O8"
_cell_length_a       6.286260372532754
_cell_length_b       6.7052522634446055
_cell_length_c       7.051233291625977
_cell_angle_alpha    110.88547728797512
_cell_angle_beta     110.95087851243214
_cell_angle_gamma    108.55391844284188

_space_group_name_H-M_alt    "P 1"
_space_group_IT_number       1

loop_
  _space_group_symop_operation_xyz
  'x, y, z'

loop_
  _atom_site_type_symbol
  _atom_site_label
  _atom_site_symmetry_multiplicity
  _atom_site_fract_x
  _atom_site_fract_y
  _atom_site_fract_z
  _atom_site_occupancy
  Mo  Mo1       1.0  0.2666735351085663  0.6177631616592407  0.518102765083313  1.0000
  Mo  Mo2       1.0  0.8830822110176085  0.22984200716018677  0.5512763857841492  1.0000
  O   O1        1.0  0.4024538099765777  0.42540791630744934  0.037127669900655746  1.0000
  O   O2        1.0  0.7698997855186461  0.12334778904914856  0.5137688517570496  1.0000
  O   O3        1.0  0.33868563175201416  0.16224022209644318  0.5355384349822998  1.0000
  O   O4        1.0  0.06626074016094208  0.29101890325546265  0.9758606553077698  1.0000
  O   O5        1.0  0.07118885964155197  0.8479304313659668  0.2598228454589844  1.0000
  O   O6        1.0  0.8723000288009642  0.5053044557571411  0.06894250959157944  1.0000
  O   O7        1.0  0.7960453033447265  0.66326904296875  0.21828319132328033  1.0000
  O   O8        1.0  0.4671745300292968  0.24825052917003632  0.3508637249469757  1.0000
