data_image0
_chemical_formula_structural       KMo2O7
_chemical_formula_sum              "K1 Mo2 O7"
_cell_length_a       5.577163882796191
_cell_length_b       6.184987424088253
_cell_length_c       6.412950038909912
_cell_angle_alpha    112.54570287201754
_cell_angle_beta     94.57320728008948
_cell_angle_gamma    112.12274351774803

_space_group_name_H-M_alt    "P 1"
_space_group_IT_number       1

loop_
  _space_group_symop_operation_xyz
  'x, y, z'

loop_
  _atom_site_type_symbol
  _atom_site_label
  _atom_site_symmetry_multiplicity
  _atom_site_fract_x
  _atom_site_fract_y
  _atom_site_fract_z
  _atom_site_occupancy
  K   K1        1.0  0.7943576574325562  0.09265848994255066  0.5617629289627075  1.0000
  Mo  Mo1       1.0  0.3662058413028717  0.1910725235939026  0.40810751914978033  1.0000
  Mo  Mo2       1.0  0.3362171947956085  0.09604869037866592  0.4047214090824128  1.0000
  O   O1        1.0  0.7745239734649658  0.39305076003074646  0.5634055137634277  1.0000
  O   O2        1.0  0.5824679136276245  0.6503641605377197  0.4267804622650147  1.0000
  O   O3        1.0  0.07632755488157272  0.15418779850006104  0.08305038511753082  1.0000
  O   O4        1.0  0.0734848603606224  0.6328467130661011  0.6261292695999146  1.0000
  O   O5        1.0  0.06774123758077621  0.5952951312065125  0.6499113440513611  1.0000
  O   O6        1.0  0.33593595027923584  0.4209847152233124  0.8055186867713929  1.0000
  O   O7        1.0  0.07430858910083771  0.9340401291847229  0.6894996762275696  1.0000
