data_image0
_chemical_formula_structural       Mo7O3
_chemical_formula_sum              "Mo7 O3"
_cell_length_a       5.1133786651549356
_cell_length_b       7.830971820672729
_cell_length_c       8.08371639251709
_cell_angle_alpha    118.0897597322946
_cell_angle_beta     86.19901103390148
_cell_angle_gamma    91.0572122654929

_space_group_name_H-M_alt    "P 1"
_space_group_IT_number       1

loop_
  _space_group_symop_operation_xyz
  'x, y, z'

loop_
  _atom_site_type_symbol
  _atom_site_label
  _atom_site_symmetry_multiplicity
  _atom_site_fract_x
  _atom_site_fract_y
  _atom_site_fract_z
  _atom_site_occupancy
  Mo  Mo1       1.0  0.21869875490665436  0.4897025525569916  0.8704423904418945  1.0000
  Mo  Mo2       1.0  0.7323910593986511  0.8595770597457886  0.2494836151599884  1.0000
  Mo  Mo3       1.0  0.23005831241607666  0.27703145146369934  0.3437134623527527  1.0000
  Mo  Mo4       1.0  0.7329971194267273  0.8298406004905701  0.8587056994438171  1.0000
  Mo  Mo5       1.0  0.7363362908363342  0.623506486415863  0.6539618372917175  1.0000
  Mo  Mo6       1.0  0.7335759401321411  0.6434910893440247  0.244773730635643  1.0000
  Mo  Mo7       1.0  0.2318188101053238  0.027567759156227112  0.7324640154838562  1.0000
  O   O1        1.0  0.7365304827690125  0.12647002935409546  0.16011124849319458  1.0000
  O   O2        1.0  0.21759602427482605  0.436985582113266  0.4686572551727295  1.0000
  O   O3        1.0  0.44198551774024963  0.6377676725387573  0.6496807932853699  1.0000
