data_image0
_chemical_formula_structural       Mo5O5
_chemical_formula_sum              "Mo5 O5"
_cell_length_a       1.1360429905318878
_cell_length_b       7.572586599538222
_cell_length_c       7.366883277893066
_cell_angle_alpha    117.83828914098015
_cell_angle_beta     80.8550188035923
_cell_angle_gamma    83.4066680110996

_space_group_name_H-M_alt    "P 1"
_space_group_IT_number       1

loop_
  _space_group_symop_operation_xyz
  'x, y, z'

loop_
  _atom_site_type_symbol
  _atom_site_label
  _atom_site_symmetry_multiplicity
  _atom_site_fract_x
  _atom_site_fract_y
  _atom_site_fract_z
  _atom_site_occupancy
  Mo  Mo1       1.0  0.14155146479606628  0.9638295769691467  0.08842453360557555  1.0000
  Mo  Mo2       1.0  0.14213688671588898  0.09128142893314362  0.3850939273834228  1.0000
  Mo  Mo3       1.0  0.6547108888626099  0.5754627585411072  0.49815168976783747  1.0000
  Mo  Mo4       1.0  0.6420831680297852  0.2070593535900116  0.2873117327690124  1.0000
  Mo  Mo5       1.0  0.12319832295179367  0.40086594223976135  0.1599549055099487  1.0000
  O   O1        1.0  0.11248878389596939  0.03082868456840515  0.22409212589263913  1.0000
  O   O2        1.0  0.661572277545929  0.07940486073493958  0.4681593775749206  1.0000
  O   O3        1.0  0.626425564289093  0.4858848750591278  0.9451560974121093  1.0000
  O   O4        1.0  0.6134743094444275  0.5132492780685425  0.07306663691997527  1.0000
  O   O5        1.0  0.15566866099834442  0.40902945399284363  0.5843235254287719  1.0000
