data_image0
_chemical_formula_structural       Cl2Ge2LuSiTeTmZn3
_chemical_formula_sum              "Cl2 Ge2 Lu1 Si1 Te1 Tm1 Zn3"
_cell_length_a       5.513551547227939
_cell_length_b       6.569535972122531
_cell_length_c       9.560686111450195
_cell_angle_alpha    89.64378227450857
_cell_angle_beta     89.79828948975461
_cell_angle_gamma    112.97454470731867

_space_group_name_H-M_alt    "P 1"
_space_group_IT_number       1

loop_
  _space_group_symop_operation_xyz
  'x, y, z'

loop_
  _atom_site_type_symbol
  _atom_site_label
  _atom_site_symmetry_multiplicity
  _atom_site_fract_x
  _atom_site_fract_y
  _atom_site_fract_z
  _atom_site_occupancy
  Cl  Cl1       1.0  0.7979727387428284  0.41096270084381104  0.7863525748252869  1.0000
  Cl  Cl2       1.0  0.33523136377334595  0.14080660045146942  0.01169674564152956  1.0000
  Ge  Ge1       1.0  0.42008858919143677  0.8161891102790833  0.8245012164115906  1.0000
  Ge  Ge2       1.0  0.6579776406288147  0.141889750957489  0.315787672996521  1.0000
  Lu  Lu1       1.0  0.04295830428600311  0.1496230810880661  0.05606945976614952  1.0000
  Si  Si1       1.0  0.7215373516082764  0.4243358075618744  0.4855695366859436  1.0000
  Te  Te1       1.0  0.09799551218748093  0.6334206461906433  0.3065573275089264  1.0000
  Tm  Tm1       1.0  0.08204685151576996  0.6511231064796448  0.3403673470020294  1.0000
  Zn  Zn1       1.0  0.7979035377502441  0.415059357881546  0.803840696811676  1.0000
  Zn  Zn2       1.0  0.2984156310558319  0.9227023720741272  0.4640628397464752  1.0000
  Zn  Zn3       1.0  0.5868235230445862  0.14503911137580872  0.3561035394668579  1.0000
