data_image0
_chemical_formula_structural       AlGe3MnTm2Zn4
_chemical_formula_sum              "Al1 Ge3 Mn1 Tm2 Zn4"
_cell_length_a       4.895129864324583
_cell_length_b       6.355548949799711
_cell_length_c       9.07588005065918
_cell_angle_alpha    89.90287599824649
_cell_angle_beta     89.40723712930945
_cell_angle_gamma    113.36881045953828

_space_group_name_H-M_alt    "P 1"
_space_group_IT_number       1

loop_
  _space_group_symop_operation_xyz
  'x, y, z'

loop_
  _atom_site_type_symbol
  _atom_site_label
  _atom_site_symmetry_multiplicity
  _atom_site_fract_x
  _atom_site_fract_y
  _atom_site_fract_z
  _atom_site_occupancy
  Al  Al1       1.0  0.3156307339668274  0.9793006777763367  0.7927117347717285  1.0000
  Ge  Ge1       1.0  0.9235292673110962  0.46231895685195923  0.5563669204711914  1.0000
  Ge  Ge2       1.0  0.06941400468349457  0.3135426938533783  0.9636394381523132  1.0000
  Ge  Ge3       1.0  0.3762480318546295  0.5897303819656372  0.4487837851047516  1.0000
  Mn  Mn1       1.0  0.5089253783226013  0.47650790214538574  0.671805739402771  1.0000
  Tm  Tm1       1.0  0.5094125866889954  0.8087566494941711  0.45914289355278015  1.0000
  Tm  Tm2       1.0  0.8070745468139648  0.30938148498535156  0.3034813106060028  1.0000
  Zn  Zn1       1.0  0.8355172872543335  0.46882155537605286  0.8916054964065552  1.0000
  Zn  Zn2       1.0  0.5110804438591003  0.8112693428993225  0.9603980779647827  1.0000
  Zn  Zn3       1.0  0.00012481212615966797  0.8071855902671814  0.2326207011938095  1.0000
  Zn  Zn4       1.0  0.6485662460327148  0.9798476696014404  0.18650753796100616  1.0000
