data_image0
_chemical_formula_structural       ClGeMn3Tm2Zn4
_chemical_formula_sum              "Cl1 Ge1 Mn3 Tm2 Zn4"
_cell_length_a       4.6356693797816675
_cell_length_b       6.756030908202378
_cell_length_c       9.042041778564453
_cell_angle_alpha    89.8163087435773
_cell_angle_beta     88.9597305586244
_cell_angle_gamma    92.28554910063166

_space_group_name_H-M_alt    "P 1"
_space_group_IT_number       1

loop_
  _space_group_symop_operation_xyz
  'x, y, z'

loop_
  _atom_site_type_symbol
  _atom_site_label
  _atom_site_symmetry_multiplicity
  _atom_site_fract_x
  _atom_site_fract_y
  _atom_site_fract_z
  _atom_site_occupancy
  Cl  Cl1       1.0  0.35345402359962463  0.057739876210689545  0.5978094935417175  1.0000
  Ge  Ge1       1.0  0.6450756192207336  0.7945767045021057  0.9952225089073181  1.0000
  Mn  Mn1       1.0  0.4037385582923889  0.051196418702602386  0.9752776622772217  1.0000
  Mn  Mn2       1.0  0.3587173521518707  0.3205549418926239  0.7387828826904297  1.0000
  Mn  Mn3       1.0  0.8468666672706604  0.9038063883781433  0.6873199343681335  1.0000
  Tm  Tm1       1.0  0.6495243310928345  0.5615221858024597  0.19902800023555756  1.0000
  Tm  Tm2       1.0  0.8589600324630737  0.05843798816204071  0.574739933013916  1.0000
  Zn  Zn1       1.0  0.15785233676433563  0.06494560837745667  0.7691774368286133  1.0000
  Zn  Zn2       1.0  0.138680100440979  0.5564997792243958  0.1727757304906845  1.0000
  Zn  Zn3       1.0  0.6474463939666748  0.7633631229400635  0.17201901972293854  1.0000
  Zn  Zn4       1.0  0.6320461630821228  0.3000876307487488  0.06991133093833923  1.0000
