data_image0
_chemical_formula_structural       ClGe2MnTm2Zn4Zr
_chemical_formula_sum              "Cl1 Ge2 Mn1 Tm2 Zn4 Zr1"
_cell_length_a       4.369672998493423
_cell_length_b       5.8110392817274645
_cell_length_c       10.305347442626953
_cell_angle_alpha    90.28988035197001
_cell_angle_beta     88.95522947628592
_cell_angle_gamma    89.82600366696478

_space_group_name_H-M_alt    "P 1"
_space_group_IT_number       1

loop_
  _space_group_symop_operation_xyz
  'x, y, z'

loop_
  _atom_site_type_symbol
  _atom_site_label
  _atom_site_symmetry_multiplicity
  _atom_site_fract_x
  _atom_site_fract_y
  _atom_site_fract_z
  _atom_site_occupancy
  Cl  Cl1       1.0  0.7916504144668579  0.10347043722867966  0.767167329788208  1.0000
  Ge  Ge1       1.0  0.2743057310581207  0.5599353909492493  0.9548191428184509  1.0000
  Ge  Ge2       1.0  0.5704701542854309  0.7832250595092773  0.7371342182159424  1.0000
  Mn  Mn1       1.0  0.7799123525619507  0.8157393336296082  0.25933724641799927  1.0000
  Tm  Tm1       1.0  0.7684330344200134  0.0702059268951416  0.9141390323638916  1.0000
  Tm  Tm2       1.0  0.2742254436016083  0.5561714768409729  0.41577330231666565  1.0000
  Zn  Zn1       1.0  0.779035210609436  0.5920615196228027  0.051261965185403824  1.0000
  Zn  Zn2       1.0  0.2804816961288452  0.23704153299331665  0.917072594165802  1.0000
  Zn  Zn3       1.0  0.2718883454799652  0.5656251311302185  0.41135165095329285  1.0000
  Zn  Zn4       1.0  0.7694072127342224  0.06011814996600151  0.42719289660453796  1.0000
  Zr  Zr1       1.0  0.26371875405311584  0.24474915862083435  0.411329448223114  1.0000
