data_image0
_chemical_formula_structural       Ge2MnTm3Zn5
_chemical_formula_sum              "Ge2 Mn1 Tm3 Zn5"
_cell_length_a       6.632410059797259
_cell_length_b       6.718404823819137
_cell_length_c       7.256497859954834
_cell_angle_alpha    93.58161877658473
_cell_angle_beta     87.92925889691384
_cell_angle_gamma    120.09812167574583

_space_group_name_H-M_alt    "P 1"
_space_group_IT_number       1

loop_
  _space_group_symop_operation_xyz
  'x, y, z'

loop_
  _atom_site_type_symbol
  _atom_site_label
  _atom_site_symmetry_multiplicity
  _atom_site_fract_x
  _atom_site_fract_y
  _atom_site_fract_z
  _atom_site_occupancy
  Ge  Ge1       1.0  0.6627891063690186  0.3724287450313568  0.05356542766094207  1.0000
  Ge  Ge2       1.0  0.8943261504173279  0.01646491326391697  0.40698024630546564  1.0000
  Mn  Mn1       1.0  0.28088757395744324  0.6238114833831787  0.5554397702217102  1.0000
  Tm  Tm1       1.0  0.029504192993044853  0.9574771523475647  0.7992038130760192  1.0000
  Tm  Tm2       1.0  0.7090252637863159  0.30720847845077515  0.41035091876983637  1.0000
  Tm  Tm3       1.0  0.2720195949077606  0.9748146533966064  0.13681373000144958  1.0000
  Zn  Zn1       1.0  0.21877123415470123  0.7325284481048584  0.7805514931678771  1.0000
  Zn  Zn2       1.0  0.6782059669494629  0.7088301777839661  0.8103017210960387  1.0000
  Zn  Zn3       1.0  0.2636152505874634  0.3080320656299591  0.6469952464103699  1.0000
  Zn  Zn4       1.0  0.9350075125694275  0.25993844866752625  0.139930859208107  1.0000
  Zn  Zn5       1.0  0.006029892712831497  0.98855060338974  0.23075622320175168  1.0000
