data_image0
_chemical_formula_structural       Ge2MnTm3Zn5
_chemical_formula_sum              "Ge2 Mn1 Tm3 Zn5"
_cell_length_a       5.73662304767637
_cell_length_b       6.177379881564403
_cell_length_c       7.642940044403076
_cell_angle_alpha    90.42004631280139
_cell_angle_beta     88.34072389591127
_cell_angle_gamma    113.74317118562027

_space_group_name_H-M_alt    "P 1"
_space_group_IT_number       1

loop_
  _space_group_symop_operation_xyz
  'x, y, z'

loop_
  _atom_site_type_symbol
  _atom_site_label
  _atom_site_symmetry_multiplicity
  _atom_site_fract_x
  _atom_site_fract_y
  _atom_site_fract_z
  _atom_site_occupancy
  Ge  Ge1       1.0  0.17746397852897647  0.7613628506660463  0.39788326621055603  1.0000
  Ge  Ge2       1.0  0.7316463589668274  0.35726585984230047  0.8954228162765503  1.0000
  Mn  Mn1       1.0  0.8087608814239502  0.2889913022518158  0.3974935710430145  1.0000
  Tm  Tm1       1.0  0.10257268697023392  0.5613664984703064  0.4199294447898865  1.0000
  Tm  Tm2       1.0  0.9066238403320312  0.7817538976669313  0.2055004984140396  1.0000
  Tm  Tm3       1.0  0.24766890704631808  0.4751788675785065  0.4765927791595459  1.0000
  Zn  Zn1       1.0  0.5862635970115662  0.0443413220345974  0.8951577544212341  1.0000
  Zn  Zn2       1.0  0.08611452579498292  0.10168379545211793  0.731807291507721  1.0000
  Zn  Zn3       1.0  0.06375124305486679  0.05131306871771813  0.3264238238334656  1.0000
  Zn  Zn4       1.0  0.5284044146537781  0.7720820903778077  0.8202434778213501  1.0000
  Zn  Zn5       1.0  0.23383738100528725  0.993518352508545  0.1067732498049736  1.0000
