data_image0
_chemical_formula_structural       CoI5Tb5
_chemical_formula_sum              "Co1 I5 Tb5"
_cell_length_a       6.873237202975607
_cell_length_b       7.18900407344713
_cell_length_c       9.58424186706543
_cell_angle_alpha    75.2370891965944
_cell_angle_beta     72.5992552357151
_cell_angle_gamma    71.02879044727432

_space_group_name_H-M_alt    "P 1"
_space_group_IT_number       1

loop_
  _space_group_symop_operation_xyz
  'x, y, z'

loop_
  _atom_site_type_symbol
  _atom_site_label
  _atom_site_symmetry_multiplicity
  _atom_site_fract_x
  _atom_site_fract_y
  _atom_site_fract_z
  _atom_site_occupancy
  Co  Co1       1.0  0.7152383327484131  0.13183695077896118  0.9989621043205261  1.0000
  I   I1        1.0  0.12157410383224487  0.17948222160339355  0.01933261752128601  1.0000
  I   I2        1.0  0.11803007870912552  0.8410749435424805  0.1643199622631073  1.0000
  I   I3        1.0  0.7095845937728882  0.31078335642814636  0.15448249876499176  1.0000
  I   I4        1.0  0.6311967968940735  0.20985639095306396  0.2818952798843384  1.0000
  I   I5        1.0  0.6214844584465027  0.6293148398399353  0.2684769332408905  1.0000
  Tb  Tb1       1.0  0.6507383584976196  0.5126599669456482  0.679530143737793  1.0000
  Tb  Tb2       1.0  0.19343994557857513  0.763200581073761  0.6760609149932861  1.0000
  Tb  Tb3       1.0  0.6345908641815186  0.5904654860496521  0.22968490421772003  1.0000
  Tb  Tb4       1.0  0.20753835141658783  0.2933821380138397  0.4766988456249237  1.0000
  Tb  Tb5       1.0  0.24602586030960083  0.4489457607269287  0.1640661656856537  1.0000
