data_image0
_chemical_formula_structural       CoI4Tb6
_chemical_formula_sum              "Co1 I4 Tb6"
_cell_length_a       8.155119701351191
_cell_length_b       8.158794073808297
_cell_length_c       8.835515975952148
_cell_angle_alpha    81.77609025206719
_cell_angle_beta     73.9118061174025
_cell_angle_gamma    73.46252576065834

_space_group_name_H-M_alt    "P 1"
_space_group_IT_number       1

loop_
  _space_group_symop_operation_xyz
  'x, y, z'

loop_
  _atom_site_type_symbol
  _atom_site_label
  _atom_site_symmetry_multiplicity
  _atom_site_fract_x
  _atom_site_fract_y
  _atom_site_fract_z
  _atom_site_occupancy
  Co  Co1       1.0  0.748950183391571  0.9853465557098389  0.6293706893920898  1.0000
  I   I1        1.0  0.9655523896217346  0.5451502203941345  0.43049752712249756  1.0000
  I   I2        1.0  0.9579857587814331  0.5487892031669617  0.06447663903236389  1.0000
  I   I3        1.0  0.7361562848091125  0.8951576352119446  0.5607451796531677  1.0000
  I   I4        1.0  0.47556596994400024  0.3446435034275055  0.26658403873443604  1.0000
  Tb  Tb1       1.0  0.21333962678909302  0.5828993320465088  0.09809041768312454  1.0000
  Tb  Tb2       1.0  0.47996675968170166  0.15442386269569397  0.21994909644126892  1.0000
  Tb  Tb3       1.0  0.47341135144233704  0.01165818888694048  0.9400054216384888  1.0000
  Tb  Tb4       1.0  0.4755149483680725  0.9435153603553772  0.32471010088920593  1.0000
  Tb  Tb5       1.0  0.4663805067539215  0.15741924941539764  0.00933394767343998  1.0000
  Tb  Tb6       1.0  0.9723095893859863  0.4469088315963745  0.06940162181854242  1.0000
