data_image0
_chemical_formula_structural       Co3I7Tb
_chemical_formula_sum              "Co3 I7 Tb1"
_cell_length_a       7.0332003831278245
_cell_length_b       6.959552837906136
_cell_length_c       9.738822937011719
_cell_angle_alpha    86.58019764320092
_cell_angle_beta     74.0966056041923
_cell_angle_gamma    72.3662820030761

_space_group_name_H-M_alt    "P 1"
_space_group_IT_number       1

loop_
  _space_group_symop_operation_xyz
  'x, y, z'

loop_
  _atom_site_type_symbol
  _atom_site_label
  _atom_site_symmetry_multiplicity
  _atom_site_fract_x
  _atom_site_fract_y
  _atom_site_fract_z
  _atom_site_occupancy
  Co  Co1       1.0  0.2907225787639618  0.5224722623825073  0.963248610496521  1.0000
  Co  Co2       1.0  0.36825522780418396  0.24394871294498444  0.24303419888019562  1.0000
  Co  Co3       1.0  0.059976160526275635  0.5997280478477478  0.06843024492263794  1.0000
  I   I1        1.0  0.3063482344150543  0.28776994347572327  0.03114762343466283  1.0000
  I   I2        1.0  0.8110081553459167  0.15237519145011902  0.8268771767616272  1.0000
  I   I3        1.0  0.8463057279586792  0.7806259989738464  0.2313060462474823  1.0000
  I   I4        1.0  0.34927573800086975  0.4482821226119995  0.3524026572704315  1.0000
  I   I5        1.0  0.36678725481033325  0.5564272403717041  0.7763280272483826  1.0000
  I   I6        1.0  0.8448407649993896  0.43257632851600647  0.9679537415504456  1.0000
  I   I7        1.0  0.05178707838058472  0.4227365553379059  0.11184995621442795  1.0000
  Tb  Tb1       1.0  0.31740233302116394  0.718912661075592  0.46518823504447937  1.0000
