data_image0
_chemical_formula_structural       CoI8SbTb
_chemical_formula_sum              "Co1 I8 Sb1 Tb1"
_cell_length_a       6.898945050974362
_cell_length_b       6.788819683985278
_cell_length_c       10.030959129333496
_cell_angle_alpha    90.02300632517516
_cell_angle_beta     91.2015703894192
_cell_angle_gamma    90.48846277869751

_space_group_name_H-M_alt    "P 1"
_space_group_IT_number       1

loop_
  _space_group_symop_operation_xyz
  'x, y, z'

loop_
  _atom_site_type_symbol
  _atom_site_label
  _atom_site_symmetry_multiplicity
  _atom_site_fract_x
  _atom_site_fract_y
  _atom_site_fract_z
  _atom_site_occupancy
  Co  Co1       1.0  0.01267470698803663  0.46193596720695496  0.9255743026733397  1.0000
  I   I1        1.0  0.30831634998321533  0.7106571197509766  0.9410646557807921  1.0000
  I   I2        1.0  0.30847594141960144  0.18706278502941132  0.2644637525081634  1.0000
  I   I3        1.0  0.3084739148616791  0.3651672601699829  0.30514657497406006  1.0000
  I   I4        1.0  0.8054162263870238  0.29796379804611206  0.5920809507369995  1.0000
  I   I5        1.0  0.029163422062993046  0.5291069746017456  0.5792747139930725  1.0000
  I   I6        1.0  0.8051364421844481  0.03319903090596199  0.2258477807044983  1.0000
  I   I7        1.0  0.8050272464752196  0.9722364544868469  0.11524399369955063  1.0000
  I   I8        1.0  0.3020479381084442  0.701573371887207  0.81544029712677  1.0000
  Sb  Sb1       1.0  0.5965667366981506  0.6076675653457642  0.2846210300922394  1.0000
  Tb  Tb1       1.0  0.562650203704834  0.7203754186630249  0.7623330950737  1.0000
