data_image0
_chemical_formula_structural       Co3I6Tb2
_chemical_formula_sum              "Co3 I6 Tb2"
_cell_length_a       7.4298450010254635
_cell_length_b       7.270121074656649
_cell_length_c       7.530116081237793
_cell_angle_alpha    117.10781102417096
_cell_angle_beta     115.64528329692021
_cell_angle_gamma    98.33981339006897

_space_group_name_H-M_alt    "P 1"
_space_group_IT_number       1

loop_
  _space_group_symop_operation_xyz
  'x, y, z'

loop_
  _atom_site_type_symbol
  _atom_site_label
  _atom_site_symmetry_multiplicity
  _atom_site_fract_x
  _atom_site_fract_y
  _atom_site_fract_z
  _atom_site_occupancy
  Co  Co1       1.0  0.9493281245231628  0.31500449776649475  0.8299379944801331  1.0000
  Co  Co2       1.0  0.8948149085044861  0.4864445626735687  0.6412644386291504  1.0000
  Co  Co3       1.0  0.23812904953956604  0.08150558918714523  0.8302751779556274  1.0000
  I   I1        1.0  0.45197057723999023  0.09781096130609512  0.9169129729270935  1.0000
  I   I2        1.0  0.5064375996589661  0.19616486132144928  0.7839034199714661  1.0000
  I   I3        1.0  0.42605894804000854  0.18797779083251953  0.5552676320075989  1.0000
  I   I4        1.0  0.9944813847541808  0.8755313754081726  0.06838045269250859  1.0000
  I   I5        1.0  0.5419111251831055  0.5668008923530579  0.7510260939598083  1.0000
  I   I6        1.0  0.23968510329723358  0.06380613893270493  0.6102094054222107  1.0000
  Tb  Tb1       1.0  0.980818748474121  0.9157240390777588  0.18282653391361225  1.0000
  Tb  Tb2       1.0  0.5416800379753113  0.8939128518104553  0.31435438990592945  1.0000
