data_image0
_chemical_formula_structural       Co2I7Tb2
_chemical_formula_sum              "Co2 I7 Tb2"
_cell_length_a       6.257327990066013
_cell_length_b       6.239106367959255
_cell_length_c       11.084684371948242
_cell_angle_alpha    90.92354814904391
_cell_angle_beta     90.02132630594339
_cell_angle_gamma    104.3388220273571

_space_group_name_H-M_alt    "P 1"
_space_group_IT_number       1

loop_
  _space_group_symop_operation_xyz
  'x, y, z'

loop_
  _atom_site_type_symbol
  _atom_site_label
  _atom_site_symmetry_multiplicity
  _atom_site_fract_x
  _atom_site_fract_y
  _atom_site_fract_z
  _atom_site_occupancy
  Co  Co1       1.0  0.621218740940094  0.28810733556747437  0.355180025100708  1.0000
  Co  Co2       1.0  0.6211509108543396  0.27492615580558777  0.620851457118988  1.0000
  I   I1        1.0  0.6223793029785156  0.7776730060577393  0.02739626355469227  1.0000
  I   I2        1.0  0.13302960991859436  0.005165093578398228  0.4515039920806885  1.0000
  I   I3        1.0  0.6351286172866821  0.536859929561615  0.6019248366355896  1.0000
  I   I4        1.0  0.14275974035263062  0.11861073970794678  0.2786884009838104  1.0000
  I   I5        1.0  0.1264614313840866  0.4477381408214569  0.6143741607666016  1.0000
  I   I6        1.0  0.13282376527786255  0.3590700328350067  0.09809506684541702  1.0000
  I   I7        1.0  0.6381930708885193  0.9981123208999634  0.21456755697727203  1.0000
  Tb  Tb1       1.0  0.13988536596298218  0.0880386084318161  0.7722005248069763  1.0000
  Tb  Tb2       1.0  0.13709068298339844  0.8430590033531189  0.21262207627296448  1.0000
