data_image0
_chemical_formula_structural       Ga2V3Zn2Zr3
_chemical_formula_sum              "Ga2 V3 Zn2 Zr3"
_cell_length_a       4.207281763870767
_cell_length_b       3.9774219045429904
_cell_length_c       5.65747594833374
_cell_angle_alpha    96.65345792631874
_cell_angle_beta     104.2342465277449
_cell_angle_gamma    120.62292905640231

_space_group_name_H-M_alt    "P 1"
_space_group_IT_number       1

loop_
  _space_group_symop_operation_xyz
  'x, y, z'

loop_
  _atom_site_type_symbol
  _atom_site_label
  _atom_site_symmetry_multiplicity
  _atom_site_fract_x
  _atom_site_fract_y
  _atom_site_fract_z
  _atom_site_occupancy
  Ga  Ga1       1.0  0.5154396295547485  0.36650383472442627  0.4175564050674438  1.0000
  Ga  Ga2       1.0  0.4969564974308014  0.43617427349090576  0.290424644947052  1.0000
  V   V1        1.0  0.061323247849941254  0.6779699921607971  0.478404551744461  1.0000
  V   V2        1.0  0.5523621439933777  0.7004326581954956  0.48913112282752985  1.0000
  V   V3        1.0  0.032308224588632584  0.13433018326759338  0.4262061417102813  1.0000
  Zn  Zn1       1.0  0.0597037598490715  0.7092878222465515  0.4829586744308471  1.0000
  Zn  Zn2       1.0  0.5220291018486023  0.15477584302425385  0.4231745600700378  1.0000
  Zr  Zr1       1.0  0.5681354999542236  0.3590976595878601  0.09142653644084928  1.0000
  Zr  Zr2       1.0  0.0712309330701828  0.010589195415377617  0.052215859293937676  1.0000
  Zr  Zr3       1.0  0.5352495312690735  0.2534189522266388  0.19115510582923886  1.0000
