data_image0
_chemical_formula_structural       Ga4V4Zr2
_chemical_formula_sum              "Ga4 V4 Zr2"
_cell_length_a       4.545001896511608
_cell_length_b       3.7037266093225063
_cell_length_c       5.554008960723877
_cell_angle_alpha    106.30088567722798
_cell_angle_beta     90.91778523556762
_cell_angle_gamma    136.1465951718749

_space_group_name_H-M_alt    "P 1"
_space_group_IT_number       1

loop_
  _space_group_symop_operation_xyz
  'x, y, z'

loop_
  _atom_site_type_symbol
  _atom_site_label
  _atom_site_symmetry_multiplicity
  _atom_site_fract_x
  _atom_site_fract_y
  _atom_site_fract_z
  _atom_site_occupancy
  Ga  Ga1       1.0  0.3705849349498749  0.008816298097372055  0.5503817200660706  1.0000
  Ga  Ga2       1.0  0.646114706993103  0.1482609361410141  0.2633281648159027  1.0000
  Ga  Ga3       1.0  0.18153543770313263  0.09258896857500076  0.6844355463981628  1.0000
  Ga  Ga4       1.0  0.9455446600914001  0.002768848789855838  0.43943899869918823  1.0000
  V   V1        1.0  0.7929063439369202  0.565727949142456  0.10149677097797394  1.0000
  V   V2        1.0  0.7854344248771667  0.17871375381946564  0.34846261143684387  1.0000
  V   V3        1.0  0.15889543294906616  0.7098732590675354  0.6953156590461731  1.0000
  V   V4        1.0  0.20444808900356293  0.9213413000106812  0.5808525085449219  1.0000
  Zr  Zr1       1.0  0.6505590081214905  0.6945328712463379  0.36003273725509644  1.0000
  Zr  Zr2       1.0  0.5962015986442566  0.6864283680915833  0.2726017236709595  1.0000
