data_image0
_chemical_formula_structural       Ga2V3Zr5
_chemical_formula_sum              "Ga2 V3 Zr5"
_cell_length_a       4.937296832073582
_cell_length_b       4.574925687049507
_cell_length_c       5.33640718460083
_cell_angle_alpha    91.29274500434872
_cell_angle_beta     91.93166684291728
_cell_angle_gamma    83.24524679951631

_space_group_name_H-M_alt    "P 1"
_space_group_IT_number       1

loop_
  _space_group_symop_operation_xyz
  'x, y, z'

loop_
  _atom_site_type_symbol
  _atom_site_label
  _atom_site_symmetry_multiplicity
  _atom_site_fract_x
  _atom_site_fract_y
  _atom_site_fract_z
  _atom_site_occupancy
  Ga  Ga1       1.0  0.7052230834960938  0.45072704553604126  0.29841697216033936  1.0000
  Ga  Ga2       1.0  0.9580513834953308  0.5889415740966797  0.7689765095710754  1.0000
  V   V1        1.0  0.22939591109752655  0.9838054776191711  0.9033412933349609  1.0000
  V   V2        1.0  0.2344798743724823  0.44730913639068604  0.4624210298061371  1.0000
  V   V3        1.0  0.7343801259994507  0.6515529155731201  0.4992105960845947  1.0000
  Zr  Zr1       1.0  0.9368128776550293  0.6638046503067017  0.07499870657920837  1.0000
  Zr  Zr2       1.0  0.22697879374027252  0.5602153539657593  0.15624330937862396  1.0000
  Zr  Zr3       1.0  0.728840172290802  0.14796912670135498  0.09953367710113525  1.0000
  Zr  Zr4       1.0  0.2353704273700714  0.728374183177948  0.4531339704990387  1.0000
  Zr  Zr5       1.0  0.726659893989563  0.07886286079883575  0.9942784309387207  1.0000
