data_image0
_chemical_formula_structural       Ga4V4Zr2
_chemical_formula_sum              "Ga4 V4 Zr2"
_cell_length_a       5.0884710816784
_cell_length_b       5.725145925866742
_cell_length_c       6.869610786437988
_cell_angle_alpha    116.37984276116164
_cell_angle_beta     109.95181844471938
_cell_angle_gamma    89.59073391834525

_space_group_name_H-M_alt    "P 1"
_space_group_IT_number       1

loop_
  _space_group_symop_operation_xyz
  'x, y, z'

loop_
  _atom_site_type_symbol
  _atom_site_label
  _atom_site_symmetry_multiplicity
  _atom_site_fract_x
  _atom_site_fract_y
  _atom_site_fract_z
  _atom_site_occupancy
  Ga  Ga1       1.0  0.8268822431564331  0.5149056911468506  0.4540427625179291  1.0000
  Ga  Ga2       1.0  0.3307499289512634  0.1792064756155014  0.726670503616333  1.0000
  Ga  Ga3       1.0  0.8475592136383057  0.16751974821090698  0.6857659220695496  1.0000
  Ga  Ga4       1.0  0.8524813055992126  0.8435190916061401  0.8828707933425903  1.0000
  V   V1        1.0  0.8548557758331299  0.5868776440620422  0.22011440992355347  1.0000
  V   V2        1.0  0.8394376039505005  0.12058913707733154  0.5702370405197144  1.0000
  V   V3        1.0  0.8570044636726379  0.3420453667640686  0.5153026580810547  1.0000
  V   V4        1.0  0.34909534454345703  0.2730499505996704  0.939630389213562  1.0000
  Zr  Zr1       1.0  0.8392552137374878  0.24679291248321533  0.06465086340904236  1.0000
  Zr  Zr2       1.0  0.35215359926223755  0.7182777523994446  0.5136626958847047  1.0000
