data_image0
_chemical_formula_structural       Ga2V2Zr6
_chemical_formula_sum              "Ga2 V2 Zr6"
_cell_length_a       5.380167437892979
_cell_length_b       6.303920591554519
_cell_length_c       6.10860538482666
_cell_angle_alpha    123.38978758056001
_cell_angle_beta     90.56413308753535
_cell_angle_gamma    89.51650797928929

_space_group_name_H-M_alt    "P 1"
_space_group_IT_number       1

loop_
  _space_group_symop_operation_xyz
  'x, y, z'

loop_
  _atom_site_type_symbol
  _atom_site_label
  _atom_site_symmetry_multiplicity
  _atom_site_fract_x
  _atom_site_fract_y
  _atom_site_fract_z
  _atom_site_occupancy
  Ga  Ga1       1.0  0.5732172131538391  0.5743732452392578  0.6374384760856628  1.0000
  Ga  Ga2       1.0  0.08065690845251083  0.9065300226211548  0.7364366054534912  1.0000
  V   V1        1.0  0.06944957375526428  0.7299231886863708  0.7927888631820679  1.0000
  V   V2        1.0  0.08001928776502609  0.15207235515117645  0.14443892240524292  1.0000
  Zr  Zr1       1.0  0.5825828909873962  0.04790404438972473  0.5416122674942017  1.0000
  Zr  Zr2       1.0  0.08358985185623169  0.586406946182251  0.5503726601600647  1.0000
  Zr  Zr3       1.0  0.3387380540370941  0.5375707745552063  0.7793603539466858  1.0000
  Zr  Zr4       1.0  0.08272076398134232  0.04165007546544075  0.5405064225196838  1.0000
  Zr  Zr5       1.0  0.5770295262336731  0.24349278211593628  0.9425296187400819  1.0000
  Zr  Zr6       1.0  0.5757133960723877  0.3297387957572937  0.12966607511043549  1.0000
