data_image0
_chemical_formula_structural       AsGaV3Zn2Zr3
_chemical_formula_sum              "As1 Ga1 V3 Zn2 Zr3"
_cell_length_a       4.965494950004665
_cell_length_b       7.129438818296346
_cell_length_c       7.8820343017578125
_cell_angle_alpha    118.96480881965375
_cell_angle_beta     90.06951981694252
_cell_angle_gamma    90.19573491047822

_space_group_name_H-M_alt    "P 1"
_space_group_IT_number       1

loop_
  _space_group_symop_operation_xyz
  'x, y, z'

loop_
  _atom_site_type_symbol
  _atom_site_label
  _atom_site_symmetry_multiplicity
  _atom_site_fract_x
  _atom_site_fract_y
  _atom_site_fract_z
  _atom_site_occupancy
  As  As1       1.0  0.7048560976982117  0.4466535151004791  0.4531367421150207  1.0000
  Ga  Ga1       1.0  0.705957293510437  0.19330547749996185  0.9618056416511535  1.0000
  V   V1        1.0  0.20030537247657776  0.704559862613678  0.5957701206207274  1.0000
  V   V2        1.0  0.20610104501247406  0.47103071212768555  0.22852563858032224  1.0000
  V   V3        1.0  0.7060368061065674  0.582929790019989  0.6487334966659545  1.0000
  Zn  Zn1       1.0  0.7033955454826355  0.4651896059513092  0.21078583598136902  1.0000
  Zn  Zn2       1.0  0.20595642924308777  0.3149915337562561  0.9083049893379211  1.0000
  Zr  Zr1       1.0  0.20610293745994568  0.44373345375061035  0.6247187852859496  1.0000
  Zr  Zr2       1.0  0.7065434455871582  0.007728190161287785  0.07379106432199478  1.0000
  Zr  Zr3       1.0  0.20586414635181427  0.07467754185199738  0.525353729724884  1.0000
