data_image0
_chemical_formula_structural       H2Ir5Ni2
_chemical_formula_sum              "H2 Ir5 Ni2"
_cell_length_a       3.8657287372171822
_cell_length_b       4.692943348283646
_cell_length_c       7.097484111785889
_cell_angle_alpha    90.04579730789094
_cell_angle_beta     90.82394498318885
_cell_angle_gamma    88.47133260271124

_space_group_name_H-M_alt    "P 1"
_space_group_IT_number       1

loop_
  _space_group_symop_operation_xyz
  'x, y, z'

loop_
  _atom_site_type_symbol
  _atom_site_label
  _atom_site_symmetry_multiplicity
  _atom_site_fract_x
  _atom_site_fract_y
  _atom_site_fract_z
  _atom_site_occupancy
  H   H1        1.0  0.20142091810703278  0.5857161283493042  0.9598897099494935  1.0000
  H   H2        1.0  0.5339547991752625  0.26706627011299133  0.46075731515884405  1.0000
  Ir  Ir1       1.0  0.19640660285949707  0.5858244895935059  0.9526809453964235  1.0000
  Ir  Ir2       1.0  0.6955711841583252  0.05962711572647095  0.0975187048316002  1.0000
  Ir  Ir3       1.0  0.1926792412996292  0.90303635597229  0.7797373533248902  1.0000
  Ir  Ir4       1.0  0.19593504071235657  0.07377149164676666  0.18383833765983584  1.0000
  Ir  Ir5       1.0  0.694185197353363  0.5842708945274353  0.4558554887771607  1.0000
  Ni  Ni1       1.0  0.7198256254196167  0.06990745663642883  0.9564122557640077  1.0000
  Ni  Ni2       1.0  0.1755465865135193  0.08330855518579483  0.449671745300293  1.0000
