data_image0
_chemical_formula_structural       GeH2Ir3Ni3
_chemical_formula_sum              "Ge1 H2 Ir3 Ni3"
_cell_length_a       4.4165546369931095
_cell_length_b       5.146849207279468
_cell_length_c       7.131738185882568
_cell_angle_alpha    76.26423790058455
_cell_angle_beta     69.87916595231366
_cell_angle_gamma    63.87982883140533

_space_group_name_H-M_alt    "P 1"
_space_group_IT_number       1

loop_
  _space_group_symop_operation_xyz
  'x, y, z'

loop_
  _atom_site_type_symbol
  _atom_site_label
  _atom_site_symmetry_multiplicity
  _atom_site_fract_x
  _atom_site_fract_y
  _atom_site_fract_z
  _atom_site_occupancy
  Ge  Ge1       1.0  0.15820886194705963  0.9641379117965698  0.018657086417078972  1.0000
  H   H1        1.0  0.598277747631073  0.46950846910476685  0.5291163921356201  1.0000
  H   H2        1.0  0.488664448261261  0.967866837978363  0.6709979772567749  1.0000
  Ir  Ir1       1.0  0.11602970957756042  0.4753578007221222  0.6556618809700012  1.0000
  Ir  Ir2       1.0  0.7195026874542236  0.2326836884021759  0.5184193253517151  1.0000
  Ir  Ir3       1.0  0.07512756437063217  0.945733904838562  0.6701818108558655  1.0000
  Ni  Ni1       1.0  0.12289490550756454  0.4757806062698364  0.3936295211315155  1.0000
  Ni  Ni2       1.0  0.5853752493858337  0.9714229702949524  0.16267743706703186  1.0000
  Ni  Ni3       1.0  0.12555913627147675  0.4779914617538452  0.09795467555522919  1.0000
