data_image0
_chemical_formula_structural       HIr4Se4
_chemical_formula_sum              "H1 Ir4 Se4"
_cell_length_a       4.592169262084031
_cell_length_b       3.3971228670557543
_cell_length_c       7.617486953735352
_cell_angle_alpha    81.10061929435557
_cell_angle_beta     80.37341920920359
_cell_angle_gamma    43.79723340930609

_space_group_name_H-M_alt    "P 1"
_space_group_IT_number       1

loop_
  _space_group_symop_operation_xyz
  'x, y, z'

loop_
  _atom_site_type_symbol
  _atom_site_label
  _atom_site_symmetry_multiplicity
  _atom_site_fract_x
  _atom_site_fract_y
  _atom_site_fract_z
  _atom_site_occupancy
  H   H1        1.0  0.4854765832424164  0.6658257842063904  0.3788911700248718  1.0000
  Ir  Ir1       1.0  0.8236962556838989  0.006646194960922003  0.28575289249420166  1.0000
  Ir  Ir2       1.0  0.06576680392026901  0.16144919395446777  0.20697332918643951  1.0000
  Ir  Ir3       1.0  0.8342524766921997  0.3487301766872406  0.713495671749115  1.0000
  Ir  Ir4       1.0  0.3595668375492096  0.4975365400314331  0.9152011871337891  1.0000
  Se  Se1       1.0  0.979471743106842  0.489419162273407  0.02434830740094185  1.0000
  Se  Se2       1.0  0.8492578268051147  0.9925989508628845  0.6785082817077637  1.0000
  Se  Se3       1.0  0.5212043523788452  0.15598085522651672  0.20042410492897034  1.0000
  Se  Se4       1.0  0.4378182888031006  0.4953446388244629  0.4933498799800873  1.0000
