data_image0
_chemical_formula_structural       AlHIr7
_chemical_formula_sum              "Al1 H1 Ir7"
_cell_length_a       4.424234207369213
_cell_length_b       5.538237197983136
_cell_length_c       5.963375568389893
_cell_angle_alpha    70.11828322314683
_cell_angle_beta     64.77964119884513
_cell_angle_gamma    64.24260412817554

_space_group_name_H-M_alt    "P 1"
_space_group_IT_number       1

loop_
  _space_group_symop_operation_xyz
  'x, y, z'

loop_
  _atom_site_type_symbol
  _atom_site_label
  _atom_site_symmetry_multiplicity
  _atom_site_fract_x
  _atom_site_fract_y
  _atom_site_fract_z
  _atom_site_occupancy
  Al  Al1       1.0  0.03938738629221916  0.668475329875946  0.19342352449893951  1.0000
  H   H1        1.0  0.002918243408203125  0.9950480461120605  0.629615068435669  1.0000
  Ir  Ir1       1.0  0.5080630779266357  0.47554031014442444  0.6880096793174744  1.0000
  Ir  Ir2       1.0  0.06024077534675598  0.10251577198505402  0.46809476613998413  1.0000
  Ir  Ir3       1.0  0.08951088041067123  0.6100645065307617  0.9473207592964172  1.0000
  Ir  Ir4       1.0  0.5054275989532471  0.4653865396976471  0.1894211024045944  1.0000
  Ir  Ir5       1.0  0.5196303725242615  0.9646265506744385  0.2898334264755249  1.0000
  Ir  Ir6       1.0  0.5247881412506104  0.26903584599494934  0.20188450813293454  1.0000
  Ir  Ir7       1.0  0.43455708026885986  0.32085055112838745  0.9719915390014648  1.0000
