data_image0
_chemical_formula_structural       CeCsO4SScSe3Si
_chemical_formula_sum              "Ce1 Cs1 O4 S1 Sc1 Se3 Si1"
_cell_length_a       4.395560941186228
_cell_length_b       6.670676942725916
_cell_length_c       8.809835433959961
_cell_angle_alpha    95.07741525899576
_cell_angle_beta     90.3139885499649
_cell_angle_gamma    89.82337312521359

_space_group_name_H-M_alt    "P 1"
_space_group_IT_number       1

loop_
  _space_group_symop_operation_xyz
  'x, y, z'

loop_
  _atom_site_type_symbol
  _atom_site_label
  _atom_site_symmetry_multiplicity
  _atom_site_fract_x
  _atom_site_fract_y
  _atom_site_fract_z
  _atom_site_occupancy
  Ce  Ce1       1.0  0.7063620090484619  0.13141508400440216  0.08269955962896347  1.0000
  Cs  Cs1       1.0  0.2280038297176361  0.04196251556277275  0.41790497303009033  1.0000
  O   O1        1.0  0.8749915957450867  0.7770401835441589  0.8877420425415039  1.0000
  O   O2        1.0  0.2037990391254425  0.3414687514305115  0.44077929854393005  1.0000
  O   O3        1.0  0.3884347677230835  0.5855536460876465  0.25430503487586975  1.0000
  O   O4        1.0  0.7403833866119385  0.1464526653289795  0.34625542163848877  1.0000
  S   S1        1.0  0.17759975790977478  0.3317614197731018  0.1790371537208557  1.0000
  Sc  Sc1       1.0  0.7138126492500305  0.376620352268219  0.464777410030365  1.0000
  Se  Se1       1.0  0.7168029546737671  0.752360463142395  0.46883624792099  1.0000
  Se  Se2       1.0  0.25236767530441284  0.6358790397644043  0.36803770065307617  1.0000
  Se  Se3       1.0  0.687577486038208  0.8403737545013428  0.10262105613946915  1.0000
  Si  Si1       1.0  0.1626579314470291  0.3084093928337097  0.2501281201839447  1.0000
