data_image0
_chemical_formula_structural       Ce2OSSc4Se3Si
_chemical_formula_sum              "Ce2 O1 S1 Sc4 Se3 Si1"
_cell_length_a       4.37581055625811
_cell_length_b       7.37319077822164
_cell_length_c       9.670488357543945
_cell_angle_alpha    99.77321662929391
_cell_angle_beta     95.44145035192564
_cell_angle_gamma    88.85538671955752

_space_group_name_H-M_alt    "P 1"
_space_group_IT_number       1

loop_
  _space_group_symop_operation_xyz
  'x, y, z'

loop_
  _atom_site_type_symbol
  _atom_site_label
  _atom_site_symmetry_multiplicity
  _atom_site_fract_x
  _atom_site_fract_y
  _atom_site_fract_z
  _atom_site_occupancy
  Ce  Ce1       1.0  0.5173781514167786  0.47045749425888056  0.13967449963092804  1.0000
  Ce  Ce2       1.0  0.011775786057114601  0.022572698071599007  0.21332263946533203  1.0000
  O   O1        1.0  0.5466725826263428  0.5192533731460571  0.9598714113235474  1.0000
  S   S1        1.0  0.0027126073837280273  0.5205982327461243  0.9865212440490723  1.0000
  Sc  Sc1       1.0  0.015469127334654331  0.09995130449533463  0.5445069670677185  1.0000
  Sc  Sc2       1.0  0.014938215725123882  0.8128425478935242  0.6627546548843384  1.0000
  Sc  Sc3       1.0  0.9989046454429626  0.6728649735450745  0.24131937325000763  1.0000
  Sc  Sc4       1.0  0.01877763494849205  0.765038788318634  0.3806329369544983  1.0000
  Se  Se1       1.0  0.5006593465805054  0.9340693950653075  0.5373926758766174  1.0000
  Se  Se2       1.0  0.016530374065041542  0.5165010690689087  0.02190217003226279  1.0000
  Se  Se3       1.0  0.4997905492782593  0.03202078491449356  0.05012527480721474  1.0000
  Si  Si1       1.0  0.5183670520782471  0.4300450384616851  0.8861322402954102  1.0000
