data_image0
_chemical_formula_structural       Ce3HMnO4S2Sm
_chemical_formula_sum              "Ce3 H1 Mn1 O4 S2 Sm1"
_cell_length_a       4.188052681924843
_cell_length_b       6.260586326388859
_cell_length_c       8.269782066345215
_cell_angle_alpha    103.42559236389297
_cell_angle_beta     87.47772509766955
_cell_angle_gamma    88.5660825984123

_space_group_name_H-M_alt    "P 1"
_space_group_IT_number       1

loop_
  _space_group_symop_operation_xyz
  'x, y, z'

loop_
  _atom_site_type_symbol
  _atom_site_label
  _atom_site_symmetry_multiplicity
  _atom_site_fract_x
  _atom_site_fract_y
  _atom_site_fract_z
  _atom_site_occupancy
  Ce  Ce1       1.0  0.9208752512931824  0.560989260673523  0.15791231393814087  1.0000
  Ce  Ce2       1.0  0.4251300096511841  0.547893226146698  0.13389429450035095  1.0000
  Ce  Ce3       1.0  0.43089982867240906  0.5638412237167358  0.407480388879776  1.0000
  H   H1        1.0  0.4150942862033844  0.6092768311500549  0.9490408301353455  1.0000
  Mn  Mn1       1.0  0.9246166348457336  0.2623506188392639  0.7907494902610779  1.0000
  O   O1        1.0  0.9189929962158203  0.30941927433013916  0.597939133644104  1.0000
  O   O2        1.0  0.9350414276123047  0.27351242303848267  0.22446556389331818  1.0000
  O   O3        1.0  0.4420447051525116  0.2296837568283081  0.8480811715126038  1.0000
  O   O4        1.0  0.9265851974487305  0.6147739887237549  0.35249996185302734  1.0000
  S   S1        1.0  0.4303567409515381  0.6233714818954468  0.10728856921195984  1.0000
  S   S2        1.0  0.9230077862739563  0.5603214502334595  0.2122187316417694  1.0000
  Sm  Sm1       1.0  0.4243374168872833  0.08245551586151123  0.4741232991218567  1.0000
