data_image0
_chemical_formula_structural       Ce5CrH2O2SSe
_chemical_formula_sum              "Ce5 Cr1 H2 O2 S1 Se1"
_cell_length_a       4.757449028868874
_cell_length_b       7.6549571423575005
_cell_length_c       7.477827548980713
_cell_angle_alpha    116.19681513153611
_cell_angle_beta     90.0666272748364
_cell_angle_gamma    88.68484345955152

_space_group_name_H-M_alt    "P 1"
_space_group_IT_number       1

loop_
  _space_group_symop_operation_xyz
  'x, y, z'

loop_
  _atom_site_type_symbol
  _atom_site_label
  _atom_site_symmetry_multiplicity
  _atom_site_fract_x
  _atom_site_fract_y
  _atom_site_fract_z
  _atom_site_occupancy
  Ce  Ce1       1.0  0.023810379207134247  0.5947431325912476  0.3787918388843537  1.0000
  Ce  Ce2       1.0  0.05134747177362442  0.4478501081466674  0.06638122349977493  1.0000
  Ce  Ce3       1.0  0.29130634665489197  0.39296880364418024  0.6259477734565736  1.0000
  Ce  Ce4       1.0  0.5926588773727417  0.6408790349960326  0.8621973395347596  1.0000
  Ce  Ce5       1.0  0.07310203462839127  0.9718850255012511  0.043946858495473806  1.0000
  Cr  Cr1       1.0  0.10078096389770508  0.67004656791687  0.5847654938697815  1.0000
  H   H1        1.0  0.6223745942115784  0.6029354333877563  0.04399384558200837  1.0000
  H   H2        1.0  0.994757890701294  0.8951392769813536  0.9759361147880555  1.0000
  O   O1        1.0  0.5729860067367554  0.1666406840085983  0.7099782824516297  1.0000
  O   O2        1.0  0.11189956963062286  0.6680761575698851  0.7033435702323915  1.0000
  S   S1        1.0  0.5704519152641296  0.9466038346290587  0.5825029611587524  1.0000
  Se  Se1       1.0  0.6288662552833557  0.3832827806472778  0.5278189778327942  1.0000
