data_image0
_chemical_formula_structural       Ce6HO3SSe
_chemical_formula_sum              "Ce6 H1 O3 S1 Se1"
_cell_length_a       5.043982782897415
_cell_length_b       8.085614282060494
_cell_length_c       8.457164764404297
_cell_angle_alpha    122.9234934734003
_cell_angle_beta     86.08435202271542
_cell_angle_gamma    92.0293029860737

_space_group_name_H-M_alt    "P 1"
_space_group_IT_number       1

loop_
  _space_group_symop_operation_xyz
  'x, y, z'

loop_
  _atom_site_type_symbol
  _atom_site_label
  _atom_site_symmetry_multiplicity
  _atom_site_fract_x
  _atom_site_fract_y
  _atom_site_fract_z
  _atom_site_occupancy
  Ce  Ce1       1.0  0.19789835810661316  0.28571251034736633  0.6925706267356873  1.0000
  Ce  Ce2       1.0  0.5876754522323608  0.9539591073989867  0.8608323335647583  1.0000
  Ce  Ce3       1.0  0.7141841053962708  0.7114380598068237  0.7551687359809875  1.0000
  Ce  Ce4       1.0  0.7300238013267517  0.482867419719696  0.8143749237060547  1.0000
  Ce  Ce5       1.0  0.9877876043319701  0.9158724546432494  0.3380073308944702  1.0000
  Ce  Ce6       1.0  0.2310424894094467  0.1298341155052185  0.043038979172706604  1.0000
  H   H1        1.0  0.7048139572143555  0.42426627874374384  0.9406394958496094  1.0000
  O   O1        1.0  0.2612343728542328  0.3831457793712616  0.8211406469345093  1.0000
  O   O2        1.0  0.745984673500061  0.6247347593307495  0.07020778208971024  1.0000
  O   O3        1.0  0.24203178286552426  0.8403985500335692  0.13140863180160528  1.0000
  S   S1        1.0  0.24296379089355466  0.5381016135215759  0.37924113869667053  1.0000
  Se  Se1       1.0  0.24080716073513028  0.06905344128608704  0.9473217129707336  1.0000
