data_image0
_chemical_formula_structural       H2MnO4S2ScSe2
_chemical_formula_sum              "H2 Mn1 O4 S2 Sc1 Se2"
_cell_length_a       3.96577590477588
_cell_length_b       6.126481964768913
_cell_length_c       9.679916381835938
_cell_angle_alpha    94.85211443723547
_cell_angle_beta     90.11710130442324
_cell_angle_gamma    88.58224195264427

_space_group_name_H-M_alt    "P 1"
_space_group_IT_number       1

loop_
  _space_group_symop_operation_xyz
  'x, y, z'

loop_
  _atom_site_type_symbol
  _atom_site_label
  _atom_site_symmetry_multiplicity
  _atom_site_fract_x
  _atom_site_fract_y
  _atom_site_fract_z
  _atom_site_occupancy
  H   H1        1.0  0.9884963631629945  0.5730282664299011  0.9909845590591432  1.0000
  H   H2        1.0  0.9941239953041078  0.024974415078759193  0.02522006258368492  1.0000
  Mn  Mn1       1.0  0.48793059587478643  0.7486048936843872  0.10553928464651108  1.0000
  O   O1        1.0  0.9910766482353212  0.8413919806480408  0.5188938975334167  1.0000
  O   O2        1.0  0.4855101108551026  0.028184838593006138  0.20802859961986542  1.0000
  O   O3        1.0  0.4861769378185273  0.4586735367774964  0.8155704140663147  1.0000
  O   O4        1.0  0.4903613924980164  0.1417441964149475  0.3997129797935486  1.0000
  S   S1        1.0  0.9801859855651857  0.10530805587768556  0.40744706988334656  1.0000
  S   S2        1.0  0.9946100115776063  0.24470424652099612  0.9054532051086427  1.0000
  Sc  Sc1       1.0  0.5112491846084595  0.38629356026649475  0.5170313715934753  1.0000
  Se  Se1       1.0  0.5106040835380554  0.5628023743629456  0.5388054251670837  1.0000
  Se  Se2       1.0  0.0031390567310154442  0.8393506407737732  0.3129923343658448  1.0000
