data_image0
_chemical_formula_structural       Ge2H2LiU
_chemical_formula_sum              "Ge2 H2 Li1 U1"
_cell_length_a       4.048238668721708
_cell_length_b       4.016534539068214
_cell_length_c       7.842499256134033
_cell_angle_alpha    74.84611093322462
_cell_angle_beta     74.89299810474373
_cell_angle_gamma    59.69699046944935

_space_group_name_H-M_alt    "P 1"
_space_group_IT_number       1

loop_
  _space_group_symop_operation_xyz
  'x, y, z'

loop_
  _atom_site_type_symbol
  _atom_site_label
  _atom_site_symmetry_multiplicity
  _atom_site_fract_x
  _atom_site_fract_y
  _atom_site_fract_z
  _atom_site_occupancy
  Ge  Ge1       1.0  0.4007985293865204  0.3473779261112213  0.0408981293439865  1.0000
  Ge  Ge2       1.0  0.22575660049915314  0.16403596103191376  0.5786860585212708  1.0000
  H   H1        1.0  0.8918947577476501  0.8286211490631104  0.5782403349876404  1.0000
  H   H2        1.0  0.6299293041229248  0.574898362159729  0.381330668926239  1.0000
  Li  Li1       1.0  0.794325053691864  0.7465744614601135  0.8600975275039673  1.0000
  U   U1        1.0  0.9944407343864441  0.9367101192474365  0.27896031737327576  1.0000
