data_image0
_chemical_formula_structural       GdGe2KTeY
_chemical_formula_sum              "Gd1 Ge2 K1 Te1 Y1"
_cell_length_a       4.5599232280349105
_cell_length_b       4.564088290818363
_cell_length_c       10.948238372802734
_cell_angle_alpha    78.0075971971657
_cell_angle_beta     77.973434602264
_cell_angle_gamma    60.232572366984854

_space_group_name_H-M_alt    "P 1"
_space_group_IT_number       1

loop_
  _space_group_symop_operation_xyz
  'x, y, z'

loop_
  _atom_site_type_symbol
  _atom_site_label
  _atom_site_symmetry_multiplicity
  _atom_site_fract_x
  _atom_site_fract_y
  _atom_site_fract_z
  _atom_site_occupancy
  Gd  Gd1       1.0  0.4181825518608093  0.05930240824818611  0.05123548582196235  1.0000
  Ge  Ge1       1.0  0.5946930050849915  0.24664358794689178  0.4873606562614441  1.0000
  Ge  Ge2       1.0  0.6820690035820007  0.3229652941226959  0.23140528798103333  1.0000
  K   K1        1.0  0.868331789970398  0.5107638239860535  0.7028253078460693  1.0000
  Te  Te1       1.0  0.1309501975774765  0.7687340974807739  0.913253128528595  1.0000
  Y   Y1        1.0  0.2995699346065521  0.9366818070411682  0.39113399386405945  1.0000
