data_image0
_chemical_formula_structural       F2FeLaPPr
_chemical_formula_sum              "F2 Fe1 La1 P1 Pr1"
_cell_length_a       3.938339058683822
_cell_length_b       3.9210345820244803
_cell_length_c       9.072772026062012
_cell_angle_alpha    90.17176570835038
_cell_angle_beta     89.98969461298907
_cell_angle_gamma    119.94492353256146

_space_group_name_H-M_alt    "P 1"
_space_group_IT_number       1

loop_
  _space_group_symop_operation_xyz
  'x, y, z'

loop_
  _atom_site_type_symbol
  _atom_site_label
  _atom_site_symmetry_multiplicity
  _atom_site_fract_x
  _atom_site_fract_y
  _atom_site_fract_z
  _atom_site_occupancy
  F   F1        1.0  0.3764267861843109  0.15918336808681488  0.185034915804863  1.0000
  F   F2        1.0  0.37612617015838623  0.15779419243335724  0.4739730954170228  1.0000
  Fe  Fe1       1.0  0.04132035747170448  0.49088066816329956  0.07469949871301651  1.0000
  La  La1       1.0  0.7110377550125122  0.8229104280471802  0.3441164791584015  1.0000
  P   P1        1.0  0.7104203104972839  0.8229896426200867  0.9620394706726076  1.0000
  Pr  Pr1       1.0  0.37748050689697266  0.15672127902507782  0.7517576217651368  1.0000
