data_image0
_chemical_formula_structural       Fe2Pu4
_chemical_formula_sum              "Fe2 Pu4"
_cell_length_a       4.489828453938877
_cell_length_b       5.760892637812147
_cell_length_c       5.774018287658691
_cell_angle_alpha    76.02696239746813
_cell_angle_beta     67.20933446095235
_cell_angle_gamma    67.23816136304072

_space_group_name_H-M_alt    "P 1"
_space_group_IT_number       1

loop_
  _space_group_symop_operation_xyz
  'x, y, z'

loop_
  _atom_site_type_symbol
  _atom_site_label
  _atom_site_symmetry_multiplicity
  _atom_site_fract_x
  _atom_site_fract_y
  _atom_site_fract_z
  _atom_site_occupancy
  Fe  Fe1       1.0  0.8289579153060913  0.5167955756187439  0.5993807911872864  1.0000
  Fe  Fe2       1.0  0.523727536201477  0.7826390862464905  0.9254102110862732  1.0000
  Pu  Pu1       1.0  0.8237365484237671  0.11365718394517899  0.9928207397460938  1.0000
  Pu  Pu2       1.0  0.07822064310312271  0.5061463117599487  0.09308323264122009  1.0000
  Pu  Pu3       1.0  0.23268060386180878  0.8385419845581055  0.44781115651130676  1.0000
  Pu  Pu4       1.0  0.4936687648296356  0.19532129168510437  0.5833606719970703  1.0000
