data_image0
_chemical_formula_structural       La5Lu2S3
_chemical_formula_sum              "La5 Lu2 S3"
_cell_length_a       4.712686685927171
_cell_length_b       8.391845459889561
_cell_length_c       8.597210884094238
_cell_angle_alpha    120.31872615734667
_cell_angle_beta     98.13497662071696
_cell_angle_gamma    85.41371936715373

_space_group_name_H-M_alt    "P 1"
_space_group_IT_number       1

loop_
  _space_group_symop_operation_xyz
  'x, y, z'

loop_
  _atom_site_type_symbol
  _atom_site_label
  _atom_site_symmetry_multiplicity
  _atom_site_fract_x
  _atom_site_fract_y
  _atom_site_fract_z
  _atom_site_occupancy
  La  La1       1.0  0.7346411943435669  0.7828060388565063  0.44871753454208374  1.0000
  La  La2       1.0  0.24877613782882693  0.8337033987045288  0.43758225440979004  1.0000
  La  La3       1.0  0.21698309481143951  0.6927439570426941  0.5924990177154541  1.0000
  La  La4       1.0  0.6833046674728394  0.23338843882083893  0.9465607404708862  1.0000
  La  La5       1.0  0.725102961063385  0.14382828772068024  0.42663294076919556  1.0000
  Lu  Lu1       1.0  0.2040311098098755  0.5572643876075745  0.2899903953075409  1.0000
  Lu  Lu2       1.0  0.6926251649856567  0.21988414227962494  0.3888523280620575  1.0000
  S   S1        1.0  0.22509773075580597  0.3150067925453186  0.50884610414505  1.0000
  S   S2        1.0  0.25527334213256836  0.4720175266265869  0.8773095011711121  1.0000
  S   S3        1.0  0.936583399772644  0.02210221439599991  0.9570329189300537  1.0000
