data_image0
_chemical_formula_structural       La6LuS3
_chemical_formula_sum              "La6 Lu1 S3"
_cell_length_a       5.293876004527036
_cell_length_b       7.5759847936818545
_cell_length_c       8.990452766418457
_cell_angle_alpha    110.6330540757686
_cell_angle_beta     105.4224027775579
_cell_angle_gamma    85.62150042629719

_space_group_name_H-M_alt    "P 1"
_space_group_IT_number       1

loop_
  _space_group_symop_operation_xyz
  'x, y, z'

loop_
  _atom_site_type_symbol
  _atom_site_label
  _atom_site_symmetry_multiplicity
  _atom_site_fract_x
  _atom_site_fract_y
  _atom_site_fract_z
  _atom_site_occupancy
  La  La1       1.0  0.6714624166488647  0.5295630693435669  0.657555103302002  1.0000
  La  La2       1.0  0.11269468069076538  0.32355073094367975  0.21933619678020475  1.0000
  La  La3       1.0  0.19472560286521912  0.23177628219127652  0.5881058573722839  1.0000
  La  La4       1.0  0.08977058529853821  0.314878761768341  0.1867530792951584  1.0000
  La  La5       1.0  0.5768547058105469  0.12958240509033203  0.08962582051753995  1.0000
  La  La6       1.0  0.5960182547569275  0.9874008893966674  0.28863427042961115  1.0000
  Lu  Lu1       1.0  0.4073350131511688  0.8675333261489867  0.4584304690361023  1.0000
  S   S1        1.0  0.21515098214149475  0.8098692893981932  0.055462636053562116  1.0000
  S   S2        1.0  0.41220909357070923  0.8754895329475402  0.4638247787952422  1.0000
  S   S3        1.0  0.8496986031532288  0.7102079987525939  0.7252793312072754  1.0000
