data_image0
_chemical_formula_structural       La5Lu2S3
_chemical_formula_sum              "La5 Lu2 S3"
_cell_length_a       5.490953463046667
_cell_length_b       7.964252990105011
_cell_length_c       8.865677833557129
_cell_angle_alpha    117.3275914234566
_cell_angle_beta     109.21035636051684
_cell_angle_gamma    85.90898599001558

_space_group_name_H-M_alt    "P 1"
_space_group_IT_number       1

loop_
  _space_group_symop_operation_xyz
  'x, y, z'

loop_
  _atom_site_type_symbol
  _atom_site_label
  _atom_site_symmetry_multiplicity
  _atom_site_fract_x
  _atom_site_fract_y
  _atom_site_fract_z
  _atom_site_occupancy
  La  La1       1.0  0.18427562713623047  0.6874511241912843  0.6145443320274353  1.0000
  La  La2       1.0  0.6883737444877625  0.18275715410709384  0.6036794781684875  1.0000
  La  La3       1.0  0.7771568298339844  0.8454389572143556  0.38715237379074097  1.0000
  La  La4       1.0  0.6879555583000183  0.5658344030380249  0.6573563814163208  1.0000
  La  La5       1.0  0.12419335544109344  0.1640248149633408  0.5225155353546143  1.0000
  Lu  Lu1       1.0  0.2863479256629944  0.2639395296573639  0.8705759048461914  1.0000
  Lu  Lu2       1.0  0.4587189555168152  0.5710567831993103  0.2654146552085877  1.0000
  S   S1        1.0  0.5918475985527039  0.008783010765910149  0.41350385546684265  1.0000
  S   S2        1.0  0.09735815227031708  0.5111209750175476  0.47721216082572937  1.0000
  S   S3        1.0  0.3976537585258484  0.8345255255699159  0.22611543536186224  1.0000
