data_image0
_chemical_formula_structural       CuLa6S3
_chemical_formula_sum              "Cu1 La6 S3"
_cell_length_a       4.8514996431182205
_cell_length_b       7.370687479445537
_cell_length_c       7.725497722625732
_cell_angle_alpha    120.04952888677181
_cell_angle_beta     116.78219164814374
_cell_angle_gamma    87.23949623146596

_space_group_name_H-M_alt    "P 1"
_space_group_IT_number       1

loop_
  _space_group_symop_operation_xyz
  'x, y, z'

loop_
  _atom_site_type_symbol
  _atom_site_label
  _atom_site_symmetry_multiplicity
  _atom_site_fract_x
  _atom_site_fract_y
  _atom_site_fract_z
  _atom_site_occupancy
  Cu  Cu1       1.0  0.7384096384048462  0.915444016456604  0.16600479185581207  1.0000
  La  La1       1.0  0.17826393246650696  0.7031086683273315  0.3839624226093292  1.0000
  La  La2       1.0  0.2438560277223587  0.2718192934989929  0.9346581697463989  1.0000
  La  La3       1.0  0.7389742136001587  0.2732478678226471  0.1342996060848236  1.0000
  La  La4       1.0  0.8063244819641113  0.9335439801216125  0.018474210053682327  1.0000
  La  La5       1.0  0.7237367033958435  0.736906886100769  0.2610265016555786  1.0000
  La  La6       1.0  0.6277483701705933  0.14105139672756195  0.6217042803764343  1.0000
  S   S1        1.0  0.4855198860168457  0.9731227159500122  0.3891507089138031  1.0000
  S   S2        1.0  0.24156643450260162  0.7232784032821655  0.1403484046459198  1.0000
  S   S3        1.0  0.9773721098899841  0.4447542726993561  0.36413341760635376  1.0000
