data_image0
_chemical_formula_structural       CuLa6S3
_chemical_formula_sum              "Cu1 La6 S3"
_cell_length_a       5.0901611232497395
_cell_length_b       7.018429147865355
_cell_length_c       8.087498664855957
_cell_angle_alpha    115.97722751371066
_cell_angle_beta     110.99531394344761
_cell_angle_gamma    80.5651576288618

_space_group_name_H-M_alt    "P 1"
_space_group_IT_number       1

loop_
  _space_group_symop_operation_xyz
  'x, y, z'

loop_
  _atom_site_type_symbol
  _atom_site_label
  _atom_site_symmetry_multiplicity
  _atom_site_fract_x
  _atom_site_fract_y
  _atom_site_fract_z
  _atom_site_occupancy
  Cu  Cu1       1.0  0.1477331519126892  0.14894789457321167  0.7673657536506653  1.0000
  La  La1       1.0  0.36616814136505127  0.000839080719742924  0.26934418082237244  1.0000
  La  La2       1.0  0.9127461314201355  0.46264174580574036  0.8517187237739563  1.0000
  La  La3       1.0  0.9507771730422974  0.4589306116104126  0.4684687852859497  1.0000
  La  La4       1.0  0.47186166048049927  0.8254511952400208  0.4880246222019196  1.0000
  La  La5       1.0  0.4925536513328552  0.3307913541793823  0.4158385992050171  1.0000
  La  La6       1.0  0.43821093440055847  0.11506961286067963  0.337157279253006  1.0000
  S   S1        1.0  0.9737077951431274  0.21550916135311127  0.4874027371406555  1.0000
  S   S2        1.0  0.4304139316082001  0.7752829790115356  0.23284704983234406  1.0000
  S   S3        1.0  0.8777179718017578  0.6774041056632996  0.11880103498697281  1.0000
