data_image0
_chemical_formula_structural       La6S4
_chemical_formula_sum              "La6 S4"
_cell_length_a       5.987617460655935
_cell_length_b       8.239620603479564
_cell_length_c       8.76245403289795
_cell_angle_alpha    117.00771150360313
_cell_angle_beta     113.97053608811011
_cell_angle_gamma    87.15443265985853

_space_group_name_H-M_alt    "P 1"
_space_group_IT_number       1

loop_
  _space_group_symop_operation_xyz
  'x, y, z'

loop_
  _atom_site_type_symbol
  _atom_site_label
  _atom_site_symmetry_multiplicity
  _atom_site_fract_x
  _atom_site_fract_y
  _atom_site_fract_z
  _atom_site_occupancy
  La  La1       1.0  0.29617220163345337  0.761578142642975  0.9538151621818542  1.0000
  La  La2       1.0  0.2144294083118439  0.8339776992797853  0.15183557569980627  1.0000
  La  La3       1.0  0.5510973334312439  0.2724766433238983  0.3962612748146057  1.0000
  La  La4       1.0  0.22808653116226196  0.08998967707157136  0.5718512535095215  1.0000
  La  La5       1.0  0.633889377117157  0.4991771578788758  0.03610202670097351  1.0000
  La  La6       1.0  0.006308197975158691  0.28589653968811035  0.3936905562877655  1.0000
  S   S1        1.0  0.6123965382575989  0.2703567445278168  0.455136775970459  1.0000
  S   S2        1.0  0.8547965288162231  0.9569955468177797  0.8472817540168762  1.0000
  S   S3        1.0  0.6280369758605957  0.516825258731842  0.8890854120254517  1.0000
  S   S4        1.0  0.08948919177055359  0.555871844291687  0.890944242477417  1.0000
