data_image0
_chemical_formula_structural       LuMgPbZn3Zr
_chemical_formula_sum              "Lu1 Mg1 Pb1 Zn3 Zr1"
_cell_length_a       4.396494373468508
_cell_length_b       4.646474406298007
_cell_length_c       7.994722366333008
_cell_angle_alpha    91.2411917475094
_cell_angle_beta     89.90026642780084
_cell_angle_gamma    108.99243388869056

_space_group_name_H-M_alt    "P 1"
_space_group_IT_number       1

loop_
  _space_group_symop_operation_xyz
  'x, y, z'

loop_
  _atom_site_type_symbol
  _atom_site_label
  _atom_site_symmetry_multiplicity
  _atom_site_fract_x
  _atom_site_fract_y
  _atom_site_fract_z
  _atom_site_occupancy
  Lu  Lu1       1.0  0.2310180813074112  0.7961804866790771  0.5547224879264832  1.0000
  Mg  Mg1       1.0  0.7249911427497864  0.13329987227916718  0.686006188392639  1.0000
  Pb  Pb1       1.0  0.7070562839508057  0.7826379537582397  0.9737221002578734  1.0000
  Zn  Zn1       1.0  0.6868787407875061  0.6292675137519836  0.3487784266471862  1.0000
  Zn  Zn2       1.0  0.22934100031852722  0.5335873365402222  0.2844111919403076  1.0000
  Zn  Zn3       1.0  0.3457506597042084  0.1824895739555359  0.10461631417274474  1.0000
  Zr  Zr1       1.0  0.7139171957969666  0.7243345379829407  0.8903667330741881  1.0000
