data_image0
_chemical_formula_structural       BBi2LaSY2Yb
_chemical_formula_sum              "B1 Bi2 La1 S1 Y2 Yb1"
_cell_length_a       4.244083034359978
_cell_length_b       4.280112954840538
_cell_length_c       8.189204216003418
_cell_angle_alpha    95.72199409153372
_cell_angle_beta     90.39003253728612
_cell_angle_gamma    144.52007599772378

_space_group_name_H-M_alt    "P 1"
_space_group_IT_number       1

loop_
  _space_group_symop_operation_xyz
  'x, y, z'

loop_
  _atom_site_type_symbol
  _atom_site_label
  _atom_site_symmetry_multiplicity
  _atom_site_fract_x
  _atom_site_fract_y
  _atom_site_fract_z
  _atom_site_occupancy
  B   B1        1.0  0.2940230071544647  0.7072160840034485  0.8428178429603577  1.0000
  Bi  Bi1       1.0  0.5854429602622986  0.3542098104953766  0.7924432754516602  1.0000
  Bi  Bi2       1.0  0.9875615835189819  0.4829053580760955  0.8345934748649597  1.0000
  La  La1       1.0  0.09660963714122772  0.8515542149543762  0.5656343102455139  1.0000
  S   S1        1.0  0.7516159415245055  0.9815291166305541  0.23253287374973297  1.0000
  Y   Y1        1.0  0.7140955328941345  0.4908307492733001  0.7127087712287903  1.0000
  Y   Y2        1.0  0.4098567068576813  0.526005744934082  0.3522184491157532  1.0000
  Yb  Yb1       1.0  0.3154521584510803  0.011161037720739841  0.31033560633659363  1.0000
