data_image0
_chemical_formula_structural       Bi2HLaY2Yb2
_chemical_formula_sum              "Bi2 H1 La1 Y2 Yb2"
_cell_length_a       4.328631099173437
_cell_length_b       7.390027182623747
_cell_length_c       7.7115654945373535
_cell_angle_alpha    119.05824277672137
_cell_angle_beta     89.59448034486618
_cell_angle_gamma    90.27733292058869

_space_group_name_H-M_alt    "P 1"
_space_group_IT_number       1

loop_
  _space_group_symop_operation_xyz
  'x, y, z'

loop_
  _atom_site_type_symbol
  _atom_site_label
  _atom_site_symmetry_multiplicity
  _atom_site_fract_x
  _atom_site_fract_y
  _atom_site_fract_z
  _atom_site_occupancy
  Bi  Bi1       1.0  0.6375337839126587  0.7543337941169739  0.20785261690616616  1.0000
  Bi  Bi2       1.0  0.6388304233551025  0.07875847816467285  0.8599610328674318  1.0000
  H   H1        1.0  0.6301153302192688  0.49726516008377075  0.08200048655271537  1.0000
  La  La1       1.0  0.13896533846855164  0.7867234349250793  0.5748949050903321  1.0000
  Y   Y1        1.0  0.638529360294342  0.8538119196891785  0.32115092873573314  1.0000
  Y   Y2        1.0  0.13885457813739777  0.5184561610221863  0.5412601232528688  1.0000
  Yb  Yb1       1.0  0.1326485276222229  0.010327350348234177  0.30913579463958746  1.0000
  Yb  Yb2       1.0  0.6381915807723999  0.32179585099220276  0.8209437727928163  1.0000
