data_image0
_chemical_formula_structural       AgBBiOsY3Yb
_chemical_formula_sum              "Ag1 B1 Bi1 Os1 Y3 Yb1"
_cell_length_a       3.794264020868462
_cell_length_b       6.954754614863111
_cell_length_c       7.9488844871521
_cell_angle_alpha    106.36430632679873
_cell_angle_beta     97.76309619861274
_cell_angle_gamma    88.69355974766566

_space_group_name_H-M_alt    "P 1"
_space_group_IT_number       1

loop_
  _space_group_symop_operation_xyz
  'x, y, z'

loop_
  _atom_site_type_symbol
  _atom_site_label
  _atom_site_symmetry_multiplicity
  _atom_site_fract_x
  _atom_site_fract_y
  _atom_site_fract_z
  _atom_site_occupancy
  Ag  Ag1       1.0  0.7687200903892517  0.8895953297615051  0.5181964635848999  1.0000
  B   B1        1.0  0.2900361716747284  0.8558282256126404  0.24095574021339417  1.0000
  Bi  Bi1       1.0  0.26029956340789795  0.37981247901916504  0.11038538813591002  1.0000
  Os  Os1       1.0  0.282031774520874  0.17497913539409637  0.5842235088348389  1.0000
  Y   Y1        1.0  0.7704020738601685  0.8321635127067566  0.9063844084739684  1.0000
  Y   Y2        1.0  0.3119540512561798  0.3793618977069855  0.2994527220726013  1.0000
  Y   Y3        1.0  0.8543316721916198  0.54556804895401  0.3084116280078888  1.0000
  Yb  Yb1       1.0  0.8000770211219786  0.9733783006668091  0.40315374732017517  1.0000
