data_image0
_chemical_formula_structural       AgAsBi4YYb
_chemical_formula_sum              "Ag1 As1 Bi4 Y1 Yb1"
_cell_length_a       3.9221240993352398
_cell_length_b       7.817311829406113
_cell_length_c       6.985143184661865
_cell_angle_alpha    120.62272487967958
_cell_angle_beta     87.7431796291591
_cell_angle_gamma    95.8743840980323

_space_group_name_H-M_alt    "P 1"
_space_group_IT_number       1

loop_
  _space_group_symop_operation_xyz
  'x, y, z'

loop_
  _atom_site_type_symbol
  _atom_site_label
  _atom_site_symmetry_multiplicity
  _atom_site_fract_x
  _atom_site_fract_y
  _atom_site_fract_z
  _atom_site_occupancy
  Ag  Ag1       1.0  0.6382302641868592  0.9799153804779054  0.4073877036571503  1.0000
  As  As1       1.0  0.6690882444381715  0.3188484311103821  0.15984135866165164  1.0000
  Bi  Bi1       1.0  0.6452948451042176  0.0005190728115849197  0.8912068605422974  1.0000
  Bi  Bi2       1.0  0.6641555428504945  0.2873351275920868  0.5516946911811829  1.0000
  Bi  Bi3       1.0  0.14382848143577578  0.665216863155365  0.19566717743873602  1.0000
  Bi  Bi4       1.0  0.14507134258747104  0.6192007064819336  0.0655589327216149  1.0000
  Y   Y1        1.0  0.6561977267265321  0.4854556024074555  0.39929524064064026  1.0000
  Yb  Yb1       1.0  0.14249068498611453  0.34971415996551514  0.6299431324005127  1.0000
