data_image0
_chemical_formula_structural       Bi2GePrYYb2Zr
_chemical_formula_sum              "Bi2 Ge1 Pr1 Y1 Yb2 Zr1"
_cell_length_a       4.391605349016812
_cell_length_b       5.376187230965177
_cell_length_c       7.582850456237793
_cell_angle_alpha    145.78468479622904
_cell_angle_beta     98.6653921334351
_cell_angle_gamma    74.58690429480451

_space_group_name_H-M_alt    "P 1"
_space_group_IT_number       1

loop_
  _space_group_symop_operation_xyz
  'x, y, z'

loop_
  _atom_site_type_symbol
  _atom_site_label
  _atom_site_symmetry_multiplicity
  _atom_site_fract_x
  _atom_site_fract_y
  _atom_site_fract_z
  _atom_site_occupancy
  Bi  Bi1       1.0  0.7613183259963989  0.8830036520957947  0.08190612494945529  1.0000
  Bi  Bi2       1.0  0.2620561420917511  0.3688722252845763  0.40993434190750117  1.0000
  Ge  Ge1       1.0  0.7518510818481445  0.5366209149360657  0.21759516000747678  1.0000
  Pr  Pr1       1.0  0.2709924280643463  0.1743478029966354  0.7192137837409973  1.0000
  Y   Y1        1.0  0.7544577717781067  0.6901594996452332  0.1237573027610779  1.0000
  Yb  Yb1       1.0  0.26894891262054443  0.6997829079627991  0.649792492389679  1.0000
  Yb  Yb2       1.0  0.2700367271900177  0.6969412565231323  0.9943711757659912  1.0000
  Zr  Zr1       1.0  0.2605535387992859  0.46014258265495295  0.5582000613212585  1.0000
