data_image0
_chemical_formula_structural       GeLaY5Yb
_chemical_formula_sum              "Ge1 La1 Y5 Yb1"
_cell_length_a       4.529672879544584
_cell_length_b       7.914122461532801
_cell_length_c       7.77086877822876
_cell_angle_alpha    119.74009078600201
_cell_angle_beta     90.12754998822308
_cell_angle_gamma    87.39949348504103

_space_group_name_H-M_alt    "P 1"
_space_group_IT_number       1

loop_
  _space_group_symop_operation_xyz
  'x, y, z'

loop_
  _atom_site_type_symbol
  _atom_site_label
  _atom_site_symmetry_multiplicity
  _atom_site_fract_x
  _atom_site_fract_y
  _atom_site_fract_z
  _atom_site_occupancy
  Ge  Ge1       1.0  0.785243570804596  0.5028364658355713  0.9953882098197937  1.0000
  La  La1       1.0  0.2877189517021179  0.576280951499939  0.6286692023277283  1.0000
  Y   Y1        1.0  0.7777729034423828  0.5714090466499329  0.9404204487800598  1.0000
  Y   Y2        1.0  0.2896242141723633  0.7755613327026367  0.7671481370925903  1.0000
  Y   Y3        1.0  0.28153660893440247  0.2601107358932495  0.36867570877075195  1.0000
  Y   Y4        1.0  0.7706663608551025  0.9121837019920349  0.8180122375488281  1.0000
  Y   Y5        1.0  0.789844810962677  0.3369695842266083  0.09838872402906418  1.0000
  Yb  Yb1       1.0  0.2765144407749176  0.5790062546730042  0.3063563108444214  1.0000
