data_image0
_chemical_formula_structural       B2Ge3SbTb4
_chemical_formula_sum              "B2 Ge3 Sb1 Tb4"
_cell_length_a       2.865574084184467
_cell_length_b       5.313225294634829
_cell_length_c       9.256587028503418
_cell_angle_alpha    101.09846509813922
_cell_angle_beta     101.69621367962924
_cell_angle_gamma    84.8166172750695

_space_group_name_H-M_alt    "P 1"
_space_group_IT_number       1

loop_
  _space_group_symop_operation_xyz
  'x, y, z'

loop_
  _atom_site_type_symbol
  _atom_site_label
  _atom_site_symmetry_multiplicity
  _atom_site_fract_x
  _atom_site_fract_y
  _atom_site_fract_z
  _atom_site_occupancy
  B   B1        1.0  0.49914905428886414  0.9752599596977234  0.37011057138442993  1.0000
  B   B2        1.0  0.5622106194496155  0.40805280208587646  0.01868644915521145  1.0000
  Ge  Ge1       1.0  0.5725559592247009  0.4078800678253174  0.006740218959748745  1.0000
  Ge  Ge2       1.0  0.9590325951576233  0.9560208916664124  0.20508359372615814  1.0000
  Ge  Ge3       1.0  0.9557185769081116  0.956491231918335  0.6953816413879395  1.0000
  Sb  Sb1       1.0  0.5771030783653259  0.41665130853652954  0.2041262984275818  1.0000
  Tb  Tb1       1.0  0.08600977063179016  0.4319511950016022  0.7158480286598206  1.0000
  Tb  Tb2       1.0  0.8775326013565063  0.9246182441711426  0.5450298190116882  1.0000
  Tb  Tb3       1.0  0.43099525570869446  0.9020885229110718  0.5071794390678406  1.0000
  Tb  Tb4       1.0  0.09856138378381729  0.433194637298584  0.9215234518051147  1.0000
