data_image0
_chemical_formula_structural       BGe4Tb5
_chemical_formula_sum              "B1 Ge4 Tb5"
_cell_length_a       5.406198370802217
_cell_length_b       7.788199261542004
_cell_length_c       7.848273754119873
_cell_angle_alpha    120.81969944890514
_cell_angle_beta     90.07881158147366
_cell_angle_gamma    89.91021462188752

_space_group_name_H-M_alt    "P 1"
_space_group_IT_number       1

loop_
  _space_group_symop_operation_xyz
  'x, y, z'

loop_
  _atom_site_type_symbol
  _atom_site_label
  _atom_site_symmetry_multiplicity
  _atom_site_fract_x
  _atom_site_fract_y
  _atom_site_fract_z
  _atom_site_occupancy
  B   B1        1.0  0.6953778862953186  0.10002061724662781  0.4119009673595428  1.0000
  Ge  Ge1       1.0  0.9502952694892883  0.32392141222953796  0.9089185595512389  1.0000
  Ge  Ge2       1.0  0.6988922953605652  0.4121040999889374  0.09587302803993221  1.0000
  Ge  Ge3       1.0  0.44075044989585876  0.881379246711731  0.5571964979171752  1.0000
  Ge  Ge4       1.0  0.43213117122650146  0.14196141064167023  0.9153900146484374  1.0000
  Tb  Tb1       1.0  0.1946769803762436  0.7263244390487671  0.2065729200839995  1.0000
  Tb  Tb2       1.0  0.6949512958526611  0.7076432704925537  0.06512007862329477  1.0000
  Tb  Tb3       1.0  0.697724461555481  0.2282184511423111  0.12227987498044963  1.0000
  Tb  Tb4       1.0  0.19558951258659363  0.42499130964279175  0.4072818458080291  1.0000
  Tb  Tb5       1.0  0.19469515979290009  0.9227510094642639  0.45041349530220026  1.0000
