data_image0
_chemical_formula_structural       CuGe4Tb5
_chemical_formula_sum              "Cu1 Ge4 Tb5"
_cell_length_a       5.8041767641609745
_cell_length_b       6.2549614374107145
_cell_length_c       8.511622428894043
_cell_angle_alpha    100.81270292327973
_cell_angle_beta     89.4392689685762
_cell_angle_gamma    113.60585411438518

_space_group_name_H-M_alt    "P 1"
_space_group_IT_number       1

loop_
  _space_group_symop_operation_xyz
  'x, y, z'

loop_
  _atom_site_type_symbol
  _atom_site_label
  _atom_site_symmetry_multiplicity
  _atom_site_fract_x
  _atom_site_fract_y
  _atom_site_fract_z
  _atom_site_occupancy
  Cu  Cu1       1.0  0.2530430555343628  0.045760203152894974  0.7125568389892578  1.0000
  Ge  Ge1       1.0  0.36356163024902344  0.40780913829803467  0.13862894475460052  1.0000
  Ge  Ge2       1.0  0.8822274208068849  0.11051920056343079  0.011282440274953842  1.0000
  Ge  Ge3       1.0  0.3596959114074707  0.755964994430542  0.39349520206451416  1.0000
  Ge  Ge4       1.0  0.8596997261047364  0.413932204246521  0.21340222656726837  1.0000
  Tb  Tb1       1.0  0.6120709776878357  0.6117002964019775  0.5193418860435486  1.0000
  Tb  Tb2       1.0  0.9049679636955262  0.10788892209529877  0.47707974910736084  1.0000
  Tb  Tb3       1.0  0.5665436387062073  0.11872348189353943  0.41731396317481995  1.0000
  Tb  Tb4       1.0  0.9023631811141969  0.6010476350784302  0.007890835404396057  1.0000
  Tb  Tb5       1.0  0.3886647820472718  0.6169618964195251  0.4133113622665405  1.0000
