data_image0
_chemical_formula_structural       Ge3Tb7
_chemical_formula_sum              "Ge3 Tb7"
_cell_length_a       5.78398996890805
_cell_length_b       5.738161778397975
_cell_length_c       7.911513328552246
_cell_angle_alpha    93.23119387755257
_cell_angle_beta     88.93965527473824
_cell_angle_gamma    119.8428309671697

_space_group_name_H-M_alt    "P 1"
_space_group_IT_number       1

loop_
  _space_group_symop_operation_xyz
  'x, y, z'

loop_
  _atom_site_type_symbol
  _atom_site_label
  _atom_site_symmetry_multiplicity
  _atom_site_fract_x
  _atom_site_fract_y
  _atom_site_fract_z
  _atom_site_occupancy
  Ge  Ge1       1.0  0.65310138463974  0.8377283811569214  0.030536685138940815  1.0000
  Ge  Ge2       1.0  0.3167937994003296  0.7986868023872375  0.743326723575592  1.0000
  Ge  Ge3       1.0  0.9707424044609069  0.024820497259497643  0.38123106956481934  1.0000
  Tb  Tb1       1.0  0.30830806493759155  0.3273336589336395  0.5091195702552795  1.0000
  Tb  Tb2       1.0  0.34606605768203735  0.819540798664093  0.7827209830284119  1.0000
  Tb  Tb3       1.0  0.6633027195930481  0.34002426266670227  0.5337722301483154  1.0000
  Tb  Tb4       1.0  0.1280829906463623  0.3484054505825043  0.03949804604053497  1.0000
  Tb  Tb5       1.0  0.3332180976867676  0.27435019612312317  0.7834455370903015  1.0000
  Tb  Tb6       1.0  0.008358137682080269  0.3554747700691223  0.8267163038253784  1.0000
  Tb  Tb7       1.0  0.6648355722427368  0.35583823919296265  0.3198416233062744  1.0000
