data_image0
_chemical_formula_structural       Ge3Tb7
_chemical_formula_sum              "Ge3 Tb7"
_cell_length_a       6.077241918245808
_cell_length_b       4.478407745209085
_cell_length_c       8.415401458740234
_cell_angle_alpha    97.2375857627395
_cell_angle_beta     86.5545319891046
_cell_angle_gamma    146.77934243780612

_space_group_name_H-M_alt    "P 1"
_space_group_IT_number       1

loop_
  _space_group_symop_operation_xyz
  'x, y, z'

loop_
  _atom_site_type_symbol
  _atom_site_label
  _atom_site_symmetry_multiplicity
  _atom_site_fract_x
  _atom_site_fract_y
  _atom_site_fract_z
  _atom_site_occupancy
  Ge  Ge1       1.0  0.44167768955230713  0.3892841637134552  0.22701707482337952  1.0000
  Ge  Ge2       1.0  0.09655624628067017  0.9788380265235901  0.7255566120147705  1.0000
  Ge  Ge3       1.0  0.7729097604751587  0.1404157429933548  0.43005797266960144  1.0000
  Tb  Tb1       1.0  0.7789000272750854  0.7744185924530029  0.623920202255249  1.0000
  Tb  Tb2       1.0  0.08630006015300751  0.5861679315567017  0.4717649519443512  1.0000
  Tb  Tb3       1.0  0.4474145174026489  0.7637883424758911  0.9906477928161621  1.0000
  Tb  Tb4       1.0  0.4480559527873993  0.3899226486682892  0.1135808527469635  1.0000
  Tb  Tb5       1.0  0.09520046412944794  0.9814860224723816  0.7220230102539062  1.0000
  Tb  Tb6       1.0  0.9306308031082153  0.3776237964630127  0.9386363625526428  1.0000
  Tb  Tb7       1.0  0.45662859082221985  0.9876134991645813  0.4708114266395569  1.0000
