data_image0
_chemical_formula_structural       BGe4Tb5
_chemical_formula_sum              "B1 Ge4 Tb5"
_cell_length_a       5.727156394122774
_cell_length_b       6.372766455132521
_cell_length_c       8.111204147338867
_cell_angle_alpha    99.48363987744308
_cell_angle_beta     88.38745957595873
_cell_angle_gamma    114.80896549439981

_space_group_name_H-M_alt    "P 1"
_space_group_IT_number       1

loop_
  _space_group_symop_operation_xyz
  'x, y, z'

loop_
  _atom_site_type_symbol
  _atom_site_label
  _atom_site_symmetry_multiplicity
  _atom_site_fract_x
  _atom_site_fract_y
  _atom_site_fract_z
  _atom_site_occupancy
  B   B1        1.0  0.23841841518878937  0.6261362433433533  0.5083061456680298  1.0000
  Ge  Ge1       1.0  0.43972730636596674  0.9885617494583129  0.4992193877696991  1.0000
  Ge  Ge2       1.0  0.21296514570713038  0.9920474290847777  0.8478479385375977  1.0000
  Ge  Ge3       1.0  0.5886951088905334  0.5528601408004761  0.3800259232521057  1.0000
  Ge  Ge4       1.0  0.40991196036338806  0.3565862774848938  0.6704007387161255  1.0000
  Tb  Tb1       1.0  0.937533974647522  0.9865251779556273  0.6533016562461853  1.0000
  Tb  Tb2       1.0  0.5668295621871948  0.8036003708839417  0.0025648376904428005  1.0000
  Tb  Tb3       1.0  0.9355413317680359  0.09599630534648895  0.6615583300590515  1.0000
  Tb  Tb4       1.0  0.08049340546131134  0.3081754446029663  0.0025969743728637695  1.0000
  Tb  Tb5       1.0  0.5764877796173096  0.647565484046936  0.3487471044063568  1.0000
