data_image0
_chemical_formula_structural       Br2H2HgZr4
_chemical_formula_sum              "Br2 H2 Hg1 Zr4"
_cell_length_a       5.700132821269165
_cell_length_b       6.489583066795633
_cell_length_c       8.232958793640137
_cell_angle_alpha    111.57497003093094
_cell_angle_beta     87.62853011421176
_cell_angle_gamma    88.76191731447183

_space_group_name_H-M_alt    "P 1"
_space_group_IT_number       1

loop_
  _space_group_symop_operation_xyz
  'x, y, z'

loop_
  _atom_site_type_symbol
  _atom_site_label
  _atom_site_symmetry_multiplicity
  _atom_site_fract_x
  _atom_site_fract_y
  _atom_site_fract_z
  _atom_site_occupancy
  Br  Br1       1.0  0.008230512961745266  0.490601360797882  0.13915680348873136  1.0000
  Br  Br2       1.0  0.21846042573451996  0.870879590511322  0.22426562011241907  1.0000
  H   H1        1.0  0.020517025142908096  0.3791138529777527  0.457804799079895  1.0000
  H   H2        1.0  0.2535324990749359  0.3362027704715729  0.9143051505088806  1.0000
  Hg  Hg1       1.0  0.5090439319610596  0.2006767839193344  0.21056203544139862  1.0000
  Zr  Zr1       1.0  0.5286685824394226  0.5634214282035828  0.8012584447860718  1.0000
  Zr  Zr2       1.0  0.7327133417129517  0.9393939375877379  0.7395110130310059  1.0000
  Zr  Zr3       1.0  0.739827036857605  0.7416174411773682  0.12275213748216626  1.0000
  Zr  Zr4       1.0  0.2561013996601105  0.68126380443573  0.5349244475364684  1.0000
