data_image0
_chemical_formula_structural       Br2CrHScSiZr3
_chemical_formula_sum              "Br2 Cr1 H1 Sc1 Si1 Zr3"
_cell_length_a       6.54044207226961
_cell_length_b       6.572251068105459
_cell_length_c       8.538944244384766
_cell_angle_alpha    78.2466093049061
_cell_angle_beta     68.45145799036925
_cell_angle_gamma    61.246867583766104

_space_group_name_H-M_alt    "P 1"
_space_group_IT_number       1

loop_
  _space_group_symop_operation_xyz
  'x, y, z'

loop_
  _atom_site_type_symbol
  _atom_site_label
  _atom_site_symmetry_multiplicity
  _atom_site_fract_x
  _atom_site_fract_y
  _atom_site_fract_z
  _atom_site_occupancy
  Br  Br1       1.0  0.5000737309455872  0.5892844796180725  0.25831475853919983  1.0000
  Br  Br2       1.0  0.783285915851593  0.4274463951587677  0.7459467053413391  1.0000
  Cr  Cr1       1.0  0.0007517369813285768  0.28820693492889404  0.6910027861595154  1.0000
  H   H1        1.0  0.10558601468801498  0.14024093747138977  0.8135803937911987  1.0000
  Sc  Sc1       1.0  0.20740325748920443  0.497401475906372  0.7633444666862488  1.0000
  Si  Si1       1.0  0.4629412889480591  0.05029721185564995  0.5800301432609558  1.0000
  Zr  Zr1       1.0  0.4836863577365875  0.09757790714502335  0.945100724697113  1.0000
  Zr  Zr2       1.0  0.013347958214581013  0.8711529970169067  0.6905934810638428  1.0000
  Zr  Zr3       1.0  0.443260133266449  0.7338797450065613  0.5426495671272278  1.0000
