data_image0
_chemical_formula_structural       BrCd2HHgLiPbZr2
_chemical_formula_sum              "Br1 Cd2 H1 Hg1 Li1 Pb1 Zr2"
_cell_length_a       5.9753842453094705
_cell_length_b       6.1138147548312345
_cell_length_c       5.698303699493408
_cell_angle_alpha    44.60185404617561
_cell_angle_beta     62.30913494730688
_cell_angle_gamma    61.92796942247771

_space_group_name_H-M_alt    "P 1"
_space_group_IT_number       1

loop_
  _space_group_symop_operation_xyz
  'x, y, z'

loop_
  _atom_site_type_symbol
  _atom_site_label
  _atom_site_symmetry_multiplicity
  _atom_site_fract_x
  _atom_site_fract_y
  _atom_site_fract_z
  _atom_site_occupancy
  Br  Br1       1.0  0.3314872980117798  0.18391071259975433  0.8197370171546936  1.0000
  Cd  Cd1       1.0  0.0654296800494194  0.7175415754318237  0.6587223410606384  1.0000
  Cd  Cd2       1.0  0.96086984872818  0.05830775573849678  0.970508873462677  1.0000
  H   H1        1.0  0.2718213200569153  0.2130468636751175  0.3149295151233673  1.0000
  Hg  Hg1       1.0  0.7941783666610718  0.166765496134758  0.1961231827735901  1.0000
  Li  Li1       1.0  0.34107735753059387  0.16721472144126892  0.9363123774528503  1.0000
  Pb  Pb1       1.0  0.7857484221458435  0.8421643376350403  0.34414297342300415  1.0000
  Zr  Zr1       1.0  0.4692969620227814  0.6301044225692749  0.9954516291618347  1.0000
  Zr  Zr2       1.0  0.8330290913581848  0.6081843376159668  0.8272680044174194  1.0000
