data_image0
_chemical_formula_structural       O5Pr9
_chemical_formula_sum              "O5 Pr9"
_cell_length_a       4.192153902247531
_cell_length_b       7.272066267283422
_cell_length_c       9.16651725769043
_cell_angle_alpha    88.70918208358005
_cell_angle_beta     91.2968560851297
_cell_angle_gamma    89.36220428655719

_space_group_name_H-M_alt    "P 1"
_space_group_IT_number       1

loop_
  _space_group_symop_operation_xyz
  'x, y, z'

loop_
  _atom_site_type_symbol
  _atom_site_label
  _atom_site_symmetry_multiplicity
  _atom_site_fract_x
  _atom_site_fract_y
  _atom_site_fract_z
  _atom_site_occupancy
  O   O1        1.0  0.20162947475910187  0.1887744516134262  0.9914880990982056  1.0000
  O   O2        1.0  0.6424522399902344  0.9768303036689757  0.8525803685188293  1.0000
  O   O3        1.0  0.674223780632019  0.4740242660045623  0.5702400207519531  1.0000
  O   O4        1.0  0.6743496060371399  0.63775634765625  0.41419699788093567  1.0000
  O   O5        1.0  0.17279358208179474  0.14674678444862366  0.9208962321281433  1.0000
  Pr  Pr1       1.0  0.690163254737854  0.1191684529185295  0.42380291223526  1.0000
  Pr  Pr2       1.0  0.19606351852416992  0.4847679734230041  0.8049637079238892  1.0000
  Pr  Pr3       1.0  0.17561735212802887  0.9781892299652098  0.9099754095077515  1.0000
  Pr  Pr4       1.0  0.19106292724609375  0.36415818333625793  0.8060328960418701  1.0000
  Pr  Pr5       1.0  0.201919287443161  0.9858248829841613  0.16934475302696228  1.0000
  Pr  Pr6       1.0  0.6704487204551697  0.33047834038734436  0.09764670580625534  1.0000
  Pr  Pr7       1.0  0.6993952393531799  0.6538383364677429  0.17042537033557892  1.0000
  Pr  Pr8       1.0  0.7160343527793884  0.6653175354003906  0.20687559247016907  1.0000
  Pr  Pr9       1.0  0.7062997817993164  0.6617041826248169  0.5073015093803406  1.0000
