data_image0
_chemical_formula_structural       Ba2CuO4Pr6Zn
_chemical_formula_sum              "Ba2 Cu1 O4 Pr6 Zn1"
_cell_length_a       5.464877001939173
_cell_length_b       7.635817149341228
_cell_length_c       8.192035675048828
_cell_angle_alpha    72.45920251104482
_cell_angle_beta     68.21457258183085
_cell_angle_gamma    67.68962454334513

_space_group_name_H-M_alt    "P 1"
_space_group_IT_number       1

loop_
  _space_group_symop_operation_xyz
  'x, y, z'

loop_
  _atom_site_type_symbol
  _atom_site_label
  _atom_site_symmetry_multiplicity
  _atom_site_fract_x
  _atom_site_fract_y
  _atom_site_fract_z
  _atom_site_occupancy
  Ba  Ba1       1.0  0.9290587306022644  0.7594297528266908  0.7719301581382751  1.0000
  Ba  Ba2       1.0  0.92267906665802  0.8003323078155519  0.709284245967865  1.0000
  Cu  Cu1       1.0  0.4291301667690277  0.7694782614707948  0.6657018661499023  1.0000
  O   O1        1.0  0.9428843259811401  0.7450066804885865  0.2287161648273468  1.0000
  O   O2        1.0  0.4425344169139862  0.7536802887916566  0.6623650789260864  1.0000
  O   O3        1.0  0.4397456645965576  0.35558509826660156  0.653205394744873  1.0000
  O   O4        1.0  0.43544211983680725  0.7496549487113954  0.8104261755943298  1.0000
  Pr  Pr1       1.0  0.9067819118499756  0.9427021741867067  0.09268531203269958  1.0000
  Pr  Pr2       1.0  0.91957688331604  0.2707712650299072  0.24970278143882751  1.0000
  Pr  Pr3       1.0  0.40334540605545033  0.9091899991035463  0.10643690079450607  1.0000
  Pr  Pr4       1.0  0.9127995371818542  0.3953221738338471  0.8098060488700867  1.0000
  Pr  Pr5       1.0  0.4130042493343353  0.2620113492012024  0.8919844627380371  1.0000
  Pr  Pr6       1.0  0.40398386120796204  0.7086749076843262  0.2608659565448761  1.0000
  Zn  Zn1       1.0  0.4143565893173218  0.2606982886791229  0.039454784244298935  1.0000
