data_image0
_chemical_formula_structural       Ba3CuO5Pr5
_chemical_formula_sum              "Ba3 Cu1 O5 Pr5"
_cell_length_a       6.231977465061915
_cell_length_b       7.1042702988215005
_cell_length_c       6.906040191650391
_cell_angle_alpha    62.17939023894502
_cell_angle_beta     61.327887040145555
_cell_angle_gamma    63.76624626821248

_space_group_name_H-M_alt    "P 1"
_space_group_IT_number       1

loop_
  _space_group_symop_operation_xyz
  'x, y, z'

loop_
  _atom_site_type_symbol
  _atom_site_label
  _atom_site_symmetry_multiplicity
  _atom_site_fract_x
  _atom_site_fract_y
  _atom_site_fract_z
  _atom_site_occupancy
  Ba  Ba1       1.0  0.4676012098789215  0.7936529517173766  0.43586575984954834  1.0000
  Ba  Ba2       1.0  0.4225032925605774  0.09970153123140334  0.15536244213581085  1.0000
  Ba  Ba3       1.0  0.010495655238628429  0.8323969841003417  0.06973681598901749  1.0000
  Cu  Cu1       1.0  0.9202902317047119  0.1334305852651596  0.5288630127906798  1.0000
  O   O1        1.0  0.9757314324378967  0.8042255043983458  0.8477333784103394  1.0000
  O   O2        1.0  0.201982781291008  0.6299017071723938  0.15431611239910126  1.0000
  O   O3        1.0  0.46789979934692383  0.7710480093955993  0.7586965560913086  1.0000
  O   O4        1.0  0.5604907870292664  0.4115070700645446  0.7632527947425842  1.0000
  O   O5        1.0  0.7711571455001831  0.8809088468551635  0.023015987128019333  1.0000
  Pr  Pr1       1.0  0.013615762814879417  0.3522641360759735  0.33940643072128296  1.0000
  Pr  Pr2       1.0  0.42443010210990906  0.8079746961593627  0.9547664523124695  1.0000
  Pr  Pr3       1.0  0.42680078744888306  0.10758013278245925  0.16924136877059934  1.0000
  Pr  Pr4       1.0  0.9975525140762329  0.8229066729545592  0.07657730579376221  1.0000
  Pr  Pr5       1.0  0.9329991340637207  0.13081388175487518  0.14475937187671656  1.0000
