data_image0
_chemical_formula_structural       CuO4Pr9
_chemical_formula_sum              "Cu1 O4 Pr9"
_cell_length_a       3.8388584047878505
_cell_length_b       6.499915388024439
_cell_length_c       10.576848983764648
_cell_angle_alpha    87.93574289878698
_cell_angle_beta     88.3796752156405
_cell_angle_gamma    89.04015709248814

_space_group_name_H-M_alt    "P 1"
_space_group_IT_number       1

loop_
  _space_group_symop_operation_xyz
  'x, y, z'

loop_
  _atom_site_type_symbol
  _atom_site_label
  _atom_site_symmetry_multiplicity
  _atom_site_fract_x
  _atom_site_fract_y
  _atom_site_fract_z
  _atom_site_occupancy
  Cu  Cu1       1.0  0.5583719611167908  0.5123634934425354  0.9417325258255005  1.0000
  O   O1        1.0  0.5792394876480103  0.5016738176345825  0.3287910521030426  1.0000
  O   O2        1.0  0.06406024843454361  0.2986340820789337  0.15139254927635193  1.0000
  O   O3        1.0  0.5546295642852783  0.7607836127281189  0.3249657452106476  1.0000
  O   O4        1.0  0.06799936294555664  0.18669748306274414  0.27734804153442383  1.0000
  Pr  Pr1       1.0  0.5790035128593445  0.1268249750137329  0.464481920003891  1.0000
  Pr  Pr2       1.0  0.5593972206115723  0.5325286388397217  0.7036203742027283  1.0000
  Pr  Pr3       1.0  0.06713634729385376  0.027365280315279957  0.4070487320423126  1.0000
  Pr  Pr4       1.0  0.07117794454097748  0.5267913341522217  0.6930477619171143  1.0000
  Pr  Pr5       1.0  0.047177918255329125  0.7992874979972838  0.3992721736431122  1.0000
  Pr  Pr6       1.0  0.5579496026039124  0.5264338254928589  0.16949361562728882  1.0000
  Pr  Pr7       1.0  0.5843996405601501  0.5312772989273071  0.9544624090194702  1.0000
  Pr  Pr8       1.0  0.05973973497748374  0.9677807688713073  0.8263425230979919  1.0000
  Pr  Pr9       1.0  0.05358655750751495  0.3664010763168335  0.4324767291545868  1.0000
