data_image0
_chemical_formula_structural       BaGaO5PPr5Pt
_chemical_formula_sum              "Ba1 Ga1 O5 P1 Pr5 Pt1"
_cell_length_a       6.165139017515453
_cell_length_b       7.0021182124670425
_cell_length_c       6.9463210105896
_cell_angle_alpha    61.15434182575024
_cell_angle_beta     63.5643857517483
_cell_angle_gamma    64.86992574334987

_space_group_name_H-M_alt    "P 1"
_space_group_IT_number       1

loop_
  _space_group_symop_operation_xyz
  'x, y, z'

loop_
  _atom_site_type_symbol
  _atom_site_label
  _atom_site_symmetry_multiplicity
  _atom_site_fract_x
  _atom_site_fract_y
  _atom_site_fract_z
  _atom_site_occupancy
  Ba  Ba1       1.0  0.648865818977356  0.4533166587352753  0.8250734210014342  1.0000
  Ga  Ga1       1.0  0.19521884620189667  0.26525402069091797  0.45677155256271357  1.0000
  O   O1        1.0  0.5385361909866333  0.7406423687934875  0.444652110338211  1.0000
  O   O2        1.0  0.5430185198783875  0.5833720564842224  0.5009784698486328  1.0000
  O   O3        1.0  0.1449086219072342  0.6066262125968933  0.8474687337875365  1.0000
  O   O4        1.0  0.15363113582134247  0.3856138586997986  0.4456919431686401  1.0000
  O   O5        1.0  0.8253642320632935  0.06789947301149368  0.9018809795379638  1.0000
  P   P1        1.0  0.1950159519910812  0.8847270607948304  0.19921110570430753  1.0000
  Pr  Pr1       1.0  0.6807106733322144  0.3950912952423096  0.16019010543823242  1.0000
  Pr  Pr2       1.0  0.678457498550415  0.8885418176651002  0.4462213516235351  1.0000
  Pr  Pr3       1.0  0.18192584812641144  0.4768106043338776  0.17086632549762726  1.0000
  Pr  Pr4       1.0  0.9434356689453125  0.8801785707473756  0.6007914543151855  1.0000
  Pr  Pr5       1.0  0.12841857969760892  0.9576686024665834  0.16668511927127838  1.0000
  Pt  Pt1       1.0  0.19107753038406372  0.2165389806032181  0.933989644050598  1.0000
