data_image0
_chemical_formula_structural       CuO5Pr8
_chemical_formula_sum              "Cu1 O5 Pr8"
_cell_length_a       3.660570858930997
_cell_length_b       5.077196636770195
_cell_length_c       9.47891902923584
_cell_angle_alpha    89.2722045875982
_cell_angle_beta     90.53125795076619
_cell_angle_gamma    99.84622704646159

_space_group_name_H-M_alt    "P 1"
_space_group_IT_number       1

loop_
  _space_group_symop_operation_xyz
  'x, y, z'

loop_
  _atom_site_type_symbol
  _atom_site_label
  _atom_site_symmetry_multiplicity
  _atom_site_fract_x
  _atom_site_fract_y
  _atom_site_fract_z
  _atom_site_occupancy
  Cu  Cu1       1.0  0.9853851199150085  0.4124728739261627  0.2948105931282043  1.0000
  O   O1        1.0  0.9964518547058105  0.7491240501403809  0.2652018368244171  1.0000
  O   O2        1.0  0.003858601674437523  0.04034695401787758  0.29281729459762573  1.0000
  O   O3        1.0  0.010560660623014003  0.8370980620384217  0.5139955878257751  1.0000
  O   O4        1.0  0.4987785220146179  0.08058439195156097  0.7719880938529968  1.0000
  O   O5        1.0  0.5014787912368774  0.9282615184783937  0.9112733602523804  1.0000
  Pr  Pr1       1.0  0.9993100166320801  0.8400200009346009  0.0014598456909880036  1.0000
  Pr  Pr2       1.0  0.5039136409759521  0.6765010952949524  0.2234334945678711  1.0000
  Pr  Pr3       1.0  0.018130086362361922  0.42218768596649175  0.5430453419685364  1.0000
  Pr  Pr4       1.0  0.49875056743621826  0.8258416056632996  0.929851770401001  1.0000
  Pr  Pr5       1.0  0.4892442226409912  0.34963661432266235  0.32600992918014526  1.0000
  Pr  Pr6       1.0  0.5035289525985718  0.1809656322002411  0.42865052819252014  1.0000
  Pr  Pr7       1.0  0.9974430203437805  0.002750992076471448  0.8942952156066895  1.0000
  Pr  Pr8       1.0  0.4908096492290497  0.296580046415329  0.8947568535804749  1.0000
