data_image0
_chemical_formula_structural       CoNd6NiSSiSn
_chemical_formula_sum              "Co1 Nd6 Ni1 S1 Si1 Sn1"
_cell_length_a       5.531229534778344
_cell_length_b       6.6612936904492805
_cell_length_c       6.4070725440979
_cell_angle_alpha    66.74088955085304
_cell_angle_beta     62.44591046858666
_cell_angle_gamma    69.2625159378104

_space_group_name_H-M_alt    "P 1"
_space_group_IT_number       1

loop_
  _space_group_symop_operation_xyz
  'x, y, z'

loop_
  _atom_site_type_symbol
  _atom_site_label
  _atom_site_symmetry_multiplicity
  _atom_site_fract_x
  _atom_site_fract_y
  _atom_site_fract_z
  _atom_site_occupancy
  Co  Co1       1.0  0.1134754940867424  0.0561913549900055  0.5902882814407349  1.0000
  Nd  Nd1       1.0  0.4397372007369995  0.5867468118667603  0.047648124396800995  1.0000
  Nd  Nd2       1.0  0.4768565893173218  0.41188079118728643  0.33524078130722046  1.0000
  Nd  Nd3       1.0  0.4488775432109833  0.6055698990821838  0.94925856590271  1.0000
  Nd  Nd4       1.0  0.8167390823364258  0.1531958281993866  0.7028964757919312  1.0000
  Nd  Nd5       1.0  0.9849039912223816  0.6093425154685974  0.43397942185401917  1.0000
  Nd  Nd6       1.0  0.44132617115974426  0.1010226756334305  0.22424232959747314  1.0000
  Ni  Ni1       1.0  0.8501428365707397  0.7694132924079895  0.08761539310216904  1.0000
  S   S1        1.0  0.752396285533905  0.39203158020973206  0.10830716043710709  1.0000
  Si  Si1       1.0  0.7877109050750732  0.9203649163246156  0.7929840683937073  1.0000
  Sn  Sn1       1.0  0.5792482495307922  0.9900078177452089  0.46148186922073364  1.0000
