data_image0
_chemical_formula_structural       AlCuNd5PdSn3
_chemical_formula_sum              "Al1 Cu1 Nd5 Pd1 Sn3"
_cell_length_a       5.347548850368434
_cell_length_b       6.912777648493838
_cell_length_c       8.002156257629395
_cell_angle_alpha    113.74272952588126
_cell_angle_beta     107.07581624230369
_cell_angle_gamma    89.14784948455736

_space_group_name_H-M_alt    "P 1"
_space_group_IT_number       1

loop_
  _space_group_symop_operation_xyz
  'x, y, z'

loop_
  _atom_site_type_symbol
  _atom_site_label
  _atom_site_symmetry_multiplicity
  _atom_site_fract_x
  _atom_site_fract_y
  _atom_site_fract_z
  _atom_site_occupancy
  Al  Al1       1.0  0.22293213009834292  0.8836656212806703  0.718474805355072  1.0000
  Cu  Cu1       1.0  0.24879616498947146  0.41655701398849493  0.7317325472831726  1.0000
  Nd  Nd1       1.0  0.3465021252632141  0.28300192952156067  0.27906814217567444  1.0000
  Nd  Nd2       1.0  0.11368639767169955  0.6976524591445924  0.19813886284828186  1.0000
  Nd  Nd3       1.0  0.7983467578887941  0.8212077021598817  0.038893815129995346  1.0000
  Nd  Nd4       1.0  0.9241452217102052  0.935094714164734  0.48525160551071167  1.0000
  Nd  Nd5       1.0  0.2381517291069031  0.4278953671455384  0.33892348408699036  1.0000
  Pd  Pd1       1.0  0.7415151000022888  0.5964171886444092  0.30519768595695496  1.0000
  Sn  Sn1       1.0  0.9918672442436219  0.008897654712200165  0.22017130255699158  1.0000
  Sn  Sn2       1.0  0.315035343170166  0.84185528755188  0.009096983820199966  1.0000
  Sn  Sn3       1.0  0.8337767720222474  0.40198409557342535  0.8775233030319214  1.0000
