data_image0
_chemical_formula_structural       CsCu2Nd5SiSn2
_chemical_formula_sum              "Cs1 Cu2 Nd5 Si1 Sn2"
_cell_length_a       5.817146520620648
_cell_length_b       7.222766007828264
_cell_length_c       8.076017379760742
_cell_angle_alpha    79.74437248838429
_cell_angle_beta     69.04305665518756
_cell_angle_gamma    67.43979707307659

_space_group_name_H-M_alt    "P 1"
_space_group_IT_number       1

loop_
  _space_group_symop_operation_xyz
  'x, y, z'

loop_
  _atom_site_type_symbol
  _atom_site_label
  _atom_site_symmetry_multiplicity
  _atom_site_fract_x
  _atom_site_fract_y
  _atom_site_fract_z
  _atom_site_occupancy
  Cs  Cs1       1.0  0.03024494647979736  0.08240329474210739  0.5548659563064575  1.0000
  Cu  Cu1       1.0  0.7493098974227905  0.8552299737930298  0.28076970577239996  1.0000
  Cu  Cu2       1.0  0.8479882478713989  0.9309068322181702  0.7031710147857666  1.0000
  Nd  Nd1       1.0  0.7535279989242554  0.3695872724056244  0.937374472618103  1.0000
  Nd  Nd2       1.0  0.07651125639677048  0.6813568472862244  0.8053808212280273  1.0000
  Nd  Nd3       1.0  0.28522607684135437  0.7978483438491821  0.3275715708732605  1.0000
  Nd  Nd4       1.0  0.7897325754165649  0.32373347878456116  0.17948520183563232  1.0000
  Nd  Nd5       1.0  0.28016576170921326  0.3117216229438782  0.9311091899871826  1.0000
  Si  Si1       1.0  0.6736269593238831  0.829598605632782  0.6197763681411743  1.0000
  Sn  Sn1       1.0  0.37781020998954773  0.43785953521728516  0.43660345673561096  1.0000
  Sn  Sn2       1.0  0.704190194606781  0.34870558977127075  0.450126975774765  1.0000
