data_image0
_chemical_formula_structural       Al2CsLuNd2Sn4Zn
_chemical_formula_sum              "Al2 Cs1 Lu1 Nd2 Sn4 Zn1"
_cell_length_a       5.8926761748131655
_cell_length_b       6.84194693037599
_cell_length_c       7.352490425109863
_cell_angle_alpha    74.13342366446581
_cell_angle_beta     65.62827778712217
_cell_angle_gamma    65.78482968760835

_space_group_name_H-M_alt    "P 1"
_space_group_IT_number       1

loop_
  _space_group_symop_operation_xyz
  'x, y, z'

loop_
  _atom_site_type_symbol
  _atom_site_label
  _atom_site_symmetry_multiplicity
  _atom_site_fract_x
  _atom_site_fract_y
  _atom_site_fract_z
  _atom_site_occupancy
  Al  Al1       1.0  0.1907554268836975  0.765597939491272  0.10005136579275131  1.0000
  Al  Al2       1.0  0.09460314363241196  0.39682042598724365  0.829357922077179  1.0000
  Cs  Cs1       1.0  0.28835299611091614  0.5257788300514221  0.8511041402816772  1.0000
  Lu  Lu1       1.0  0.9159700870513916  0.8247387409210205  0.0844340547919274  1.0000
  Nd  Nd1       1.0  0.47634434700012207  0.8752075433731079  0.9821013808250427  1.0000
  Nd  Nd2       1.0  0.9227644205093384  0.15029269456863403  0.3643640875816345  1.0000
  Sn  Sn1       1.0  0.9177416563034058  0.8340859413146973  0.9834787845611572  1.0000
  Sn  Sn2       1.0  0.8797909617424011  0.39073237776756287  0.1634832918643952  1.0000
  Sn  Sn3       1.0  0.5035462975502014  0.36981865763664246  0.6140450239181519  1.0000
  Sn  Sn4       1.0  0.30565372109413147  0.6335693001747131  0.3103751242160797  1.0000
  Zn  Zn1       1.0  0.7550332546234131  0.04026820883154869  0.41844657063484203  1.0000
