data_image0
_chemical_formula_structural       Cu3Nd5Sn3
_chemical_formula_sum              "Cu3 Nd5 Sn3"
_cell_length_a       5.739165986447543
_cell_length_b       6.461908274727759
_cell_length_c       6.854660987854004
_cell_angle_alpha    73.8055406123328
_cell_angle_beta     64.7914816006357
_cell_angle_gamma    62.43651440001087

_space_group_name_H-M_alt    "P 1"
_space_group_IT_number       1

loop_
  _space_group_symop_operation_xyz
  'x, y, z'

loop_
  _atom_site_type_symbol
  _atom_site_label
  _atom_site_symmetry_multiplicity
  _atom_site_fract_x
  _atom_site_fract_y
  _atom_site_fract_z
  _atom_site_occupancy
  Cu  Cu1       1.0  0.3817989230155945  0.3212081789970398  0.5913881659507751  1.0000
  Cu  Cu2       1.0  0.47885963320732117  0.2362724393606186  0.07786840200424194  1.0000
  Cu  Cu3       1.0  0.5057732462882996  0.6493625640869141  0.06387423723936081  1.0000
  Nd  Nd1       1.0  0.5724281668663025  0.2525922656059265  0.8718095421791077  1.0000
  Nd  Nd2       1.0  0.8739493489265442  0.8596786260604858  0.23963303864002228  1.0000
  Nd  Nd3       1.0  0.8424134254455566  0.29751044511795044  0.7230764031410217  1.0000
  Nd  Nd4       1.0  0.2316371351480484  0.7567694783210754  0.5433211922645569  1.0000
  Nd  Nd5       1.0  0.5855181813240051  0.24937430024147034  0.4804460108280182  1.0000
  Sn  Sn1       1.0  0.6890262365341187  0.8221132159233093  0.3983558714389801  1.0000
  Sn  Sn2       1.0  0.9568696022033691  0.5904168486595154  0.027572685852646828  1.0000
  Sn  Sn3       1.0  0.15284138917922974  0.5943308472633362  0.835856556892395  1.0000
