data_image0
_chemical_formula_structural       Cu4Nd7
_chemical_formula_sum              "Cu4 Nd7"
_cell_length_a       5.595251161896812
_cell_length_b       6.288784384996762
_cell_length_c       6.620936393737793
_cell_angle_alpha    68.32957647686912
_cell_angle_beta     63.08274373973006
_cell_angle_gamma    61.596677937237395

_space_group_name_H-M_alt    "P 1"
_space_group_IT_number       1

loop_
  _space_group_symop_operation_xyz
  'x, y, z'

loop_
  _atom_site_type_symbol
  _atom_site_label
  _atom_site_symmetry_multiplicity
  _atom_site_fract_x
  _atom_site_fract_y
  _atom_site_fract_z
  _atom_site_occupancy
  Cu  Cu1       1.0  0.8077729344367981  0.7502400279045105  0.012896685861051083  1.0000
  Cu  Cu2       1.0  0.20871354639530182  0.5307496190071106  0.40535616874694824  1.0000
  Cu  Cu3       1.0  0.557921290397644  0.11469712108373642  0.3310173451900482  1.0000
  Cu  Cu4       1.0  0.7427560687065125  0.05706124007701874  0.7696982622146606  1.0000
  Nd  Nd1       1.0  0.9783413410186766  0.7057578563690186  0.11782701313495636  1.0000
  Nd  Nd2       1.0  0.4124705493450165  0.14498625695705414  0.576583206653595  1.0000
  Nd  Nd3       1.0  0.430504709482193  0.44782334566116333  0.005862895864993334  1.0000
  Nd  Nd4       1.0  0.1640119105577469  0.5490003824234009  0.30695605278015137  1.0000
  Nd  Nd5       1.0  0.6491071581840515  0.008414741605520248  0.07574438303709033  1.0000
  Nd  Nd6       1.0  0.20286314189434052  0.24313636124134064  0.7849739789962769  1.0000
  Nd  Nd7       1.0  0.5471453666687012  0.7960681915283203  0.3497726619243622  1.0000
