data_image0
_chemical_formula_structural       Ni6P4
_chemical_formula_sum              "Ni6 P4"
_cell_length_a       5.366665498364665
_cell_length_b       5.788353402051742
_cell_length_c       5.990627288818359
_cell_angle_alpha    65.98066893376969
_cell_angle_beta     64.67993658503575
_cell_angle_gamma    62.68126810506682

_space_group_name_H-M_alt    "P 1"
_space_group_IT_number       1

loop_
  _space_group_symop_operation_xyz
  'x, y, z'

loop_
  _atom_site_type_symbol
  _atom_site_label
  _atom_site_symmetry_multiplicity
  _atom_site_fract_x
  _atom_site_fract_y
  _atom_site_fract_z
  _atom_site_occupancy
  Ni  Ni1       1.0  0.4096719026565552  0.0714464783668518  0.7471728324890137  1.0000
  Ni  Ni2       1.0  0.7734604477882385  0.5957959294319153  0.7560678720474243  1.0000
  Ni  Ni3       1.0  0.7811163067817688  0.5166228413581848  0.2723085880279541  1.0000
  Ni  Ni4       1.0  0.15167413651943207  0.03816812112927437  0.26236194372177124  1.0000
  Ni  Ni5       1.0  0.4111801683902741  0.017131822183728218  0.007359751500189286  1.0000
  Ni  Ni6       1.0  0.1375908851623535  0.4936425685882569  0.9660252928733826  1.0000
  P   P1        1.0  0.13179992139339447  0.5452293753623962  0.7106196880340576  1.0000
  P   P2        1.0  0.7181917428970337  0.09048175811767578  0.46874624490737915  1.0000
  P   P3        1.0  0.7879505157470703  0.06778350472450256  0.2598445415496826  1.0000
  P   P4        1.0  0.4450625777244568  0.7056592702865601  0.07355279475450516  1.0000
