data_image0
_chemical_formula_structural       HNi5P4
_chemical_formula_sum              "H1 Ni5 P4"
_cell_length_a       5.302224279149106
_cell_length_b       6.297390462268963
_cell_length_c       6.987727642059326
_cell_angle_alpha    68.6328040688397
_cell_angle_beta     64.90018368396726
_cell_angle_gamma    63.05734079753084

_space_group_name_H-M_alt    "P 1"
_space_group_IT_number       1

loop_
  _space_group_symop_operation_xyz
  'x, y, z'

loop_
  _atom_site_type_symbol
  _atom_site_label
  _atom_site_symmetry_multiplicity
  _atom_site_fract_x
  _atom_site_fract_y
  _atom_site_fract_z
  _atom_site_occupancy
  H   H1        1.0  0.9208415150642395  0.9186561703681946  0.15746618807315826  1.0000
  Ni  Ni1       1.0  0.8787866830825806  0.2981794774532318  0.18433356285095223  1.0000
  Ni  Ni2       1.0  0.7476699948310852  0.9010809659957886  0.45064496994018555  1.0000
  Ni  Ni3       1.0  0.3815750181674957  0.29887741804122925  0.6936959624290466  1.0000
  Ni  Ni4       1.0  0.7266045212745667  0.44345951080322266  0.37882256507873535  1.0000
  Ni  Ni5       1.0  0.19530922174453735  0.9309974312782288  0.37371259927749634  1.0000
  P   P1        1.0  0.19224263727664948  0.306915283203125  0.8946931958198547  1.0000
  P   P2        1.0  0.6474002003669739  0.32092544436454773  0.027604300528764725  1.0000
  P   P3        1.0  0.2946356534957886  0.9356161952018738  0.5602465867996216  1.0000
  P   P4        1.0  0.8882090449333191  0.6377829909324646  0.7063000798225403  1.0000
