data_image0
_chemical_formula_structural       MoNi6P3
_chemical_formula_sum              "Mo1 Ni6 P3"
_cell_length_a       5.014992392265363
_cell_length_b       5.280058203907642
_cell_length_c       7.236351490020752
_cell_angle_alpha    88.92270233140245
_cell_angle_beta     88.94515858897822
_cell_angle_gamma    116.71877070443792

_space_group_name_H-M_alt    "P 1"
_space_group_IT_number       1

loop_
  _space_group_symop_operation_xyz
  'x, y, z'

loop_
  _atom_site_type_symbol
  _atom_site_label
  _atom_site_symmetry_multiplicity
  _atom_site_fract_x
  _atom_site_fract_y
  _atom_site_fract_z
  _atom_site_occupancy
  Mo  Mo1       1.0  0.5958491563796997  0.00895678624510765  0.7917963862419128  1.0000
  Ni  Ni1       1.0  0.2673809826374054  0.12086118757724762  0.07965905219316483  1.0000
  Ni  Ni2       1.0  0.590145468711853  0.45781606435775757  0.7847942113876343  1.0000
  Ni  Ni3       1.0  0.9571510553359985  0.45729559659957886  0.43620559573173523  1.0000
  Ni  Ni4       1.0  0.10502783209085464  0.6065746545791626  0.5946376323699951  1.0000
  Ni  Ni5       1.0  0.6425390839576721  0.9592099785804749  0.41210153698921204  1.0000
  Ni  Ni6       1.0  0.268647700548172  0.4353475272655487  0.08275734633207321  1.0000
  P   P1        1.0  0.6387214660644531  0.943749725818634  0.4204816520214081  1.0000
  P   P2        1.0  0.3400360345840454  0.1963956654071808  0.6971474885940552  1.0000
  P   P3        1.0  0.9234744310379028  0.6244058012962341  0.7866124510765076  1.0000
