data_image0
_chemical_formula_structural       Ni5P5
_chemical_formula_sum              "Ni5 P5"
_cell_length_a       5.77014422108891
_cell_length_b       6.129540404575626
_cell_length_c       6.24569845199585
_cell_angle_alpha    64.15333312501099
_cell_angle_beta     61.92398379189129
_cell_angle_gamma    62.08309393432636

_space_group_name_H-M_alt    "P 1"
_space_group_IT_number       1

loop_
  _space_group_symop_operation_xyz
  'x, y, z'

loop_
  _atom_site_type_symbol
  _atom_site_label
  _atom_site_symmetry_multiplicity
  _atom_site_fract_x
  _atom_site_fract_y
  _atom_site_fract_z
  _atom_site_occupancy
  Ni  Ni1       1.0  0.706325888633728  0.6384241580963135  0.15358367562294006  1.0000
  Ni  Ni2       1.0  0.056351672857999795  0.42892616987228394  0.872037410736084  1.0000
  Ni  Ni3       1.0  0.30342936515808105  0.9180571436882019  0.0756949633359909  1.0000
  Ni  Ni4       1.0  0.04738902673125267  0.42444103956222534  0.6497414112091064  1.0000
  Ni  Ni5       1.0  0.05020499601960182  0.40401941537857056  0.7387252449989319  1.0000
  P   P1        1.0  0.5694848299026489  0.9082940816879272  0.5280846953392029  1.0000
  P   P2        1.0  0.051436591893434525  0.9186995625495911  0.646226704120636  1.0000
  P   P3        1.0  0.5867210030555725  0.9227781295776367  0.8807458877563477  1.0000
  P   P4        1.0  0.588697075843811  0.4191775918006897  0.19150716066360474  1.0000
  P   P5        1.0  0.21601435542106626  0.5832671523094177  0.43061864376068115  1.0000
