data_image0
_chemical_formula_structural       BHNi5P3
_chemical_formula_sum              "B1 H1 Ni5 P3"
_cell_length_a       4.79636793321458
_cell_length_b       6.396790112232471
_cell_length_c       6.728151321411133
_cell_angle_alpha    119.72349865532983
_cell_angle_beta     89.79947400778352
_cell_angle_gamma    91.89953195246844

_space_group_name_H-M_alt    "P 1"
_space_group_IT_number       1

loop_
  _space_group_symop_operation_xyz
  'x, y, z'

loop_
  _atom_site_type_symbol
  _atom_site_label
  _atom_site_symmetry_multiplicity
  _atom_site_fract_x
  _atom_site_fract_y
  _atom_site_fract_z
  _atom_site_occupancy
  B   B1        1.0  0.3633798658847809  0.4043470323085785  0.818176805973053  1.0000
  H   H1        1.0  0.8991301655769348  0.8450738787651062  0.7325175404548645  1.0000
  Ni  Ni1       1.0  0.3985622823238373  0.45939555764198303  0.43683269619941717  1.0000
  Ni  Ni2       1.0  0.32528430223464966  0.0861612856388092  0.3279854655265808  1.0000
  Ni  Ni3       1.0  0.8830931782722473  0.347185879945755  0.01933682896196839  1.0000
  Ni  Ni4       1.0  0.9018632769584656  0.8618728518486023  0.4757966399192811  1.0000
  Ni  Ni5       1.0  0.6360235214233398  0.3324429988861084  0.9740716218948365  1.0000
  P   P1        1.0  0.9015976190567017  0.3516162633895874  0.7154319286346436  1.0000
  P   P2        1.0  0.9185944199562073  0.08195310831069946  0.8272201418876648  1.0000
  P   P3        1.0  0.3861735761165619  0.584985613822937  0.9876379370689393  1.0000
