data_image0
_chemical_formula_structural       Ni5P4Ru
_chemical_formula_sum              "Ni5 P4 Ru1"
_cell_length_a       5.7176790529105785
_cell_length_b       6.055147340551568
_cell_length_c       5.963489532470703
_cell_angle_alpha    63.50962745044339
_cell_angle_beta     63.11179589174688
_cell_angle_gamma    63.46068124267088

_space_group_name_H-M_alt    "P 1"
_space_group_IT_number       1

loop_
  _space_group_symop_operation_xyz
  'x, y, z'

loop_
  _atom_site_type_symbol
  _atom_site_label
  _atom_site_symmetry_multiplicity
  _atom_site_fract_x
  _atom_site_fract_y
  _atom_site_fract_z
  _atom_site_occupancy
  Ni  Ni1       1.0  0.1088622137904167  0.52384352684021  0.6492102146148682  1.0000
  Ni  Ni2       1.0  0.7716197371482849  0.32941463589668274  0.3337375223636627  1.0000
  Ni  Ni3       1.0  0.774584949016571  0.8154345750808716  0.23377817869186399  1.0000
  Ni  Ni4       1.0  0.11222849786281584  0.008417248725891113  0.141860693693161  1.0000
  Ni  Ni5       1.0  0.7691439390182495  0.33304470777511597  0.6570498943328857  1.0000
  P   P1        1.0  0.7753363847732544  0.8251094222068787  0.13046592473983765  1.0000
  P   P2        1.0  0.1282453089952469  0.026218144223093987  0.8622967004776  1.0000
  P   P3        1.0  0.457872062921524  0.3403637409210205  0.9396949410438536  1.0000
  P   P4        1.0  0.45674619078636164  0.8394805788993835  0.8784104585647582  1.0000
  Ru  Ru1       1.0  0.4215942025184631  0.2989836037158966  0.36674284934997553  1.0000
