data_image0
_chemical_formula_structural       Ge3ITeZn4
_chemical_formula_sum              "Ge3 I1 Te1 Zn4"
_cell_length_a       5.710271340159155
_cell_length_b       5.709284617224593
_cell_length_c       8.680521011352539
_cell_angle_alpha    90.31883704472756
_cell_angle_beta     89.87841867488731
_cell_angle_gamma    118.4447720166001

_space_group_name_H-M_alt    "P 1"
_space_group_IT_number       1

loop_
  _space_group_symop_operation_xyz
  'x, y, z'

loop_
  _atom_site_type_symbol
  _atom_site_label
  _atom_site_symmetry_multiplicity
  _atom_site_fract_x
  _atom_site_fract_y
  _atom_site_fract_z
  _atom_site_occupancy
  Ge  Ge1       1.0  0.40114709734916687  0.9159072637557983  0.23891121149063105  1.0000
  Ge  Ge2       1.0  0.24881555140018463  0.6601958870887756  0.7531918287277222  1.0000
  Ge  Ge3       1.0  0.8569237589836121  0.37000390887260437  0.16403286159038544  1.0000
  I   I1        1.0  0.40339961647987366  0.8859734535217285  0.34131777286529535  1.0000
  Te  Te1       1.0  0.8609141111373901  0.81389981508255  0.9256484508514404  1.0000
  Zn  Zn1       1.0  0.8447344899177551  0.06865089386701584  0.25185850262641907  1.0000
  Zn  Zn2       1.0  0.7257981896400452  0.5549716353416443  0.5269811153411865  1.0000
  Zn  Zn3       1.0  0.3574976921081543  0.4512934386730194  0.9544714689254761  1.0000
  Zn  Zn4       1.0  0.3664351999759674  0.5919935703277588  0.5083523988723755  1.0000
