data_image0
_chemical_formula_structural       FGaGe2SbZn4
_chemical_formula_sum              "F1 Ga1 Ge2 Sb1 Zn4"
_cell_length_a       5.443957066031084
_cell_length_b       5.564828456218178
_cell_length_c       8.378430366516113
_cell_angle_alpha    89.56311756266986
_cell_angle_beta     89.50477768942385
_cell_angle_gamma    91.01053375585566

_space_group_name_H-M_alt    "P 1"
_space_group_IT_number       1

loop_
  _space_group_symop_operation_xyz
  'x, y, z'

loop_
  _atom_site_type_symbol
  _atom_site_label
  _atom_site_symmetry_multiplicity
  _atom_site_fract_x
  _atom_site_fract_y
  _atom_site_fract_z
  _atom_site_occupancy
  F   F1        1.0  0.935580313205719  0.1619143933057785  0.20521697402000427  1.0000
  Ga  Ga1       1.0  0.4129135310649872  0.8602416515350342  0.5647305250167847  1.0000
  Ge  Ge1       1.0  0.42940086126327526  0.24539753794670108  0.004788336809724569  1.0000
  Ge  Ge2       1.0  0.9375545382499695  0.013534022495150566  0.6554308533668518  1.0000
  Sb  Sb1       1.0  0.43492406606674194  0.927259087562561  0.38179895281791687  1.0000
  Zn  Zn1       1.0  0.4466090202331543  0.49710446596145635  0.06871010363101959  1.0000
  Zn  Zn2       1.0  0.9275147318840027  0.31474167108535767  0.8292475938796997  1.0000
  Zn  Zn3       1.0  0.43787673115730286  0.07967506349086761  0.2918927073478699  1.0000
  Zn  Zn4       1.0  0.9400365948677063  0.0700644999742508  0.40342825651168823  1.0000
