data_image0
_chemical_formula_structural       Sn8Te
_chemical_formula_sum              "Sn8 Te1"
_cell_length_a       5.526725766637625
_cell_length_b       5.432363519354382
_cell_length_c       10.029632568359375
_cell_angle_alpha    89.63456060871772
_cell_angle_beta     89.06356352330613
_cell_angle_gamma    89.12350139458691

_space_group_name_H-M_alt    "P 1"
_space_group_IT_number       1

loop_
  _space_group_symop_operation_xyz
  'x, y, z'

loop_
  _atom_site_type_symbol
  _atom_site_label
  _atom_site_symmetry_multiplicity
  _atom_site_fract_x
  _atom_site_fract_y
  _atom_site_fract_z
  _atom_site_occupancy
  Sn  Sn1       1.0  0.8428173661231995  0.8242738246917723  0.5013738870620728  1.0000
  Sn  Sn2       1.0  0.10509206354618073  0.7913730144500731  0.7642802596092224  1.0000
  Sn  Sn3       1.0  0.10644655674695969  0.5397732257843018  0.16520489752292633  1.0000
  Sn  Sn4       1.0  0.10734886676073074  0.7341126799583435  0.9890332221984862  1.0000
  Sn  Sn5       1.0  0.10524392873048782  0.8782846927642821  0.25236400961875916  1.0000
  Sn  Sn6       1.0  0.6034804582595825  0.812798500061035  0.0981365442276001  1.0000
  Sn  Sn7       1.0  0.5995855927467346  0.41710644960403437  0.6912500858306885  1.0000
  Sn  Sn8       1.0  0.6035560965538025  0.24599093198776242  0.2632196843624115  1.0000
  Te  Te1       1.0  0.6087114214897156  0.0966091975569725  0.08236894011497498  1.0000
