data_image0
_chemical_formula_structural       Sn7TeZn
_chemical_formula_sum              "Sn7 Te1 Zn1"
_cell_length_a       5.361650061879744
_cell_length_b       5.0549922304228065
_cell_length_c       9.812311172485352
_cell_angle_alpha    90.93803082545341
_cell_angle_beta     91.19661626843413
_cell_angle_gamma    112.96421954284541

_space_group_name_H-M_alt    "P 1"
_space_group_IT_number       1

loop_
  _space_group_symop_operation_xyz
  'x, y, z'

loop_
  _atom_site_type_symbol
  _atom_site_label
  _atom_site_symmetry_multiplicity
  _atom_site_fract_x
  _atom_site_fract_y
  _atom_site_fract_z
  _atom_site_occupancy
  Sn  Sn1       1.0  0.4093141555786133  0.6348196268081665  0.24737748503684998  1.0000
  Sn  Sn2       1.0  0.40317174792289734  0.32621487975120544  0.590645968914032  1.0000
  Sn  Sn3       1.0  0.4051680266857147  0.13727521896362305  0.3810634911060333  1.0000
  Sn  Sn4       1.0  0.9047975540161133  0.5224671363830566  0.5826634764671326  1.0000
  Sn  Sn5       1.0  0.9027063250541687  0.34988489747047424  0.8132725358009338  1.0000
  Sn  Sn6       1.0  0.432020366191864  0.15749746561050415  0.7220505475997925  1.0000
  Sn  Sn7       1.0  0.9022070169448853  0.43115007877349854  0.11347796767950058  1.0000
  Te  Te1       1.0  0.903426468372345  0.6543822884559631  0.48075613379478455  1.0000
  Zn  Zn1       1.0  0.4061288833618164  0.11411802470684052  0.044313427060842514  1.0000
