data_image0
_chemical_formula_structural       Al4O2
_chemical_formula_sum              "Al4 O2"
_cell_length_a       4.500601780138844
_cell_length_b       4.539583477337753
_cell_length_c       4.469122886657715
_cell_angle_alpha    59.241891582751485
_cell_angle_beta     61.707690363898465
_cell_angle_gamma    57.56554608002742

_space_group_name_H-M_alt    "P 1"
_space_group_IT_number       1

loop_
  _space_group_symop_operation_xyz
  'x, y, z'

loop_
  _atom_site_type_symbol
  _atom_site_label
  _atom_site_symmetry_multiplicity
  _atom_site_fract_x
  _atom_site_fract_y
  _atom_site_fract_z
  _atom_site_occupancy
  Al  Al1       1.0  0.3498964011669159  0.9392423033714294  0.6983270645141602  1.0000
  Al  Al2       1.0  0.34003758430480957  0.24661104381084442  0.9283984899520874  1.0000
  Al  Al3       1.0  0.34918203949928284  0.4735708236694336  0.19590461254119873  1.0000
  Al  Al4       1.0  0.6721606254577637  0.855965793132782  0.9456808567047119  1.0000
  O   O1        1.0  0.9865776896476746  0.12096614390611649  0.4929070770740509  1.0000
  O   O2        1.0  0.961086094379425  0.5115271806716919  0.9323023557662964  1.0000
