data_image0
_chemical_formula_structural       Al3O3
_chemical_formula_sum              "Al3 O3"
_cell_length_a       4.228726125579549
_cell_length_b       4.935950358998076
_cell_length_c       4.6812214851379395
_cell_angle_alpha    65.192672547202
_cell_angle_beta     56.63131063221264
_cell_angle_gamma    62.3456396910756

_space_group_name_H-M_alt    "P 1"
_space_group_IT_number       1

loop_
  _space_group_symop_operation_xyz
  'x, y, z'

loop_
  _atom_site_type_symbol
  _atom_site_label
  _atom_site_symmetry_multiplicity
  _atom_site_fract_x
  _atom_site_fract_y
  _atom_site_fract_z
  _atom_site_occupancy
  Al  Al1       1.0  0.8594873547554016  0.7750139236450195  0.9581883549690247  1.0000
  Al  Al2       1.0  0.2816171646118164  0.2518341839313507  0.4536339044570923  1.0000
  Al  Al3       1.0  0.12567631900310516  0.7256215214729309  0.4593239426612854  1.0000
  O   O1        1.0  0.3862914443016052  0.10221625119447708  0.310539573431015  1.0000
  O   O2        1.0  0.007802685257047416  0.4333934187889099  0.9600962400436401  1.0000
  O   O3        1.0  0.7530964016914368  0.2468881756067276  0.4509807527065277  1.0000
