data_image0
_chemical_formula_structural       Ba4O2
_chemical_formula_sum              "Ba4 O2"
_cell_length_a       6.340604633184048
_cell_length_b       4.942000344567896
_cell_length_c       6.156774044036865
_cell_angle_alpha    119.22772720665235
_cell_angle_beta     114.9996482326585
_cell_angle_gamma    113.17444206967079

_space_group_name_H-M_alt    "P 1"
_space_group_IT_number       1

loop_
  _space_group_symop_operation_xyz
  'x, y, z'

loop_
  _atom_site_type_symbol
  _atom_site_label
  _atom_site_symmetry_multiplicity
  _atom_site_fract_x
  _atom_site_fract_y
  _atom_site_fract_z
  _atom_site_occupancy
  Ba  Ba1       1.0  0.9784606099128721  0.28634941577911355  0.9406039118766781  1.0000
  Ba  Ba2       1.0  0.14892467856407163  0.09100712835788724  0.5548860430717468  1.0000
  Ba  Ba3       1.0  0.07069560140371323  0.7622280716896057  0.19789224863052368  1.0000
  Ba  Ba4       1.0  0.4966047704219818  0.6741093993186951  0.8411420583724976  1.0000
  O   O1        1.0  0.5448429584503175  0.7921110391616822  0.6197026371955872  1.0000
  O   O2        1.0  0.5634187459945679  0.8219249844551086  0.379992812871933  1.0000
