data_image0
_chemical_formula_structural       IOVZn2Zr
_chemical_formula_sum              "I1 O1 V1 Zn2 Zr1"
_cell_length_a       5.152474726469909
_cell_length_b       5.321519320214692
_cell_length_c       6.3993425369262695
_cell_angle_alpha    113.26242107806968
_cell_angle_beta     114.26784135917771
_cell_angle_gamma    90.53970142302806

_space_group_name_H-M_alt    "P 1"
_space_group_IT_number       1

loop_
  _space_group_symop_operation_xyz
  'x, y, z'

loop_
  _atom_site_type_symbol
  _atom_site_label
  _atom_site_symmetry_multiplicity
  _atom_site_fract_x
  _atom_site_fract_y
  _atom_site_fract_z
  _atom_site_occupancy
  I   I1        1.0  0.7575092911720276  0.40830808877944946  0.778976321220398  1.0000
  O   O1        1.0  0.38762229681015015  0.28252407908439636  0.5358048677444458  1.0000
  V   V1        1.0  0.7737700939178467  0.3396536707878113  0.49529987573623663  1.0000
  Zn  Zn1       1.0  0.3024178743362427  0.9091246128082275  0.18621212244033813  1.0000
  Zn  Zn2       1.0  0.7607719898223877  0.8709906339645386  0.9431496858596803  1.0000
  Zr  Zr1       1.0  0.8246463537216187  0.2544947862625122  0.7105494737625122  1.0000
