data_image0
_chemical_formula_structural       F6Na3
_chemical_formula_sum              "F6 Na3"
_cell_length_a       5.530176377907558
_cell_length_b       5.6288918964367705
_cell_length_c       5.911378383636475
_cell_angle_alpha    64.96372629690597
_cell_angle_beta     64.84839617143648
_cell_angle_gamma    63.45479301983714

_space_group_name_H-M_alt    "P 1"
_space_group_IT_number       1

loop_
  _space_group_symop_operation_xyz
  'x, y, z'

loop_
  _atom_site_type_symbol
  _atom_site_label
  _atom_site_symmetry_multiplicity
  _atom_site_fract_x
  _atom_site_fract_y
  _atom_site_fract_z
  _atom_site_occupancy
  F   F1        1.0  0.7681044340133667  0.8898043632507324  0.04398629814386368  1.0000
  F   F2        1.0  0.24032217264175418  0.8605549335479736  0.22392337024211884  1.0000
  F   F3        1.0  0.9216428995132447  0.5571751594543457  0.7170383930206299  1.0000
  F   F4        1.0  0.14562010765075684  0.3699706792831421  0.4022328853607178  1.0000
  F   F5        1.0  0.4944054782390595  0.38025882840156555  0.05831454321742058  1.0000
  F   F6        1.0  0.5295808911323547  0.7200590372085571  0.30606114864349365  1.0000
  Na  Na1       1.0  0.02094366028904915  0.8759638071060181  0.4329030215740204  1.0000
  Na  Na2       1.0  0.5539865493774414  0.8968450427055359  0.9094865322113037  1.0000
  Na  Na3       1.0  0.31858596205711365  0.12776543200016022  0.712216317653656  1.0000
