data_image0
_chemical_formula_structural       F7Na2
_chemical_formula_sum              "F7 Na2"
_cell_length_a       4.322107134489227
_cell_length_b       5.200554493995888
_cell_length_c       6.753753185272217
_cell_angle_alpha    114.86336748112984
_cell_angle_beta     103.45088500523543
_cell_angle_gamma    88.75351986722282

_space_group_name_H-M_alt    "P 1"
_space_group_IT_number       1

loop_
  _space_group_symop_operation_xyz
  'x, y, z'

loop_
  _atom_site_type_symbol
  _atom_site_label
  _atom_site_symmetry_multiplicity
  _atom_site_fract_x
  _atom_site_fract_y
  _atom_site_fract_z
  _atom_site_occupancy
  F   F1        1.0  0.540433943271637  0.15384279191493988  0.3347034156322479  1.0000
  F   F2        1.0  0.6665871739387512  0.5258275866508484  0.9971583485603333  1.0000
  F   F3        1.0  0.23669786751270294  0.41935619711875916  0.9911002516746521  1.0000
  F   F4        1.0  0.7145594358444214  0.02064944989979267  0.0016940664499998093  1.0000
  F   F5        1.0  0.7306716442108154  0.6978093981742859  0.6354052424430847  1.0000
  F   F6        1.0  0.9715660214424133  0.9013453722000122  0.5069250464439392  1.0000
  F   F7        1.0  0.2289169430732727  0.9033064246177673  0.6931954026222229  1.0000
  Na  Na1       1.0  0.2681160867214203  0.2688348889350891  0.21723635494709015  1.0000
  Na  Na2       1.0  0.7546689510345459  0.9720786213874817  0.8417819142341614  1.0000
