data_image0
_chemical_formula_structural       AlF4Na3Zn
_chemical_formula_sum              "Al1 F4 Na3 Zn1"
_cell_length_a       4.872064163584839
_cell_length_b       5.007029277668504
_cell_length_c       6.257349014282227
_cell_angle_alpha    108.00440541769565
_cell_angle_beta     97.18635825189729
_cell_angle_gamma    110.29286063679197

_space_group_name_H-M_alt    "P 1"
_space_group_IT_number       1

loop_
  _space_group_symop_operation_xyz
  'x, y, z'

loop_
  _atom_site_type_symbol
  _atom_site_label
  _atom_site_symmetry_multiplicity
  _atom_site_fract_x
  _atom_site_fract_y
  _atom_site_fract_z
  _atom_site_occupancy
  Al  Al1       1.0  0.3572531044483185  0.520642101764679  0.7006516456604005  1.0000
  F   F1        1.0  0.18226517736911774  0.879280149936676  0.6744164824485779  1.0000
  F   F2        1.0  0.6462370157241821  0.20379801094532013  0.6025955677032471  1.0000
  F   F3        1.0  0.6461881399154663  0.43700268864631653  0.8856119513511659  1.0000
  F   F4        1.0  0.5802927613258362  0.6961100697517395  0.5570098757743835  1.0000
  Na  Na1       1.0  0.9112476706504822  0.07151985913515091  0.13389301300048828  1.0000
  Na  Na2       1.0  0.9193874001502991  0.8919930458068848  0.5388405323028564  1.0000
  Na  Na3       1.0  0.38994139432907104  0.5180211663246155  0.07782503217458725  1.0000
  Zn  Zn1       1.0  0.9095951914787292  0.8876999616622925  0.10283623635768892  1.0000
