data_image0
_chemical_formula_structural       F6Na3
_chemical_formula_sum              "F6 Na3"
_cell_length_a       4.003018216814554
_cell_length_b       5.449438937088036
_cell_length_c       7.021096706390381
_cell_angle_alpha    116.04488521003606
_cell_angle_beta     93.89958099599518
_cell_angle_gamma    87.24476070858363

_space_group_name_H-M_alt    "P 1"
_space_group_IT_number       1

loop_
  _space_group_symop_operation_xyz
  'x, y, z'

loop_
  _atom_site_type_symbol
  _atom_site_label
  _atom_site_symmetry_multiplicity
  _atom_site_fract_x
  _atom_site_fract_y
  _atom_site_fract_z
  _atom_site_occupancy
  F   F1        1.0  0.2409627437591553  0.2822650671005249  0.07421642541885376  1.0000
  F   F2        1.0  0.7136951684951783  0.12961015105247498  0.29976946115493774  1.0000
  F   F3        1.0  0.24296778440475467  0.9034914374351501  0.1965480893850327  1.0000
  F   F4        1.0  0.26342979073524475  0.6172688603401184  0.8058555722236633  1.0000
  F   F5        1.0  0.26569849252700806  0.6088874936103821  0.8130039572715759  1.0000
  F   F6        1.0  0.7449243664741517  0.12730692327022552  0.6895459294319153  1.0000
  Na  Na1       1.0  0.7433351874351503  0.4713616967201233  0.9658685326576233  1.0000
  Na  Na2       1.0  0.24200919270515445  0.8721709251403809  0.6528782248497009  1.0000
  Na  Na3       1.0  0.7480952739715577  0.4673008918762207  0.06542470306158066  1.0000
