data_image0
_chemical_formula_structural       CoFIIn2IrNPbSr3TbVZn
_chemical_formula_sum              "Co1 F1 I1 In2 Ir1 N1 Pb1 Sr3 Tb1 V1 Zn1"
_cell_length_a       6.978277468086416
_cell_length_b       7.1832363963610835
_cell_length_c       7.329601764678955
_cell_angle_alpha    58.18551061487457
_cell_angle_beta     61.34109994070198
_cell_angle_gamma    59.373512618764295

_space_group_name_H-M_alt    "P 1"
_space_group_IT_number       1

loop_
  _space_group_symop_operation_xyz
  'x, y, z'

loop_
  _atom_site_type_symbol
  _atom_site_label
  _atom_site_symmetry_multiplicity
  _atom_site_fract_x
  _atom_site_fract_y
  _atom_site_fract_z
  _atom_site_occupancy
  Co  Co1       1.0  0.8496743440628052  0.07830895483493805  0.5234528183937073  1.0000
  F   F1        1.0  0.6146424412727356  0.3410407602787018  0.12532280385494232  1.0000
  I   I1        1.0  0.07721736282110214  0.2740916907787323  0.6742687225341798  1.0000
  In  In1       1.0  0.3561839759349823  0.0852227434515953  0.5873446464538574  1.0000
  In  In2       1.0  0.838693380355835  0.6578398942947388  0.5530471205711365  1.0000
  Ir  Ir1       1.0  0.1887641996145248  0.4846599698066712  0.13344940543174744  1.0000
  N   N1        1.0  0.5106803178787231  0.2544178366661072  0.06420052051544184  1.0000
  Pb  Pb1       1.0  0.20588546991348267  0.6717159152030945  0.6770328283309938  1.0000
  Sr  Sr1       1.0  0.16412453353405  0.09739866107702257  0.4420426785945893  1.0000
  Sr  Sr2       1.0  0.35160645842552185  0.4276959896087647  0.48913866281509405  1.0000
  Sr  Sr3       1.0  0.8478439450263977  0.1355295330286026  0.7039442658424379  1.0000
  Tb  Tb1       1.0  0.3934336006641388  0.31538811326026917  0.7682414650917054  1.0000
  V   V1        1.0  0.15584799647331238  0.2063005715608597  0.4419523179531098  1.0000
  Zn  Zn1       1.0  0.8530244827270508  0.8686125278472902  0.36252844333648687  1.0000
