data_image0
_chemical_formula_structural       AsGeINO2P2SeSr3TaTi
_chemical_formula_sum              "As1 Ge1 I1 N1 O2 P2 Se1 Sr3 Ta1 Ti1"
_cell_length_a       6.492892835926289
_cell_length_b       6.6428039746515966
_cell_length_c       7.0814080238342285
_cell_angle_alpha    78.23532411895432
_cell_angle_beta     70.21421229984914
_cell_angle_gamma    64.00103324329362

_space_group_name_H-M_alt    "P 1"
_space_group_IT_number       1

loop_
  _space_group_symop_operation_xyz
  'x, y, z'

loop_
  _atom_site_type_symbol
  _atom_site_label
  _atom_site_symmetry_multiplicity
  _atom_site_fract_x
  _atom_site_fract_y
  _atom_site_fract_z
  _atom_site_occupancy
  As  As1       1.0  0.12352500110864639  0.5088110566139221  0.14616566896438596  1.0000
  Ge  Ge1       1.0  0.13440850377082825  0.7197688817977905  0.23708529770374295  1.0000
  I   I1        1.0  0.14136730134487152  0.1490938812494278  0.42992293834686274  1.0000
  N   N1        1.0  0.10946827381849289  0.5128073692321777  0.4650323092937469  1.0000
  O   O1        1.0  0.28923046588897705  0.511476993560791  0.6713244318962096  1.0000
  O   O2        1.0  0.7515393495559692  0.40995603799819946  0.014121721498668192  1.0000
  P   P1        1.0  0.13181911408901215  0.19827871024608612  0.29049161076545715  1.0000
  P   P2        1.0  0.6130475401878357  0.3753238916397095  0.7984305024147033  1.0000
  Se  Se1       1.0  0.7741702198982239  0.3782575726509094  0.1443711817264557  1.0000
  Sr  Sr1       1.0  0.6205823421478271  0.48406434059143066  0.28070858120918274  1.0000
  Sr  Sr2       1.0  0.6396202445030212  0.7041500806808472  0.5238966345787048  1.0000
  Sr  Sr3       1.0  0.1368471086025238  0.668718695640564  0.958095610141754  1.0000
  Ta  Ta1       1.0  0.7663530707359314  0.13032767176628113  0.2761825919151306  1.0000
  Ti  Ti1       1.0  0.13604098558425903  0.22287508845329285  0.3851748406887054  1.0000
