data_image0
_chemical_formula_structural       InO2Sr6Ta5
_chemical_formula_sum              "In1 O2 Sr6 Ta5"
_cell_length_a       6.0141425410358025
_cell_length_b       5.435736787520167
_cell_length_c       5.647971153259277
_cell_angle_alpha    61.23699337025067
_cell_angle_beta     62.18706367346496
_cell_angle_gamma    63.28617643035859

_space_group_name_H-M_alt    "P 1"
_space_group_IT_number       1

loop_
  _space_group_symop_operation_xyz
  'x, y, z'

loop_
  _atom_site_type_symbol
  _atom_site_label
  _atom_site_symmetry_multiplicity
  _atom_site_fract_x
  _atom_site_fract_y
  _atom_site_fract_z
  _atom_site_occupancy
  In  In1       1.0  0.3993605673313141  0.8202630281448364  0.4855777323246002  1.0000
  O   O1        1.0  0.401301771402359  0.9575565457344054  0.4917408525943756  1.0000
  O   O2        1.0  0.08907482028007507  0.19266703724861145  0.19084975123405457  1.0000
  Sr  Sr1       1.0  0.2197742760181427  0.5570438504219055  0.8285765051841736  1.0000
  Sr  Sr2       1.0  0.032302096486091614  0.7975789904594421  0.9711050391197205  1.0000
  Sr  Sr3       1.0  0.5926010608673096  0.3896556496620178  0.6993770003318787  1.0000
  Sr  Sr4       1.0  0.688304603099823  0.6352388858795166  0.700041651725769  1.0000
  Sr  Sr5       1.0  0.6420798301696777  0.8491078615188599  0.6061804294586182  1.0000
  Sr  Sr6       1.0  0.7415648698806763  0.6527470946311951  0.8823787569999695  1.0000
  Ta  Ta1       1.0  0.9655033349990845  0.7673445343971252  0.33632874488830566  1.0000
  Ta  Ta2       1.0  0.3932564854621887  0.15750063955783844  0.494930624961853  1.0000
  Ta  Ta3       1.0  0.39636877179145813  0.3131442666053772  0.2626674175262451  1.0000
  Ta  Ta4       1.0  0.8245707750320435  0.20017585158348083  0.83221036195755  1.0000
  Ta  Ta5       1.0  0.9351312518119812  0.32704856991767883  0.48440223932266235  1.0000
