data_image0
_chemical_formula_structural       CoIInLuO3PbSeSiSrTi2Tl
_chemical_formula_sum              "Co1 I1 In1 Lu1 O3 Pb1 Se1 Si1 Sr1 Ti2 Tl1"
_cell_length_a       6.852638323274438
_cell_length_b       6.819142507686035
_cell_length_c       7.252366065979004
_cell_angle_alpha    63.65900399553602
_cell_angle_beta     61.87949300628299
_cell_angle_gamma    60.18410522143245

_space_group_name_H-M_alt    "P 1"
_space_group_IT_number       1

loop_
  _space_group_symop_operation_xyz
  'x, y, z'

loop_
  _atom_site_type_symbol
  _atom_site_label
  _atom_site_symmetry_multiplicity
  _atom_site_fract_x
  _atom_site_fract_y
  _atom_site_fract_z
  _atom_site_occupancy
  Co  Co1       1.0  0.057353489100933075  0.6574366688728333  0.2564805746078491  1.0000
  I   I1        1.0  0.026137735694646853  0.23777005076408383  0.9863789081573486  1.0000
  In  In1       1.0  0.25539785623550415  0.5146594047546387  0.7287387251853943  1.0000
  Lu  Lu1       1.0  0.3389839231967926  0.062336243689060204  0.605850100517273  1.0000
  O   O1        1.0  0.37838879227638245  0.2837684750556946  0.41600772738456726  1.0000
  O   O2        1.0  0.7270326018333435  0.3320997357368469  0.2721727788448334  1.0000
  O   O3        1.0  0.07580206543207169  0.5336127281188965  0.8246875405311584  1.0000
  Pb  Pb1       1.0  0.7078626751899719  0.42581897974014277  0.23382461071014404  1.0000
  Se  Se1       1.0  0.3305060863494873  0.5610656142234802  0.2783384621143341  1.0000
  Si  Si1       1.0  0.6577534675598145  0.8885135650634765  0.6392626166343689  1.0000
  Sr  Sr1       1.0  0.07448403537273407  0.5568179488182068  0.25070592761039734  1.0000
  Ti  Ti1       1.0  0.7081219553947449  0.5107826590538025  0.010121714323759079  1.0000
  Ti  Ti2       1.0  0.0035868748091161615  0.8999623656272887  0.2694997191429138  1.0000
  Tl  Tl1       1.0  0.6048005223274231  0.1959869861602783  0.5550761222839355  1.0000
