data_image0
_chemical_formula_structural       GeIIn3NOP3Sr4
_chemical_formula_sum              "Ge1 I1 In3 N1 O1 P3 Sr4"
_cell_length_a       7.384113544422902
_cell_length_b       7.4350270459356285
_cell_length_c       7.437827110290527
_cell_angle_alpha    68.51773008100665
_cell_angle_beta     68.25389344404142
_cell_angle_gamma    72.54943046622006

_space_group_name_H-M_alt    "P 1"
_space_group_IT_number       1

loop_
  _space_group_symop_operation_xyz
  'x, y, z'

loop_
  _atom_site_type_symbol
  _atom_site_label
  _atom_site_symmetry_multiplicity
  _atom_site_fract_x
  _atom_site_fract_y
  _atom_site_fract_z
  _atom_site_occupancy
  Ge  Ge1       1.0  0.7695035338401794  0.8486383557319641  0.7874539494514466  1.0000
  I   I1        1.0  0.599335253238678  0.06764789670705795  0.9208684563636781  1.0000
  In  In1       1.0  0.1104743629693985  0.03788648173213005  0.7120567560195924  1.0000
  In  In2       1.0  0.6040191054344177  0.05056228116154671  0.840454161167145  1.0000
  In  In3       1.0  0.6422963738441467  0.02259856089949608  0.7715439796447755  1.0000
  N   N1        1.0  0.21463872492313385  0.8023660182952881  0.26844462752342224  1.0000
  O   O1        1.0  0.1959507167339325  0.6764221787452698  0.6888747215270996  1.0000
  P   P1        1.0  0.12840890884399414  0.22218769788742065  0.10889890789985658  1.0000
  P   P2        1.0  0.6221645474433899  0.48740383982658386  0.05622075870633126  1.0000
  P   P3        1.0  0.696300208568573  0.8807689547538757  0.23234100639820102  1.0000
  Sr  Sr1       1.0  0.11920386552810669  0.27656689286231995  0.8286837935447694  1.0000
  Sr  Sr2       1.0  0.1235201433300972  0.18912075459957123  0.1420176923274994  1.0000
  Sr  Sr3       1.0  0.6005744338035583  0.07085142284631729  0.7832770347595216  1.0000
  Sr  Sr4       1.0  0.1521902233362198  0.6265426874160767  0.370153158903122  1.0000
