data_image0
_chemical_formula_structural       In4O2Sr3Ta5
_chemical_formula_sum              "In4 O2 Sr3 Ta5"
_cell_length_a       6.157361996343406
_cell_length_b       5.7480553790671065
_cell_length_c       5.897504806518555
_cell_angle_alpha    62.888909694421415
_cell_angle_beta     62.683859900233024
_cell_angle_gamma    63.06423736443633

_space_group_name_H-M_alt    "P 1"
_space_group_IT_number       1

loop_
  _space_group_symop_operation_xyz
  'x, y, z'

loop_
  _atom_site_type_symbol
  _atom_site_label
  _atom_site_symmetry_multiplicity
  _atom_site_fract_x
  _atom_site_fract_y
  _atom_site_fract_z
  _atom_site_occupancy
  In  In1       1.0  0.5155189037322998  0.6271197199821472  0.7045043706893921  1.0000
  In  In2       1.0  0.005614223424345255  0.7786972522735596  0.1450076401233673  1.0000
  In  In3       1.0  0.7559314370155334  0.5931910276412964  0.8234280943870544  1.0000
  In  In4       1.0  0.0045125484466552734  0.28451377153396606  0.7581068873405457  1.0000
  O   O1        1.0  0.4799470007419586  0.6819256544113159  0.08748725056648254  1.0000
  O   O2        1.0  0.10012091696262362  0.47557571530342096  0.6851051449775696  1.0000
  Sr  Sr1       1.0  0.9821317791938782  0.3694324791431427  0.9752587080001832  1.0000
  Sr  Sr2       1.0  0.5312091708183289  0.32971978187561035  0.8626976609230042  1.0000
  Sr  Sr3       1.0  0.5152775049209595  0.48438370227813715  0.26111045479774475  1.0000
  Ta  Ta1       1.0  0.7903953194618225  0.7660123109817505  0.0473007932305336  1.0000
  Ta  Ta2       1.0  0.5199099779129028  0.5358309745788574  0.7827602028846741  1.0000
  Ta  Ta3       1.0  0.24865438044071203  0.9703039526939391  0.1152263805270195  1.0000
  Ta  Ta4       1.0  0.26727592945098877  0.49348807334899897  0.47934007644653326  1.0000
  Ta  Ta5       1.0  0.2927756309509278  0.9258301854133605  0.5146788358688354  1.0000
