data_image0
_chemical_formula_structural       AsGaIPPtZr
_chemical_formula_sum              "As1 Ga1 I1 P1 Pt1 Zr1"
_cell_length_a       4.881683360711864
_cell_length_b       4.783531445975356
_cell_length_c       5.537611484527588
_cell_angle_alpha    74.36371256449846
_cell_angle_beta     63.620569419374505
_cell_angle_gamma    64.25469307166617

_space_group_name_H-M_alt    "P 1"
_space_group_IT_number       1

loop_
  _space_group_symop_operation_xyz
  'x, y, z'

loop_
  _atom_site_type_symbol
  _atom_site_label
  _atom_site_symmetry_multiplicity
  _atom_site_fract_x
  _atom_site_fract_y
  _atom_site_fract_z
  _atom_site_occupancy
  As  As1       1.0  0.6349657773971558  0.48063021898269653  0.5585719347000122  1.0000
  Ga  Ga1       1.0  0.6409510970115662  0.39418479800224304  0.9747133255004883  1.0000
  I   I1        1.0  0.6338706016540527  0.1720653772354126  0.513664722442627  1.0000
  P   P1        1.0  0.135399729013443  0.026940353214740753  0.5997866988182068  1.0000
  Pt  Pt1       1.0  0.3195687234401703  0.5908108949661255  0.37308362126350403  1.0000
  Zr  Zr1       1.0  0.13697384297847748  0.25465017557144165  0.0918269231915474  1.0000
