data_image0
_chemical_formula_structural       DyGePPd2Yb
_chemical_formula_sum              "Dy1 Ge1 P1 Pd2 Yb1"
_cell_length_a       4.255087513957793
_cell_length_b       3.8267073728587393
_cell_length_c       5.0696539878845215
_cell_angle_alpha    87.46053503670745
_cell_angle_beta     92.15434579568992
_cell_angle_gamma    90.9782207447281

_space_group_name_H-M_alt    "P 1"
_space_group_IT_number       1

loop_
  _space_group_symop_operation_xyz
  'x, y, z'

loop_
  _atom_site_type_symbol
  _atom_site_label
  _atom_site_symmetry_multiplicity
  _atom_site_fract_x
  _atom_site_fract_y
  _atom_site_fract_z
  _atom_site_occupancy
  Dy  Dy1       1.0  0.4107317328453064  0.13736844062805176  0.6874434351921082  1.0000
  Ge  Ge1       1.0  0.9508703351020813  0.6623023152351378  0.2131304144859314  1.0000
  P   P1        1.0  0.7002245187759399  0.6682870388031005  0.10689646005630493  1.0000
  Pd  Pd1       1.0  0.9645518660545349  0.13871103525161743  0.6125757098197937  1.0000
  Pd  Pd2       1.0  0.4165041148662567  0.8378356099128722  0.8621878027915955  1.0000
  Yb  Yb1       1.0  0.9316433072090149  0.03662814199924469  0.09962566941976547  1.0000
