data_image0
_chemical_formula_structural       HIn3La4Sm
_chemical_formula_sum              "H1 In3 La4 Sm1"
_cell_length_a       4.774215125820264
_cell_length_b       6.530201978280727
_cell_length_c       7.109752178192139
_cell_angle_alpha    90.76388904669285
_cell_angle_beta     90.02289775635808
_cell_angle_gamma    91.00995866508762

_space_group_name_H-M_alt    "P 1"
_space_group_IT_number       1

loop_
  _space_group_symop_operation_xyz
  'x, y, z'

loop_
  _atom_site_type_symbol
  _atom_site_label
  _atom_site_symmetry_multiplicity
  _atom_site_fract_x
  _atom_site_fract_y
  _atom_site_fract_z
  _atom_site_occupancy
  H   H1        1.0  0.628945529460907  0.8488845229148864  0.10460117459297182  1.0000
  In  In1       1.0  0.10519246011972427  0.2774064540863037  0.7098231911659242  1.0000
  In  In2       1.0  0.6140456199645996  0.32368969917297363  0.7569106817245485  1.0000
  In  In3       1.0  0.10760831087827682  0.7481692433357239  0.8658031821250917  1.0000
  La  La1       1.0  0.1042485386133194  0.22150579094886777  0.16170406341552737  1.0000
  La  La2       1.0  0.11428434401750565  0.9625103473663329  0.7390361428260804  1.0000
  La  La3       1.0  0.6053494215011597  0.17218059301376343  0.8489032387733461  1.0000
  La  La4       1.0  0.10274044424295425  0.2850090265274048  0.4244255125522614  1.0000
  Sm  Sm1       1.0  0.6021813750267029  0.8431600928306578  0.8812162876129152  1.0000
