data_image0
_chemical_formula_structural       La2PdTl6
_chemical_formula_sum              "La2 Pd1 Tl6"
_cell_length_a       3.0671663635488002
_cell_length_b       7.603658278463664
_cell_length_c       5.959670066833496
_cell_angle_alpha    118.95192323236576
_cell_angle_beta     92.12551267498476
_cell_angle_gamma    89.39357498840192

_space_group_name_H-M_alt    "P 1"
_space_group_IT_number       1

loop_
  _space_group_symop_operation_xyz
  'x, y, z'

loop_
  _atom_site_type_symbol
  _atom_site_label
  _atom_site_symmetry_multiplicity
  _atom_site_fract_x
  _atom_site_fract_y
  _atom_site_fract_z
  _atom_site_occupancy
  La  La1       1.0  0.18618877232074738  0.9196810722351074  0.23943248391151437  1.0000
  La  La2       1.0  0.30798789858818054  0.1970577985048294  0.8854556083679199  1.0000
  Pd  Pd1       1.0  0.773857057094574  0.4116992652416229  0.3018968403339386  1.0000
  Tl  Tl1       1.0  0.29169732332229614  0.6380118727684021  0.10655275732278824  1.0000
  Tl  Tl2       1.0  0.7941505312919617  0.9420046210289001  0.837665319442749  1.0000
  Tl  Tl3       1.0  0.7928702235221863  0.7374740839004517  0.5947241187095642  1.0000
  Tl  Tl4       1.0  0.2801808714866638  0.19472385942935944  0.9431927800178528  1.0000
  Tl  Tl5       1.0  0.7777752876281738  0.7404298186302185  0.12678663432598122  1.0000
  Tl  Tl6       1.0  0.7782644629478455  0.7966926693916321  0.3811702132225038  1.0000
