data_image0
_chemical_formula_structural       La2Pd3PtTl3
_chemical_formula_sum              "La2 Pd3 Pt1 Tl3"
_cell_length_a       4.379963097332117
_cell_length_b       5.0863926525997165
_cell_length_c       5.20640754699707
_cell_angle_alpha    146.16989374316313
_cell_angle_beta     92.72036481495452
_cell_angle_gamma    77.80660429505312

_space_group_name_H-M_alt    "P 1"
_space_group_IT_number       1

loop_
  _space_group_symop_operation_xyz
  'x, y, z'

loop_
  _atom_site_type_symbol
  _atom_site_label
  _atom_site_symmetry_multiplicity
  _atom_site_fract_x
  _atom_site_fract_y
  _atom_site_fract_z
  _atom_site_occupancy
  La  La1       1.0  0.34094905853271484  0.8225024938583374  0.03631227836012837  1.0000
  La  La2       1.0  0.8314183950424194  0.06843048334121703  0.28752660751342773  1.0000
  Pd  Pd1       1.0  0.5881941914558411  0.1668873727321625  0.6400676965713501  1.0000
  Pd  Pd2       1.0  0.8393519520759583  0.9072669148445128  0.23731693625450137  1.0000
  Pd  Pd3       1.0  0.3525088131427765  0.11305784434080135  0.9395312666893006  1.0000
  Pt  Pt1       1.0  0.31118398904800415  0.1401975452899933  0.14794494211673737  1.0000
  Tl  Tl1       1.0  0.8267639875411987  0.32770091295242304  0.282381534576416  1.0000
  Tl  Tl2       1.0  0.32411903142929077  0.8271889090538024  0.27094528079032904  1.0000
  Tl  Tl3       1.0  0.8300554752349854  0.8824801445007324  0.11504547297954565  1.0000
