data_image0
_chemical_formula_structural       HLa4Pd2TiZn
_chemical_formula_sum              "H1 La4 Pd2 Ti1 Zn1"
_cell_length_a       4.503044288571148
_cell_length_b       6.389463549818315
_cell_length_c       6.967731475830078
_cell_angle_alpha    92.23797383589368
_cell_angle_beta     91.36818398776299
_cell_angle_gamma    109.18936438130542

_space_group_name_H-M_alt    "P 1"
_space_group_IT_number       1

loop_
  _space_group_symop_operation_xyz
  'x, y, z'

loop_
  _atom_site_type_symbol
  _atom_site_label
  _atom_site_symmetry_multiplicity
  _atom_site_fract_x
  _atom_site_fract_y
  _atom_site_fract_z
  _atom_site_occupancy
  H   H1        1.0  0.9788708090782166  0.07631422579288483  0.27296939492225647  1.0000
  La  La1       1.0  0.9935892224311829  0.16737276315689087  0.32052525877952576  1.0000
  La  La2       1.0  0.7380573749542236  0.010833061300218105  0.15302391350269318  1.0000
  La  La3       1.0  0.4794619679450989  0.8640293478965759  0.841494083404541  1.0000
  La  La4       1.0  0.9594777226448059  0.6260654926300049  0.7818133234977722  1.0000
  Pd  Pd1       1.0  0.00037696034996769086  0.6925828456878662  0.7278763055801392  1.0000
  Pd  Pd2       1.0  0.9976702332496643  0.8410354256629944  0.22307519614696503  1.0000
  Ti  Ti1       1.0  0.5126125812530518  0.07535915076732635  0.9484981298446655  1.0000
  Zn  Zn1       1.0  0.4931606650352478  0.22223076224327087  0.3581802546977997  1.0000
