data_image0
_chemical_formula_structural       Ce2DyI2MgSb5Tb
_chemical_formula_sum              "Ce2 Dy1 I2 Mg1 Sb5 Tb1"
_cell_length_a       7.019912270108256
_cell_length_b       9.609600813917659
_cell_length_c       10.352938652038574
_cell_angle_alpha    122.85122066571547
_cell_angle_beta     89.49711160128965
_cell_angle_gamma    90.12756510144123

_space_group_name_H-M_alt    "P 1"
_space_group_IT_number       1

loop_
  _space_group_symop_operation_xyz
  'x, y, z'

loop_
  _atom_site_type_symbol
  _atom_site_label
  _atom_site_symmetry_multiplicity
  _atom_site_fract_x
  _atom_site_fract_y
  _atom_site_fract_z
  _atom_site_occupancy
  Ce  Ce1       1.0  0.2028795778751373  0.43505406379699707  0.3972277045249939  1.0000
  Ce  Ce2       1.0  0.6943448781967162  0.6025645136833191  0.3176206946372986  1.0000
  Dy  Dy1       1.0  0.7054404616355895  0.049135614186525345  0.6737006306648256  1.0000
  I   I1        1.0  0.6937089562416076  0.4928688704967499  0.902142345905304  1.0000
  I   I2        1.0  0.6922773122787474  0.6598840951919556  0.35242375731468206  1.0000
  Mg  Mg1       1.0  0.6921546459197997  0.7139900922775269  0.3078794479370117  1.0000
  Sb  Sb1       1.0  0.693002164363861  0.15191686153411865  0.8648197650909424  1.0000
  Sb  Sb2       1.0  0.7113130688667296  0.2851128876209259  0.7797423601150513  1.0000
  Sb  Sb3       1.0  0.6945087909698485  0.7419502139091492  0.32753968238830566  1.0000
  Sb  Sb4       1.0  0.1935988664627075  0.9696792960166931  0.8750969767570496  1.0000
  Sb  Sb5       1.0  0.1951722204685211  0.05177381634712219  0.40646886825561523  1.0000
  Tb  Tb1       1.0  0.1958561688661575  0.26113414764404297  0.9969677925109863  1.0000
