data_image0
_chemical_formula_structural       CeDyFeI2Sb6Tb
_chemical_formula_sum              "Ce1 Dy1 Fe1 I2 Sb6 Tb1"
_cell_length_a       6.62750075939834
_cell_length_b       6.905394499841664
_cell_length_c       7.987443923950195
_cell_angle_alpha    131.65099721828565
_cell_angle_beta     97.29631134513231
_cell_angle_gamma    83.55813049447487

_space_group_name_H-M_alt    "P 1"
_space_group_IT_number       1

loop_
  _space_group_symop_operation_xyz
  'x, y, z'

loop_
  _atom_site_type_symbol
  _atom_site_label
  _atom_site_symmetry_multiplicity
  _atom_site_fract_x
  _atom_site_fract_y
  _atom_site_fract_z
  _atom_site_occupancy
  Ce  Ce1       1.0  0.7484431266784668  0.32298803329467773  0.9306904077529906  1.0000
  Dy  Dy1       1.0  0.7536028027534485  0.9156033992767334  0.7835547327995299  1.0000
  Fe  Fe1       1.0  0.9343963265419006  0.1747151017189026  0.4824883341789245  1.0000
  I   I1        1.0  0.4427454173564911  0.9231818914413452  0.4832070171833038  1.0000
  I   I2        1.0  0.22428195178508759  0.7536853551864624  0.3850761950016022  1.0000
  Sb  Sb1       1.0  0.7432087063789368  0.30501437187194824  0.13203679025173187  1.0000
  Sb  Sb2       1.0  0.23858195543289182  0.21544645726680756  0.5861534476280212  1.0000
  Sb  Sb3       1.0  0.7218464016914368  0.0547327846288681  0.38131639361381525  1.0000
  Sb  Sb4       1.0  0.418533056974411  0.7909183502197266  0.6881383061408995  1.0000
  Sb  Sb5       1.0  0.24349665641784665  0.3106585741043091  0.5185669660568237  1.0000
  Sb  Sb6       1.0  0.74089115858078  0.00980939157307148  0.5502982139587402  1.0000
  Tb  Tb1       1.0  0.2455973923206329  0.90485680103302  0.7861766219139099  1.0000
