data_image0
_chemical_formula_structural       FeI3MgPSb3TbUV
_chemical_formula_sum              "Fe1 I3 Mg1 P1 Sb3 Tb1 U1 V1"
_cell_length_a       6.438344704260752
_cell_length_b       6.438170909960297
_cell_length_c       8.087724685668945
_cell_angle_alpha    90.98851583944118
_cell_angle_beta     89.90782307733619
_cell_angle_gamma    90.67351034732454

_space_group_name_H-M_alt    "P 1"
_space_group_IT_number       1

loop_
  _space_group_symop_operation_xyz
  'x, y, z'

loop_
  _atom_site_type_symbol
  _atom_site_label
  _atom_site_symmetry_multiplicity
  _atom_site_fract_x
  _atom_site_fract_y
  _atom_site_fract_z
  _atom_site_occupancy
  Fe  Fe1       1.0  0.5373960733413696  0.012093720026314259  0.6855917572975159  1.0000
  I   I1        1.0  0.32504042983055115  0.8087719678878784  0.5671899914741516  1.0000
  I   I2        1.0  0.39108437299728394  0.3879130482673645  0.4073241651058197  1.0000
  I   I3        1.0  0.6899462342262268  0.35630834102630615  0.3458586633205414  1.0000
  Mg  Mg1       1.0  0.26980915665626526  0.05797874182462692  0.8711571097373962  1.0000
  P   P1        1.0  0.9745602607727051  0.15936866402626038  0.9584450125694275  1.0000
  Sb  Sb1       1.0  0.8904123902320862  0.1837494671344757  0.53324955701828  1.0000
  Sb  Sb2       1.0  0.29993900656700134  0.5067758560180664  0.6016653776168823  1.0000
  Sb  Sb3       1.0  0.9483159780502319  0.24116824567317963  0.49143436551094055  1.0000
  Tb  Tb1       1.0  0.2901243269443512  0.9928841590881348  0.4049852788448334  1.0000
  U   U1        1.0  0.9758270382881165  0.9983869194984436  0.3388006091117859  1.0000
  V   V1        1.0  0.2487022876739502  0.9081867337226868  0.33251702785491943  1.0000
