data_image0
_chemical_formula_structural       CeFe4Sb6Te
_chemical_formula_sum              "Ce1 Fe4 Sb6 Te1"
_cell_length_a       5.377042096886426
_cell_length_b       7.372757462942064
_cell_length_c       8.428210258483887
_cell_angle_alpha    120.34511554811272
_cell_angle_beta     89.71696444275128
_cell_angle_gamma    102.21212848978186

_space_group_name_H-M_alt    "P 1"
_space_group_IT_number       1

loop_
  _space_group_symop_operation_xyz
  'x, y, z'

loop_
  _atom_site_type_symbol
  _atom_site_label
  _atom_site_symmetry_multiplicity
  _atom_site_fract_x
  _atom_site_fract_y
  _atom_site_fract_z
  _atom_site_occupancy
  Ce  Ce1       1.0  0.40246561169624334  0.9774343967437744  0.410344660282135  1.0000
  Fe  Fe1       1.0  0.4045706987380982  0.2761034369468689  0.23657263815402985  1.0000
  Fe  Fe2       1.0  0.9139713644981385  0.9379215240478516  0.1452362835407257  1.0000
  Fe  Fe3       1.0  0.08814159035682678  0.1107240542769432  0.9253033995628357  1.0000
  Fe  Fe4       1.0  0.9242153763771058  0.34012550115585327  0.007499225437641118  1.0000
  Sb  Sb1       1.0  0.9123904109001161  0.9946787357330322  0.6280921101570129  1.0000
  Sb  Sb2       1.0  0.6362977027893066  0.6234498620033264  0.2602626979351043  1.0000
  Sb  Sb3       1.0  0.08278463035821915  0.5439992547035217  0.420118123292923  1.0000
  Sb  Sb4       1.0  0.41452652215957647  0.14067161083221436  0.21671448647975922  1.0000
  Sb  Sb5       1.0  0.9208561778068544  0.3786603510379791  0.2786700427532196  1.0000
  Sb  Sb6       1.0  0.6594588756561279  0.9065153002738953  0.12162026762962341  1.0000
  Te  Te1       1.0  0.3930157124996186  0.5915784239768982  0.22923912107944489  1.0000
