data_image0
_chemical_formula_structural       CeClFe4Sb6
_chemical_formula_sum              "Ce1 Cl1 Fe4 Sb6"
_cell_length_a       4.884081489604292
_cell_length_b       8.13170989433772
_cell_length_c       8.453105926513672
_cell_angle_alpha    120.54873520752483
_cell_angle_beta     90.64661423813848
_cell_angle_gamma    91.17773248801267

_space_group_name_H-M_alt    "P 1"
_space_group_IT_number       1

loop_
  _space_group_symop_operation_xyz
  'x, y, z'

loop_
  _atom_site_type_symbol
  _atom_site_label
  _atom_site_symmetry_multiplicity
  _atom_site_fract_x
  _atom_site_fract_y
  _atom_site_fract_z
  _atom_site_occupancy
  Ce  Ce1       1.0  0.14417310059070587  0.7250515222549438  0.8108937740325928  1.0000
  Cl  Cl1       1.0  0.2982155978679657  0.5435311198234558  0.5880754590034485  1.0000
  Fe  Fe1       1.0  0.8212656378746033  0.25070399045944214  0.3014722168445587  1.0000
  Fe  Fe2       1.0  0.7938113808631897  0.8081049919128418  0.12876121699810028  1.0000
  Fe  Fe3       1.0  0.7865734100341797  0.4065544605255127  0.4105640947818756  1.0000
  Fe  Fe4       1.0  0.30725932121276855  0.36653298139572144  0.14475904405117035  1.0000
  Sb  Sb1       1.0  0.1310632824897766  0.022269755601882935  0.16525182127952576  1.0000
  Sb  Sb2       1.0  0.3179791271686554  0.3072403073310852  0.71613609790802  1.0000
  Sb  Sb3       1.0  0.6951005458831787  0.5402917861938477  0.2524842619895935  1.0000
  Sb  Sb4       1.0  0.8054976463317871  0.07720434665679932  0.4284047484397888  1.0000
  Sb  Sb5       1.0  0.3220621645450592  0.32203400135040283  0.42481446266174316  1.0000
  Sb  Sb6       1.0  0.13878248631954193  0.7715322375297546  0.7382346987724304  1.0000
