data_image0
_chemical_formula_structural       DyI2Sb7TbU
_chemical_formula_sum              "Dy1 I2 Sb7 Tb1 U1"
_cell_length_a       6.726599824162643
_cell_length_b       6.89015212498415
_cell_length_c       8.580537796020508
_cell_angle_alpha    104.2018406692119
_cell_angle_beta     104.69670577393376
_cell_angle_gamma    94.88426489276578

_space_group_name_H-M_alt    "P 1"
_space_group_IT_number       1

loop_
  _space_group_symop_operation_xyz
  'x, y, z'

loop_
  _atom_site_type_symbol
  _atom_site_label
  _atom_site_symmetry_multiplicity
  _atom_site_fract_x
  _atom_site_fract_y
  _atom_site_fract_z
  _atom_site_occupancy
  Dy  Dy1       1.0  0.3548201322555542  0.9396291971206666  0.6942163109779358  1.0000
  I   I1        1.0  0.6292924284934998  0.6927193403244019  0.1559530645608902  1.0000
  I   I2        1.0  0.8605647683143616  0.5232788324356079  0.3350170850753784  1.0000
  Sb  Sb1       1.0  0.6262009739875793  0.7407377958297731  0.10618283599615097  1.0000
  Sb  Sb2       1.0  0.1859638243913651  0.9596661925315858  0.9112508893013  1.0000
  Sb  Sb3       1.0  0.37368863821029663  0.560065507888794  0.5993464589118958  1.0000
  Sb  Sb4       1.0  0.3747142255306244  0.6175453066825867  0.06228308007121086  1.0000
  Sb  Sb5       1.0  0.0013897056924179283  0.37744846940040594  0.14247368276119232  1.0000
  Sb  Sb6       1.0  0.1527741551399231  0.37433013319969183  0.9663041830062866  1.0000
  Sb  Sb7       1.0  0.745097815990448  0.8697927594184877  0.4238702058792114  1.0000
  Tb  Tb1       1.0  0.8541355133056641  0.9863712787628175  0.5719712376594543  1.0000
  U   U1        1.0  0.8404102921485901  0.3737474977970124  0.41569218039512634  1.0000
