data_image0
_chemical_formula_structural       HInLa3Ru3Zn
_chemical_formula_sum              "H1 In1 La3 Ru3 Zn1"
_cell_length_a       3.9298966878833332
_cell_length_b       4.352072385891676
_cell_length_c       6.390519618988037
_cell_angle_alpha    92.28263450860565
_cell_angle_beta     90.96408784147302
_cell_angle_gamma    106.0949703003174

_space_group_name_H-M_alt    "P 1"
_space_group_IT_number       1

loop_
  _space_group_symop_operation_xyz
  'x, y, z'

loop_
  _atom_site_type_symbol
  _atom_site_label
  _atom_site_symmetry_multiplicity
  _atom_site_fract_x
  _atom_site_fract_y
  _atom_site_fract_z
  _atom_site_occupancy
  H   H1        1.0  0.24586619436740875  0.5413525104522705  0.22733461856842044  1.0000
  In  In1       1.0  0.7849306464195251  0.2582574784755707  0.315817266702652  1.0000
  La  La1       1.0  0.3007798194885254  0.11373897641897202  0.5025922060012817  1.0000
  La  La2       1.0  0.2767201364040375  0.1464991718530655  0.9821410179138184  1.0000
  La  La3       1.0  0.7966040968894958  0.871090292930603  0.11610766500234604  1.0000
  Ru  Ru1       1.0  0.7875392436981201  0.5733685493469238  0.44070398807525635  1.0000
  Ru  Ru2       1.0  0.7956032156944275  0.7330058813095093  0.4781540036201477  1.0000
  Ru  Ru3       1.0  0.31084510684013367  0.610445499420166  0.8565798997879028  1.0000
  Zn  Zn1       1.0  0.2968982756137848  0.39986708760261536  0.8368849158287048  1.0000
