data_image0
_chemical_formula_structural       La4ORu2ZnZr
_chemical_formula_sum              "La4 O1 Ru2 Zn1 Zr1"
_cell_length_a       4.829046072169491
_cell_length_b       5.219141980517618
_cell_length_c       6.440365791320801
_cell_angle_alpha    114.55696412967423
_cell_angle_beta     105.91710158318297
_cell_angle_gamma    118.19894755791518

_space_group_name_H-M_alt    "P 1"
_space_group_IT_number       1

loop_
  _space_group_symop_operation_xyz
  'x, y, z'

loop_
  _atom_site_type_symbol
  _atom_site_label
  _atom_site_symmetry_multiplicity
  _atom_site_fract_x
  _atom_site_fract_y
  _atom_site_fract_z
  _atom_site_occupancy
  La  La1       1.0  0.7118149995803833  0.05762384086847305  0.7097069025039673  1.0000
  La  La2       1.0  0.19737626612186432  0.4271986782550812  0.37091219425201416  1.0000
  La  La3       1.0  0.1926671415567398  0.06787250190973282  0.2772831618785858  1.0000
  La  La4       1.0  0.2168220579624176  0.4995180666446686  0.020245391875505447  1.0000
  O   O1        1.0  0.9937518239021301  0.609933078289032  0.6615835428237915  1.0000
  Ru  Ru1       1.0  0.5627426505088806  0.3543952405452728  0.6567915678024292  1.0000
  Ru  Ru2       1.0  0.5506764054298401  0.9511810541152954  0.5136375427246094  1.0000
  Zn  Zn1       1.0  0.8754353523254395  0.8883777260780334  0.13411192595958718  1.0000
  Zr  Zr1       1.0  0.3887649178504944  0.49812716245651245  0.11547380685806279  1.0000
