data_image0
_chemical_formula_structural       La6Ru3
_chemical_formula_sum              "La6 Ru3"
_cell_length_a       4.133796778338306
_cell_length_b       4.440418106079232
_cell_length_c       5.846929550170898
_cell_angle_alpha    94.85970154808932
_cell_angle_beta     94.39464704799242
_cell_angle_gamma    91.55361551600146

_space_group_name_H-M_alt    "P 1"
_space_group_IT_number       1

loop_
  _space_group_symop_operation_xyz
  'x, y, z'

loop_
  _atom_site_type_symbol
  _atom_site_label
  _atom_site_symmetry_multiplicity
  _atom_site_fract_x
  _atom_site_fract_y
  _atom_site_fract_z
  _atom_site_occupancy
  La  La1       1.0  0.2566252648830414  0.048726800829172134  0.7612493634223938  1.0000
  La  La2       1.0  0.2649948000907898  0.6184553503990173  0.8558813333511353  1.0000
  La  La3       1.0  0.2596021890640259  0.8955745697021484  0.3782989978790283  1.0000
  La  La4       1.0  0.7572832107543945  0.3770749270915985  0.8333725333213806  1.0000
  La  La5       1.0  0.7467369437217712  0.9508859515190125  0.7219116687774658  1.0000
  La  La6       1.0  0.7702506184577942  0.905562698841095  0.03678642958402634  1.0000
  Ru  Ru1       1.0  0.7318430542945862  0.6991007924079895  0.6634247303009033  1.0000
  Ru  Ru2       1.0  0.2520941495895386  0.5165867805480957  0.33594608306884766  1.0000
  Ru  Ru3       1.0  0.9385576844215393  0.49051448702812195  0.5096113085746765  1.0000
