data_image0
_chemical_formula_structural       AsGeInLa2Ru3U
_chemical_formula_sum              "As1 Ge1 In1 La2 Ru3 U1"
_cell_length_a       4.411797413031667
_cell_length_b       5.617412176632969
_cell_length_c       6.000338554382324
_cell_angle_alpha    108.20511471673618
_cell_angle_beta     89.71091229483089
_cell_angle_gamma    93.97288127729121

_space_group_name_H-M_alt    "P 1"
_space_group_IT_number       1

loop_
  _space_group_symop_operation_xyz
  'x, y, z'

loop_
  _atom_site_type_symbol
  _atom_site_label
  _atom_site_symmetry_multiplicity
  _atom_site_fract_x
  _atom_site_fract_y
  _atom_site_fract_z
  _atom_site_occupancy
  As  As1       1.0  0.8136370778083801  0.2129439115524292  0.676274836063385  1.0000
  Ge  Ge1       1.0  0.4796263873577118  0.669284999370575  0.4350152909755707  1.0000
  In  In1       1.0  0.9726400375366211  0.4404536485671997  0.5835229158401489  1.0000
  La  La1       1.0  0.3686350882053375  0.6735103130340576  0.2744254469871521  1.0000
  La  La2       1.0  0.46210750937461853  0.03267231583595276  0.17392271757125854  1.0000
  Ru  Ru1       1.0  0.9781200885772705  0.5302344560623169  0.6641730070114136  1.0000
  Ru  Ru2       1.0  0.4804905951023102  0.8744596838951111  0.9236297607421875  1.0000
  Ru  Ru3       1.0  0.9577757716178894  0.27853766083717346  0.3317943811416626  1.0000
  U   U1        1.0  0.9654684662818909  0.30858761072158813  0.8802640438079834  1.0000
