data_image0
_chemical_formula_structural       AuGeLaLuRu4Zn
_chemical_formula_sum              "Au1 Ge1 La1 Lu1 Ru4 Zn1"
_cell_length_a       4.859570276392437
_cell_length_b       5.482170614729575
_cell_length_c       6.059572696685791
_cell_angle_alpha    111.65740982028993
_cell_angle_beta     109.0362528167056
_cell_angle_gamma    91.33005035045215

_space_group_name_H-M_alt    "P 1"
_space_group_IT_number       1

loop_
  _space_group_symop_operation_xyz
  'x, y, z'

loop_
  _atom_site_type_symbol
  _atom_site_label
  _atom_site_symmetry_multiplicity
  _atom_site_fract_x
  _atom_site_fract_y
  _atom_site_fract_z
  _atom_site_occupancy
  Au  Au1       1.0  0.788115918636322  0.761168897151947  0.40815138816833496  1.0000
  Ge  Ge1       1.0  0.2843901813030243  0.8596236705780029  0.27533411979675293  1.0000
  La  La1       1.0  0.784874677658081  0.1866137683391571  0.6932905912399292  1.0000
  Lu  Lu1       1.0  0.7854934930801392  0.35611578822135925  0.44874700903892517  1.0000
  Ru  Ru1       1.0  0.2815898358821869  0.27929750084877014  0.14334651827812195  1.0000
  Ru  Ru2       1.0  0.2859500050544739  0.8255996108055115  0.11204008013010025  1.0000
  Ru  Ru3       1.0  0.7837840914726257  0.25362661480903625  0.8374350666999817  1.0000
  Ru  Ru4       1.0  0.284771203994751  0.6033201813697815  0.22175318002700806  1.0000
  Zn  Zn1       1.0  0.27958253026008606  0.6609410643577576  0.3443388044834137  1.0000
