data_image0
_chemical_formula_structural       La5Ru4
_chemical_formula_sum              "La5 Ru4"
_cell_length_a       4.066904173112136
_cell_length_b       5.8976308418234975
_cell_length_c       6.359284400939941
_cell_angle_alpha    117.4155476633305
_cell_angle_beta     94.60548705383212
_cell_angle_gamma    92.6489399893185

_space_group_name_H-M_alt    "P 1"
_space_group_IT_number       1

loop_
  _space_group_symop_operation_xyz
  'x, y, z'

loop_
  _atom_site_type_symbol
  _atom_site_label
  _atom_site_symmetry_multiplicity
  _atom_site_fract_x
  _atom_site_fract_y
  _atom_site_fract_z
  _atom_site_occupancy
  La  La1       1.0  0.8055059313774109  0.16628102958202362  0.4319872558116913  1.0000
  La  La2       1.0  0.2937942445278168  0.12738829851150513  0.5144437551498413  1.0000
  La  La3       1.0  0.29478833079338074  0.08460485935211182  0.0667063444852829  1.0000
  La  La4       1.0  0.7799465656280518  0.25803443789482117  0.9003061056137085  1.0000
  La  La5       1.0  0.7991076111793518  0.9520198702812195  0.8820362091064453  1.0000
  Ru  Ru1       1.0  0.7887265682220459  0.2308385968208313  0.3925255537033081  1.0000
  Ru  Ru2       1.0  0.2940995395183563  0.18251769244670868  0.40011924505233765  1.0000
  Ru  Ru3       1.0  0.8011069297790527  0.3728160858154297  0.29221335053443903  1.0000
  Ru  Ru4       1.0  0.2923584580421448  0.3243338167667389  0.7051851153373718  1.0000
