data_image0
_chemical_formula_structural       Cd2FGa2Ge2HInZn2
_chemical_formula_sum              "Cd2 F1 Ga2 Ge2 H1 In1 Zn2"
_cell_length_a       5.086645500727417
_cell_length_b       5.676862872283653
_cell_length_c       7.236793518066406
_cell_angle_alpha    90.50434107346351
_cell_angle_beta     90.22572695260016
_cell_angle_gamma    91.71284689856877

_space_group_name_H-M_alt    "P 1"
_space_group_IT_number       1

loop_
  _space_group_symop_operation_xyz
  'x, y, z'

loop_
  _atom_site_type_symbol
  _atom_site_label
  _atom_site_symmetry_multiplicity
  _atom_site_fract_x
  _atom_site_fract_y
  _atom_site_fract_z
  _atom_site_occupancy
  Cd  Cd1       1.0  0.5065476894378662  0.18294036388397217  0.5621757507324219  1.0000
  Cd  Cd2       1.0  0.22355906665325165  0.49567240476608276  0.7116443514823915  1.0000
  F   F1        1.0  0.5505757331848145  0.9942528009414673  0.704730212688446  1.0000
  Ga  Ga1       1.0  0.15850456058979034  0.8520410060882568  0.4032924473285675  1.0000
  Ga  Ga2       1.0  0.14958372712135315  0.8588266968727112  0.026599133387207985  1.0000
  Ge  Ge1       1.0  0.031342167407274246  0.5180551409721375  0.4014536142349243  1.0000
  Ge  Ge2       1.0  0.007502147927880287  0.7045875787734985  0.774207592010498  1.0000
  H   H1        1.0  0.2159225046634674  0.469890832901001  0.15282848477363586  1.0000
  In  In1       1.0  0.7137933969497681  0.21788926422595978  0.07293573766946793  1.0000
  Zn  Zn1       1.0  0.5104824900627136  0.14623530209064484  0.41396036744117737  1.0000
  Zn  Zn2       1.0  0.6507921814918518  0.7889828085899353  0.617364764213562  1.0000
