data_image0
_chemical_formula_structural       Cd3Ge2HPbPdVZnZr
_chemical_formula_sum              "Cd3 Ge2 H1 Pb1 Pd1 V1 Zn1 Zr1"
_cell_length_a       5.503878965868852
_cell_length_b       5.7859965730624054
_cell_length_c       8.835672378540039
_cell_angle_alpha    82.13457484194019
_cell_angle_beta     71.91032352391449
_cell_angle_gamma    66.29271946091633

_space_group_name_H-M_alt    "P 1"
_space_group_IT_number       1

loop_
  _space_group_symop_operation_xyz
  'x, y, z'

loop_
  _atom_site_type_symbol
  _atom_site_label
  _atom_site_symmetry_multiplicity
  _atom_site_fract_x
  _atom_site_fract_y
  _atom_site_fract_z
  _atom_site_occupancy
  Cd  Cd1       1.0  0.9587368965148926  0.7684702277183533  0.3486131727695465  1.0000
  Cd  Cd2       1.0  0.9443880319595337  0.03566645458340645  0.20886972546577454  1.0000
  Cd  Cd3       1.0  0.46476396918296814  0.18498297035694122  0.11768678575754167  1.0000
  Ge  Ge1       1.0  0.4636446237564087  0.1957438588142395  0.8666192889213562  1.0000
  Ge  Ge2       1.0  0.4554123282432556  0.6867210865020752  0.1975434422492981  1.0000
  H   H1        1.0  0.4666794240474701  0.7745476365089417  0.9172768592834473  1.0000
  Pb  Pb1       1.0  0.46091607213020325  0.07990428060293198  0.27596232295036316  1.0000
  Pd  Pd1       1.0  0.46433621644973755  0.8398705720901489  0.40433356165885925  1.0000
  V   V1        1.0  0.9606363773345947  0.6011614799499512  0.9531233310699464  1.0000
  Zn  Zn1       1.0  0.9586753249168396  0.772875189781189  0.3459707796573639  1.0000
  Zr  Zr1       1.0  0.9578913450241089  0.6471359729766846  0.8493688106536865  1.0000
