data_image0
_chemical_formula_structural       Cd2NpSn3ThW3Zr
_chemical_formula_sum              "Cd2 Np1 Sn3 Th1 W3 Zr1"
_cell_length_a       5.59525820204594
_cell_length_b       5.714109362288781
_cell_length_c       7.277529239654541
_cell_angle_alpha    90.26708438739706
_cell_angle_beta     90.82518052944097
_cell_angle_gamma    108.48882601674268

_space_group_name_H-M_alt    "P 1"
_space_group_IT_number       1

loop_
  _space_group_symop_operation_xyz
  'x, y, z'

loop_
  _atom_site_type_symbol
  _atom_site_label
  _atom_site_symmetry_multiplicity
  _atom_site_fract_x
  _atom_site_fract_y
  _atom_site_fract_z
  _atom_site_occupancy
  Cd  Cd1       1.0  0.25305634737014776  0.9858366250991822  0.21659807860851285  1.0000
  Cd  Cd2       1.0  0.4954763352870941  0.6649201512336731  0.6961454153060913  1.0000
  Np  Np1       1.0  0.7563832402229309  0.7304675579071045  0.49684551358222956  1.0000
  Sn  Sn1       1.0  0.25105518102645874  0.7369605898857117  0.3533209562301636  1.0000
  Sn  Sn2       1.0  0.7531015872955322  0.7212793827056885  0.24751748144626615  1.0000
  Sn  Sn3       1.0  0.2540609836578369  0.4198111593723297  0.42213416099548334  1.0000
  Th  Th1       1.0  0.753655731678009  0.4774368107318879  0.2994996905326843  1.0000
  W   W1        1.0  0.2557193040847779  0.9859572052955629  0.33901241421699524  1.0000
  W   W2        1.0  0.5106797218322754  0.363870233297348  0.6098978519439697  1.0000
  W   W3        1.0  0.2536192238330841  0.1557302623987198  0.03485189005732536  1.0000
  Zr  Zr1       1.0  0.9584351778030396  0.8917396068572998  0.8345286846160888  1.0000
