data_image0
_chemical_formula_structural       Cd4SmW6
_chemical_formula_sum              "Cd4 Sm1 W6"
_cell_length_a       6.121524977144426
_cell_length_b       5.917820665644264
_cell_length_c       6.673562526702881
_cell_angle_alpha    108.82077170601104
_cell_angle_beta     89.41885909759375
_cell_angle_gamma    106.79900593011286

_space_group_name_H-M_alt    "P 1"
_space_group_IT_number       1

loop_
  _space_group_symop_operation_xyz
  'x, y, z'

loop_
  _atom_site_type_symbol
  _atom_site_label
  _atom_site_symmetry_multiplicity
  _atom_site_fract_x
  _atom_site_fract_y
  _atom_site_fract_z
  _atom_site_occupancy
  Cd  Cd1       1.0  0.8932029008865356  0.1640172302722931  0.19304312765598297  1.0000
  Cd  Cd2       1.0  0.3951714038848877  0.15959107875823975  0.7010036706924438  1.0000
  Cd  Cd3       1.0  0.06101273000240326  0.05360954254865646  0.634408175945282  1.0000
  Cd  Cd4       1.0  0.3966204822063446  0.9779698252677916  0.8978368043899535  1.0000
  Sm  Sm1       1.0  0.39424777030944824  0.9361695051193236  0.987834095954895  1.0000
  W   W1        1.0  0.8915302157402039  0.32944896817207336  0.5485996007919312  1.0000
  W   W2        1.0  0.393717885017395  0.20611664652824402  0.15198689699172974  1.0000
  W   W3        1.0  0.39409518241882324  0.5661488771438599  0.23312409222126004  1.0000
  W   W4        1.0  0.8901470899581909  0.5467395186424255  0.9769126176834106  1.0000
  W   W5        1.0  0.895024299621582  0.881526231765747  0.36187607049942017  1.0000
  W   W6        1.0  0.39264047145843506  0.28572821617126465  0.4890195429325104  1.0000
