data_image0
_chemical_formula_structural       Cd4Ga2HSmVZn2
_chemical_formula_sum              "Cd4 Ga2 H1 Sm1 V1 Zn2"
_cell_length_a       5.508763656459724
_cell_length_b       5.8310653542799455
_cell_length_c       7.532448768615723
_cell_angle_alpha    68.94268367735081
_cell_angle_beta     71.05006919717687
_cell_angle_gamma    65.90905175395257

_space_group_name_H-M_alt    "P 1"
_space_group_IT_number       1

loop_
  _space_group_symop_operation_xyz
  'x, y, z'

loop_
  _atom_site_type_symbol
  _atom_site_label
  _atom_site_symmetry_multiplicity
  _atom_site_fract_x
  _atom_site_fract_y
  _atom_site_fract_z
  _atom_site_occupancy
  Cd  Cd1       1.0  0.7453416585922241  0.4079691469669342  0.2720907926559448  1.0000
  Cd  Cd2       1.0  0.9842526912689209  0.8540788888931274  0.5945820212364197  1.0000
  Cd  Cd3       1.0  0.24087730050086975  0.9583951234817505  0.2434433102607727  1.0000
  Cd  Cd4       1.0  0.7147214412689209  0.1485843062400818  0.1280684620141983  1.0000
  Ga  Ga1       1.0  0.6412811279296875  0.0768347680568695  0.15085166692733765  1.0000
  Ga  Ga2       1.0  0.2851744294166565  0.9725878238677979  0.8832904100418091  1.0000
  H   H1        1.0  0.7121984362602234  0.39425793290138245  0.6097797751426697  1.0000
  Sm  Sm1       1.0  0.7305744290351868  0.7557845115661621  0.657292902469635  1.0000
  V   V1        1.0  0.1490839719772339  0.5524919033050537  0.9696921706199646  1.0000
  Zn  Zn1       1.0  0.2135831117630005  0.04844050109386444  0.6191738247871399  1.0000
  Zn  Zn2       1.0  0.22813645005226135  0.18575167655944824  0.30670395493507385  1.0000
