data_image0
_chemical_formula_structural       AsCdGaInPbSeSnVZn2Zr
_chemical_formula_sum              "As1 Cd1 Ga1 In1 Pb1 Se1 Sn1 V1 Zn2 Zr1"
_cell_length_a       5.82352931791462
_cell_length_b       6.830847664468209
_cell_length_c       8.972845077514648
_cell_angle_alpha    90.86200960363229
_cell_angle_beta     89.69139130956553
_cell_angle_gamma    91.609162008134

_space_group_name_H-M_alt    "P 1"
_space_group_IT_number       1

loop_
  _space_group_symop_operation_xyz
  'x, y, z'

loop_
  _atom_site_type_symbol
  _atom_site_label
  _atom_site_symmetry_multiplicity
  _atom_site_fract_x
  _atom_site_fract_y
  _atom_site_fract_z
  _atom_site_occupancy
  As  As1       1.0  0.7733993530273438  0.3244260251522064  0.19643591344356537  1.0000
  Cd  Cd1       1.0  0.7831128239631653  0.47311264276504517  0.02772548981010914  1.0000
  Ga  Ga1       1.0  0.7973873019218445  0.745711624622345  0.9604375362396239  1.0000
  In  In1       1.0  0.7887434363365173  0.055352989584207535  0.6653901934623718  1.0000
  Pb  Pb1       1.0  0.2988642156124115  0.9038159251213074  0.052747029811143875  1.0000
  Se  Se1       1.0  0.28583285212516785  0.5762853026390076  0.7332541346549988  1.0000
  Sn  Sn1       1.0  0.777949869632721  0.21346329152584076  0.47789195179939264  1.0000
  V   V1        1.0  0.790972113609314  0.6677671074867249  0.65008544921875  1.0000
  Zn  Zn1       1.0  0.2897234857082367  0.21439650654792786  0.6947940587997437  1.0000
  Zn  Zn2       1.0  0.2863624393939972  0.8718947172164917  0.8499312400817871  1.0000
  Zr  Zr1       1.0  0.29059144854545593  0.9896013140678406  0.18414753675460815  1.0000
