data_image0
_chemical_formula_structural       H4Mn8O3S
_chemical_formula_sum              "H4 Mn8 O3 S1"
_cell_length_a       5.6290719841429615
_cell_length_b       5.382670774070955
_cell_length_c       5.982888221740723
_cell_angle_alpha    63.56449214755324
_cell_angle_beta     60.895657180558224
_cell_angle_gamma    51.81917963625152

_space_group_name_H-M_alt    "P 1"
_space_group_IT_number       1

loop_
  _space_group_symop_operation_xyz
  'x, y, z'

loop_
  _atom_site_type_symbol
  _atom_site_label
  _atom_site_symmetry_multiplicity
  _atom_site_fract_x
  _atom_site_fract_y
  _atom_site_fract_z
  _atom_site_occupancy
  H   H1        1.0  0.04138565808534622  0.13604310154914856  0.06559374183416367  1.0000
  H   H2        1.0  0.37507230043411255  0.12950663268566132  0.3159513771533966  1.0000
  H   H3        1.0  0.7054054141044617  0.2449866384267807  0.3718603551387787  1.0000
  H   H4        1.0  0.6886592507362366  0.2765631079673767  0.5685456991195679  1.0000
  Mn  Mn1       1.0  0.7442367672920227  0.9464157819747925  0.5829768180847168  1.0000
  Mn  Mn2       1.0  0.9954598546028137  0.5459837317466736  0.3441999554634094  1.0000
  Mn  Mn3       1.0  0.9119426608085632  0.6278652548789978  0.01757943630218506  1.0000
  Mn  Mn4       1.0  0.271818608045578  0.5353638529777527  0.5945818424224854  1.0000
  Mn  Mn5       1.0  0.130604550242424  0.8337207436561584  0.8330696821212769  1.0000
  Mn  Mn6       1.0  0.5206556916236877  0.5620772838592529  0.8926976323127747  1.0000
  Mn  Mn7       1.0  0.020806334912776947  0.8714547157287598  0.8934937715530396  1.0000
  Mn  Mn8       1.0  0.7683185935020447  0.29764676094055176  0.28336861729621887  1.0000
  O   O1        1.0  0.604631245136261  0.3898489475250244  0.05868843197822571  1.0000
  O   O2        1.0  0.04837197810411453  0.17122812569141388  0.1983381062746048  1.0000
  O   O3        1.0  0.6066185235977173  0.8713079690933228  0.6251354217529297  1.0000
  S   S1        1.0  0.3718399405479431  0.9608939290046692  0.2874344289302826  1.0000
