data_image0
_chemical_formula_structural       H5Mn9O2
_chemical_formula_sum              "H5 Mn9 O2"
_cell_length_a       6.516507011665445
_cell_length_b       5.968016116683323
_cell_length_c       5.708585739135742
_cell_angle_alpha    54.68433091362971
_cell_angle_beta     61.1723052371766
_cell_angle_gamma    59.035042133006925

_space_group_name_H-M_alt    "P 1"
_space_group_IT_number       1

loop_
  _space_group_symop_operation_xyz
  'x, y, z'

loop_
  _atom_site_type_symbol
  _atom_site_label
  _atom_site_symmetry_multiplicity
  _atom_site_fract_x
  _atom_site_fract_y
  _atom_site_fract_z
  _atom_site_occupancy
  H   H1        1.0  0.9432472586631775  0.46218955516815186  0.8549792170524597  1.0000
  H   H2        1.0  0.6329025626182556  0.19539041817188263  0.031771376729011536  1.0000
  H   H3        1.0  0.306599497795105  0.12397333234548569  0.8782128691673279  1.0000
  H   H4        1.0  0.2900327444076538  0.5131379961967468  0.0049614571034908295  1.0000
  H   H5        1.0  0.3304878771305084  0.32831883430480957  0.2024698555469513  1.0000
  Mn  Mn1       1.0  0.9462490677833557  0.382917582988739  0.26407572627067566  1.0000
  Mn  Mn2       1.0  0.9548133611679077  0.9056290984153748  0.6331542730331421  1.0000
  Mn  Mn3       1.0  0.2848055958747864  0.08781848102807999  0.11620863527059555  1.0000
  Mn  Mn4       1.0  0.31800347566604614  0.913852334022522  0.8186323046684265  1.0000
  Mn  Mn5       1.0  0.5957968235015869  0.49479636549949646  0.5662742257118224  1.0000
  Mn  Mn6       1.0  0.44048309326171875  0.42863982915878296  0.8850956559181213  1.0000
  Mn  Mn7       1.0  0.5983347296714783  0.9134295582771301  0.5397337675094604  1.0000
  Mn  Mn8       1.0  0.980251133441925  0.6171534657478333  0.6815722584724426  1.0000
  Mn  Mn9       1.0  0.6125066876411438  0.5192148089408875  0.45212489366531367  1.0000
  O   O1        1.0  0.6783228516578674  0.909157395362854  0.14189304411411285  1.0000
  O   O2        1.0  0.9676864743232727  0.7431480884552002  0.3307459354400635  1.0000
