data_image0
_chemical_formula_structural       F2H2Mn8O4
_chemical_formula_sum              "F2 H2 Mn8 O4"
_cell_length_a       6.247410580975637
_cell_length_b       6.222148786272454
_cell_length_c       6.523065567016602
_cell_angle_alpha    69.09050716514591
_cell_angle_beta     63.478438272419666
_cell_angle_gamma    60.7874737739121

_space_group_name_H-M_alt    "P 1"
_space_group_IT_number       1

loop_
  _space_group_symop_operation_xyz
  'x, y, z'

loop_
  _atom_site_type_symbol
  _atom_site_label
  _atom_site_symmetry_multiplicity
  _atom_site_fract_x
  _atom_site_fract_y
  _atom_site_fract_z
  _atom_site_occupancy
  F   F1        1.0  0.8190993666648865  0.6748790144920349  0.6569877862930298  1.0000
  F   F2        1.0  0.30541104078292847  0.8258177042007446  0.6218306422233582  1.0000
  H   H1        1.0  0.10912991315126419  0.43273618817329407  0.4245223104953766  1.0000
  H   H2        1.0  0.48470357060432434  0.987313449382782  0.40234386920928955  1.0000
  Mn  Mn1       1.0  0.6095649003982544  0.9387118816375732  0.9078986048698424  1.0000
  Mn  Mn2       1.0  0.8600541353225708  0.2456897646188736  0.8799021840095519  1.0000
  Mn  Mn3       1.0  0.15017704665660858  0.2809939384460449  0.42031919956207275  1.0000
  Mn  Mn4       1.0  0.5640844702720642  0.41584935784339905  0.11209037154912947  1.0000
  Mn  Mn5       1.0  0.0969519391655922  0.9108579754829407  0.11641743034124373  1.0000
  Mn  Mn6       1.0  0.5668824315071106  0.9408789277076721  0.9458094239234923  1.0000
  Mn  Mn7       1.0  0.2928665280342102  0.4405412971973419  0.5640373826026917  1.0000
  Mn  Mn8       1.0  0.7178066372871399  0.35600900650024414  0.4139520823955536  1.0000
  O   O1        1.0  0.7412009239196777  0.6906275153160095  0.15488818287849426  1.0000
  O   O2        1.0  0.712274968624115  0.23630982637405396  0.046468134969472885  1.0000
  O   O3        1.0  0.15808404982089996  0.6987025737762451  0.340914785861969  1.0000
  O   O4        1.0  0.19186854362487793  0.320278137922287  0.9072484374046325  1.0000
