data_image0
_chemical_formula_structural       H5Mn8O3
_chemical_formula_sum              "H5 Mn8 O3"
_cell_length_a       5.269325922368905
_cell_length_b       5.117820842001155
_cell_length_c       5.6115264892578125
_cell_angle_alpha    57.23628482007523
_cell_angle_beta     64.67131982651703
_cell_angle_gamma    49.96738657698152

_space_group_name_H-M_alt    "P 1"
_space_group_IT_number       1

loop_
  _space_group_symop_operation_xyz
  'x, y, z'

loop_
  _atom_site_type_symbol
  _atom_site_label
  _atom_site_symmetry_multiplicity
  _atom_site_fract_x
  _atom_site_fract_y
  _atom_site_fract_z
  _atom_site_occupancy
  H   H1        1.0  0.7314408421516418  0.8950229287147522  0.7611176371574403  1.0000
  H   H2        1.0  0.1512630432844162  0.2758788764476776  0.9336361885070802  1.0000
  H   H3        1.0  0.45513930916786194  0.42759057879447937  0.18725043535232547  1.0000
  H   H4        1.0  0.12886948883533478  0.06535216420888901  0.09830848872661592  1.0000
  H   H5        1.0  0.12486297637224197  0.4154031276702881  0.25964272022247314  1.0000
  Mn  Mn1       1.0  0.7980433702468872  0.5618352890014648  0.5015622973442078  1.0000
  Mn  Mn2       1.0  0.7890576720237732  0.035566605627536774  0.32114145159721375  1.0000
  Mn  Mn3       1.0  0.003910662606358528  0.8625868558883667  0.7651203870773317  1.0000
  Mn  Mn4       1.0  0.3174974322319031  0.26693254709243774  0.4651785790920258  1.0000
  Mn  Mn5       1.0  0.4496763050556183  0.5254741907119751  0.40230941772460943  1.0000
  Mn  Mn6       1.0  0.08083686232566833  0.22433727979660034  0.10286405682563783  1.0000
  Mn  Mn7       1.0  0.4535197913646698  0.35282623767852783  0.7247984409332275  1.0000
  Mn  Mn8       1.0  0.8163193464279175  0.5375543832778931  0.366351842880249  1.0000
  O   O1        1.0  0.7345985770225525  0.6881629228591919  0.04932100698351861  1.0000
  O   O2        1.0  0.419137179851532  0.8251243233680725  0.7654163241386415  1.0000
  O   O3        1.0  0.05617588758468637  0.9804930090904235  0.8760477304458619  1.0000
