data_image0
_chemical_formula_structural       H6Mn8O2
_chemical_formula_sum              "H6 Mn8 O2"
_cell_length_a       6.163376476558431
_cell_length_b       6.3578389377518025
_cell_length_c       6.428225040435791
_cell_angle_alpha    63.80197129099794
_cell_angle_beta     62.382204994889435
_cell_angle_gamma    59.584501170468734

_space_group_name_H-M_alt    "P 1"
_space_group_IT_number       1

loop_
  _space_group_symop_operation_xyz
  'x, y, z'

loop_
  _atom_site_type_symbol
  _atom_site_label
  _atom_site_symmetry_multiplicity
  _atom_site_fract_x
  _atom_site_fract_y
  _atom_site_fract_z
  _atom_site_occupancy
  H   H1        1.0  0.5506663918495178  0.2923068404197693  0.49919575452804565  1.0000
  H   H2        1.0  0.21151581406593323  0.9894989132881165  0.317704975605011  1.0000
  H   H3        1.0  0.4084598124027252  0.2507357597351074  0.7760322093963623  1.0000
  H   H4        1.0  0.5613170862197876  0.6385253071784973  0.3114400804042816  1.0000
  H   H5        1.0  0.8714805245399475  0.1742628961801529  0.14373530447483063  1.0000
  H   H6        1.0  0.09324341267347336  0.980129599571228  0.7956241965293884  1.0000
  Mn  Mn1       1.0  0.3289375901222229  0.18257862329483032  0.0491216741502285  1.0000
  Mn  Mn2       1.0  0.961032509803772  0.3401891887187958  0.2567579746246338  1.0000
  Mn  Mn3       1.0  0.339661180973053  0.9739034175872803  0.017116859555244446  1.0000
  Mn  Mn4       1.0  0.833806037902832  0.7114163637161255  0.7060256004333496  1.0000
  Mn  Mn5       1.0  0.30976447463035583  0.43851983547210693  0.8835119009017944  1.0000
  Mn  Mn6       1.0  0.8412787914276123  0.12187785655260086  0.766047477722168  1.0000
  Mn  Mn7       1.0  0.8354762196540833  0.4712260663509369  0.02753390744328499  1.0000
  Mn  Mn8       1.0  0.8406979441642761  0.2035950869321823  0.38104456663131714  1.0000
  O   O1        1.0  0.9221411347389221  0.8205699920654297  0.18217910826206207  1.0000
  O   O2        1.0  0.36820468306541443  0.743684709072113  0.4201553761959076  1.0000
