data_image0
_chemical_formula_structural       FH4Mn8O3
_chemical_formula_sum              "F1 H4 Mn8 O3"
_cell_length_a       6.0660308133304905
_cell_length_b       6.213805263166918
_cell_length_c       6.128868103027344
_cell_angle_alpha    63.729342187157805
_cell_angle_beta     60.49370722619762
_cell_angle_gamma    57.42817355404146

_space_group_name_H-M_alt    "P 1"
_space_group_IT_number       1

loop_
  _space_group_symop_operation_xyz
  'x, y, z'

loop_
  _atom_site_type_symbol
  _atom_site_label
  _atom_site_symmetry_multiplicity
  _atom_site_fract_x
  _atom_site_fract_y
  _atom_site_fract_z
  _atom_site_occupancy
  F   F1        1.0  0.26000678539276123  0.004576549399644136  0.119750551879406  1.0000
  H   H1        1.0  0.06818249076604843  0.7088614702224731  0.39785194396972656  1.0000
  H   H2        1.0  0.48578414320945745  0.5846883058547974  0.9422127604484558  1.0000
  H   H3        1.0  0.45224070549011236  0.2912973165512085  0.2856495380401611  1.0000
  H   H4        1.0  0.7851344347000122  0.09178367257118225  0.8782135844230652  1.0000
  Mn  Mn1       1.0  0.1368720382452011  0.04981599375605583  0.5252774953842163  1.0000
  Mn  Mn2       1.0  0.4970219433307648  0.291793555021286  0.2906838357448578  1.0000
  Mn  Mn3       1.0  0.9472614526748658  0.5139926075935364  0.2110188752412796  1.0000
  Mn  Mn4       1.0  0.020462406799197197  0.7344813346862793  0.9218356609344481  1.0000
  Mn  Mn5       1.0  0.48481610417366033  0.2993055284023285  0.946022093296051  1.0000
  Mn  Mn6       1.0  0.5049653053283691  0.7880254983901978  0.8852683305740356  1.0000
  Mn  Mn7       1.0  0.4618161320686341  0.5164393782615662  0.4564888179302215  1.0000
  Mn  Mn8       1.0  0.6646970510482788  0.7709804177284241  0.4678547978401184  1.0000
  O   O1        1.0  0.6742374300956726  0.14286170899868011  0.5629071593284606  1.0000
  O   O2        1.0  0.1824638396501541  0.8099603652954102  0.6289691925048828  1.0000
  O   O3        1.0  0.13074468076229095  0.6630018949508667  0.4591953158378601  1.0000
