data_image0
_chemical_formula_structural       ClGe3Li3NaOP
_chemical_formula_sum              "Cl1 Ge3 Li3 Na1 O1 P1"
_cell_length_a       6.640942546185186
_cell_length_b       6.579885370091787
_cell_length_c       6.67163610458374
_cell_angle_alpha    60.4318900571524
_cell_angle_beta     62.935816521550294
_cell_angle_gamma    60.7512075959959

_space_group_name_H-M_alt    "P 1"
_space_group_IT_number       1

loop_
  _space_group_symop_operation_xyz
  'x, y, z'

loop_
  _atom_site_type_symbol
  _atom_site_label
  _atom_site_symmetry_multiplicity
  _atom_site_fract_x
  _atom_site_fract_y
  _atom_site_fract_z
  _atom_site_occupancy
  Cl  Cl1       1.0  0.5198119878768921  0.23164309561252594  0.949402928352356  1.0000
  Ge  Ge1       1.0  0.7432487607002258  0.3149145245552063  0.5786684155464172  1.0000
  Ge  Ge2       1.0  0.23188719153404236  0.414933443069458  0.9801431894302368  1.0000
  Ge  Ge3       1.0  0.24139103293418884  0.8019439578056335  0.9139314889907837  1.0000
  Li  Li1       1.0  0.3865271508693695  0.21251998841762543  0.4759840965270996  1.0000
  Li  Li2       1.0  0.2687459886074066  0.7823671102523804  0.2830074429512024  1.0000
  Li  Li3       1.0  0.41832587122917175  0.4133346378803253  0.4531327486038208  1.0000
  Na  Na1       1.0  0.7634155750274658  0.7564554810523987  0.4104882478713989  1.0000
  O   O1        1.0  0.7746943831443787  0.8039217591285706  0.6278836131095886  1.0000
  P   P1        1.0  0.6847246885299683  0.927916944026947  0.20581385493278503  1.0000
