data_image0
_chemical_formula_structural       GeHI3LuNaO2P
_chemical_formula_sum              "Ge1 H1 I3 Lu1 Na1 O2 P1"
_cell_length_a       5.954023038465619
_cell_length_b       5.716060960901197
_cell_length_c       7.562814712524414
_cell_angle_alpha    110.29107396155703
_cell_angle_beta     96.48040687782301
_cell_angle_gamma    114.16808209746996

_space_group_name_H-M_alt    "P 1"
_space_group_IT_number       1

loop_
  _space_group_symop_operation_xyz
  'x, y, z'

loop_
  _atom_site_type_symbol
  _atom_site_label
  _atom_site_symmetry_multiplicity
  _atom_site_fract_x
  _atom_site_fract_y
  _atom_site_fract_z
  _atom_site_occupancy
  Ge  Ge1       1.0  0.4888424575328827  0.989791214466095  0.1842851340770721  1.0000
  H   H1        1.0  0.9790514707565308  0.6527498364448547  0.8429375290870667  1.0000
  I   I1        1.0  0.6672124862670898  0.1619948297739029  0.9271655082702637  1.0000
  I   I2        1.0  0.9931501150131226  0.5369355082511902  0.6474545001983643  1.0000
  I   I3        1.0  0.9948958158493042  0.44709905982017517  0.6902965903282166  1.0000
  Lu  Lu1       1.0  0.49222755432128906  0.8969679474830627  0.6423645615577698  1.0000
  Na  Na1       1.0  0.003201262094080448  0.03520757704973221  0.8663066625595093  1.0000
  O   O1        1.0  0.49731844663619995  0.21146026253700256  0.7850742936134338  1.0000
  O   O2        1.0  0.7270432710647583  0.0029052994213998318  0.8374025821685791  1.0000
  P   P1        1.0  0.4834437370300293  0.5571064352989197  0.9637061357498169  1.0000
