data_image0
_chemical_formula_structural       Cl2Na6O2
_chemical_formula_sum              "Cl2 Na6 O2"
_cell_length_a       5.7600823430871575
_cell_length_b       5.952437484282053
_cell_length_c       7.005965709686279
_cell_angle_alpha    88.52611112707227
_cell_angle_beta     89.39509896712458
_cell_angle_gamma    90.50281740869791

_space_group_name_H-M_alt    "P 1"
_space_group_IT_number       1

loop_
  _space_group_symop_operation_xyz
  'x, y, z'

loop_
  _atom_site_type_symbol
  _atom_site_label
  _atom_site_symmetry_multiplicity
  _atom_site_fract_x
  _atom_site_fract_y
  _atom_site_fract_z
  _atom_site_occupancy
  Cl  Cl1       1.0  0.1787082999944687  0.346870094537735  0.7030153870582581  1.0000
  Cl  Cl2       1.0  0.687200129032135  0.632702112197876  0.697911262512207  1.0000
  Na  Na1       1.0  0.6826932430267334  0.24665993452072144  0.9077547192573547  1.0000
  Na  Na2       1.0  0.6861329674720764  0.0032634688541293144  0.11483658105134964  1.0000
  Na  Na3       1.0  0.19101084768772125  0.6302981972694397  0.8684757351875305  1.0000
  Na  Na4       1.0  0.18246714770793915  0.2060188353061676  0.027605080977082253  1.0000
  Na  Na5       1.0  0.6874465942382812  0.9559548497200012  0.20436683297157288  1.0000
  Na  Na6       1.0  0.18290108442306519  0.16085165739059448  0.6839139461517334  1.0000
  O   O1        1.0  0.19751271605491638  0.5038084983825684  0.038244280964136124  1.0000
  O   O2        1.0  0.7133982181549072  0.994114339351654  0.4697093665599823  1.0000
