data_image0
_chemical_formula_structural       Ge3INaOReSUZn
_chemical_formula_sum              "Ge3 I1 Na1 O1 Re1 S1 U1 Zn1"
_cell_length_a       6.788254506294007
_cell_length_b       6.814733089961966
_cell_length_c       6.933584213256836
_cell_angle_alpha    61.09688930216845
_cell_angle_beta     62.810075985470036
_cell_angle_gamma    62.83553997757939

_space_group_name_H-M_alt    "P 1"
_space_group_IT_number       1

loop_
  _space_group_symop_operation_xyz
  'x, y, z'

loop_
  _atom_site_type_symbol
  _atom_site_label
  _atom_site_symmetry_multiplicity
  _atom_site_fract_x
  _atom_site_fract_y
  _atom_site_fract_z
  _atom_site_occupancy
  Ge  Ge1       1.0  0.12477172166109085  0.7403216361999512  0.37070497870445246  1.0000
  Ge  Ge2       1.0  0.15105360746383667  0.1687389314174652  0.5966204404830933  1.0000
  Ge  Ge3       1.0  0.8952892422676086  0.8271120190620422  0.8674444556236266  1.0000
  I   I1        1.0  0.7937052845954895  0.0851719081401825  0.8768107295036315  1.0000
  Na  Na1       1.0  0.29493165016174316  0.9471268057823181  0.8706160187721251  1.0000
  O   O1        1.0  0.12576709687709808  0.6116989850997925  0.0779385045170784  1.0000
  Re  Re1       1.0  0.8101314902305603  0.9829749464988708  0.4054898619651794  1.0000
  S   S1        1.0  0.7531099915504456  0.14528067409992218  0.7590697407722472  1.0000
  U   U1        1.0  0.620431125164032  0.5860112309455872  0.0696692168712616  1.0000
  Zn  Zn1       1.0  0.8131643533706665  0.33145251870155334  0.527568757534027  1.0000
