data_image0
_chemical_formula_structural       Cl2Na6O2
_chemical_formula_sum              "Cl2 Na6 O2"
_cell_length_a       5.428925407675189
_cell_length_b       5.837149567666017
_cell_length_c       5.434450149536133
_cell_angle_alpha    92.01907874779246
_cell_angle_beta     80.51848046103079
_cell_angle_gamma    80.6653566894675

_space_group_name_H-M_alt    "P 1"
_space_group_IT_number       1

loop_
  _space_group_symop_operation_xyz
  'x, y, z'

loop_
  _atom_site_type_symbol
  _atom_site_label
  _atom_site_symmetry_multiplicity
  _atom_site_fract_x
  _atom_site_fract_y
  _atom_site_fract_z
  _atom_site_occupancy
  Cl  Cl1       1.0  0.020742997527122498  0.6356804370880127  0.8882483839988708  1.0000
  Cl  Cl2       1.0  0.7684795260429382  0.6601698398590088  0.5683595538139343  1.0000
  Na  Na1       1.0  0.01994123682379723  0.23650792241096494  0.35312846302986145  1.0000
  Na  Na2       1.0  0.014243382960557958  0.8140932917594909  0.796935498714447  1.0000
  Na  Na3       1.0  0.5142328143119812  0.4506619274616241  0.7940184473991394  1.0000
  Na  Na4       1.0  0.5182501077651978  0.14603140950202942  0.3943917155265808  1.0000
  Na  Na5       1.0  0.5263850092887878  0.23211258649826047  0.5864533185958862  1.0000
  Na  Na6       1.0  0.26192405819892883  0.8262693881988524  0.09276994317770004  1.0000
  O   O1        1.0  0.5776277184486389  0.2927825450897217  0.31290891766548157  1.0000
  O   O2        1.0  0.27812230587005615  0.06488893926143646  0.7227681875228881  1.0000
