data_image0
_chemical_formula_structural       B2CoFO4Pt3
_chemical_formula_sum              "B2 Co1 F1 O4 Pt3"
_cell_length_a       4.867979387604781
_cell_length_b       4.9008915552847965
_cell_length_c       7.591617107391357
_cell_angle_alpha    67.11330803682874
_cell_angle_beta     69.45165860741345
_cell_angle_gamma    61.99747902252272

_space_group_name_H-M_alt    "P 1"
_space_group_IT_number       1

loop_
  _space_group_symop_operation_xyz
  'x, y, z'

loop_
  _atom_site_type_symbol
  _atom_site_label
  _atom_site_symmetry_multiplicity
  _atom_site_fract_x
  _atom_site_fract_y
  _atom_site_fract_z
  _atom_site_occupancy
  B   B1        1.0  0.14568445086479187  0.9449517130851746  0.890698254108429  1.0000
  B   B2        1.0  0.12636272609233856  0.22846265137195587  0.05194282531738281  1.0000
  Co  Co1       1.0  0.5444328188896179  0.7323738932609558  0.36148571968078613  1.0000
  F   F1        1.0  0.9522988200187683  0.7557827830314636  0.14787191152572632  1.0000
  O   O1        1.0  0.7249831557273865  0.24894151091575623  0.8737684488296509  1.0000
  O   O2        1.0  0.24058797955513  0.23922663927078247  0.1855076253414154  1.0000
  O   O3        1.0  0.2733209729194641  0.7758815288543701  0.33194205164909363  1.0000
  O   O4        1.0  0.738603949546814  0.7402342557907104  0.6884612441062927  1.0000
  Pt  Pt1       1.0  0.24832285940647125  0.24175910651683807  0.6670237183570862  1.0000
  Pt  Pt2       1.0  0.010076918639242649  0.2669815421104431  0.7317710518836975  1.0000
  Pt  Pt3       1.0  0.9351360201835632  0.23381876945495605  0.20066526532173157  1.0000
