data_image0
_chemical_formula_structural       B2CoFO3PbPt3
_chemical_formula_sum              "B2 Co1 F1 O3 Pb1 Pt3"
_cell_length_a       4.815981878942034
_cell_length_b       5.155299094138963
_cell_length_c       6.732470989227295
_cell_angle_alpha    70.11917738444046
_cell_angle_beta     67.38677631443964
_cell_angle_gamma    62.84410847582666

_space_group_name_H-M_alt    "P 1"
_space_group_IT_number       1

loop_
  _space_group_symop_operation_xyz
  'x, y, z'

loop_
  _atom_site_type_symbol
  _atom_site_label
  _atom_site_symmetry_multiplicity
  _atom_site_fract_x
  _atom_site_fract_y
  _atom_site_fract_z
  _atom_site_occupancy
  B   B1        1.0  0.5443722605705261  0.3483739197254181  0.9952034950256347  1.0000
  B   B2        1.0  0.8827586770057678  0.8551123142242432  0.9863567352294921  1.0000
  Co  Co1       1.0  0.8253610134124756  0.12299862504005432  0.4120990931987762  1.0000
  F   F1        1.0  0.5509531497955322  0.7761991620063782  0.48345118761062617  1.0000
  O   O1        1.0  0.782972514629364  0.823289155960083  0.7179793715476989  1.0000
  O   O2        1.0  0.5777719020843506  0.34719157218933105  0.9833417534828185  1.0000
  O   O3        1.0  0.2987309694290161  0.11972938477993011  0.663047969341278  1.0000
  Pb  Pb1       1.0  0.06925660371780396  0.3571218252182007  0.9657011628150939  1.0000
  Pt  Pt1       1.0  0.25951865315437317  0.38592529296875  0.5325908660888672  1.0000
  Pt  Pt2       1.0  0.43804553151130676  0.0009061583550646901  0.15000389516353607  1.0000
  Pt  Pt3       1.0  0.8204989433288574  0.2679431140422821  0.4817593693733215  1.0000
