data_image0
_chemical_formula_structural       BCo3FHfMnO2Pt2
_chemical_formula_sum              "B1 Co3 F1 Hf1 Mn1 O2 Pt2"
_cell_length_a       4.584519712471531
_cell_length_b       4.848794349741365
_cell_length_c       6.78171968460083
_cell_angle_alpha    73.12940617142306
_cell_angle_beta     68.5593471714647
_cell_angle_gamma    58.55604852041362

_space_group_name_H-M_alt    "P 1"
_space_group_IT_number       1

loop_
  _space_group_symop_operation_xyz
  'x, y, z'

loop_
  _atom_site_type_symbol
  _atom_site_label
  _atom_site_symmetry_multiplicity
  _atom_site_fract_x
  _atom_site_fract_y
  _atom_site_fract_z
  _atom_site_occupancy
  B   B1        1.0  0.6043517589569092  0.2892318367958069  0.6493892669677734  1.0000
  Co  Co1       1.0  0.6928697228431702  0.7534858584403992  0.4380650818347931  1.0000
  Co  Co2       1.0  0.33996161818504333  0.5227450132369995  0.8206170797348022  1.0000
  Co  Co3       1.0  0.8240815997123718  0.053779516369104385  0.4003771245479584  1.0000
  F   F1        1.0  0.9230149388313293  0.7751896381378174  0.8171514272689819  1.0000
  Hf  Hf1       1.0  0.2733938992023468  0.28683897852897644  0.14819903671741486  1.0000
  Mn  Mn1       1.0  0.27241507172584534  0.9668567180633545  0.6426076889038086  1.0000
  O   O1        1.0  0.6264477968215942  0.4582536816596985  0.1516270637512207  1.0000
  O   O2        1.0  0.6734201312065125  0.20582935214042664  0.6396897435188293  1.0000
  Pt  Pt1       1.0  0.5279280543327332  0.9281197786331177  0.017107779160141945  1.0000
  Pt  Pt2       1.0  0.5835589170455933  0.47730469703674316  0.04080934077501297  1.0000
