data_image0
_chemical_formula_structural       BCo4FHf2O2Pt
_chemical_formula_sum              "B1 Co4 F1 Hf2 O2 Pt1"
_cell_length_a       4.703559277438133
_cell_length_b       5.109263654616281
_cell_length_c       6.638638496398926
_cell_angle_alpha    69.05743602107023
_cell_angle_beta     67.17405696347386
_cell_angle_gamma    61.21646626286173

_space_group_name_H-M_alt    "P 1"
_space_group_IT_number       1

loop_
  _space_group_symop_operation_xyz
  'x, y, z'

loop_
  _atom_site_type_symbol
  _atom_site_label
  _atom_site_symmetry_multiplicity
  _atom_site_fract_x
  _atom_site_fract_y
  _atom_site_fract_z
  _atom_site_occupancy
  B   B1        1.0  0.4131130874156952  0.695522129535675  0.3424072265625  1.0000
  Co  Co1       1.0  0.02936144918203354  0.18667387962341309  0.5870232582092285  1.0000
  Co  Co2       1.0  0.13467256724834442  0.19380958378314972  0.9048417210578918  1.0000
  Co  Co3       1.0  0.7148674726486206  0.5833047032356262  0.4247121214866638  1.0000
  Co  Co4       1.0  0.9711974859237671  0.6862378716468811  0.18705227971076965  1.0000
  F   F1        1.0  0.3811239004135132  0.698471188545227  0.18440474569797516  1.0000
  Hf  Hf1       1.0  0.7382314205169678  0.9474365711212158  0.00230674771592021  1.0000
  Hf  Hf2       1.0  0.978725016117096  0.3047446012496948  0.8116268515586853  1.0000
  O   O1        1.0  0.6455391049385071  0.18836264312267303  0.4259568154811859  1.0000
  O   O2        1.0  0.1506657898426056  0.6721124053001404  0.6857535243034363  1.0000
  Pt  Pt1       1.0  0.28817805647850037  0.18940982222557068  0.5795778632164001  1.0000
