data_image0
_chemical_formula_structural       BCoFO4Pt4
_chemical_formula_sum              "B1 Co1 F1 O4 Pt4"
_cell_length_a       4.2594139674131
_cell_length_b       4.721457121674077
_cell_length_c       7.755398750305176
_cell_angle_alpha    71.927384253746
_cell_angle_beta     72.80802107951723
_cell_angle_gamma    62.319253144154025

_space_group_name_H-M_alt    "P 1"
_space_group_IT_number       1

loop_
  _space_group_symop_operation_xyz
  'x, y, z'

loop_
  _atom_site_type_symbol
  _atom_site_label
  _atom_site_symmetry_multiplicity
  _atom_site_fract_x
  _atom_site_fract_y
  _atom_site_fract_z
  _atom_site_occupancy
  B   B1        1.0  0.4680016040802002  0.3934498727321625  0.5363205671310425  1.0000
  Co  Co1       1.0  0.11922232061624527  0.5024893283843994  0.5948576927185059  1.0000
  F   F1        1.0  0.8130645751953125  0.1986021101474762  0.7210641503334045  1.0000
  O   O1        1.0  0.7301891446113586  0.7340933084487915  0.2390337884426117  1.0000
  O   O2        1.0  0.22415052354335785  0.23344112932682037  0.5423946976661682  1.0000
  O   O3        1.0  0.6492707133293152  0.6131967306137085  0.36496737599372864  1.0000
  O   O4        1.0  0.6095824837684631  0.9867775440216064  0.9740985631942749  1.0000
  Pt  Pt1       1.0  0.27618592977523804  0.6784909963607788  0.3227629065513611  1.0000
  Pt  Pt2       1.0  0.7846120595932007  0.7359159588813782  0.3434065282344818  1.0000
  Pt  Pt3       1.0  0.7477167248725891  0.2442183792591095  0.9141229391098022  1.0000
  Pt  Pt4       1.0  0.503459095954895  0.21243467926979065  0.8187913298606873  1.0000
