data_image0
_chemical_formula_structural       B2F2O4Pt3
_chemical_formula_sum              "B2 F2 O4 Pt3"
_cell_length_a       3.8411001031055587
_cell_length_b       2.745655723089869
_cell_length_c       9.78341007232666
_cell_angle_alpha    103.67543972250071
_cell_angle_beta     98.71812067427156
_cell_angle_gamma    119.12809118187864

_space_group_name_H-M_alt    "P 1"
_space_group_IT_number       1

loop_
  _space_group_symop_operation_xyz
  'x, y, z'

loop_
  _atom_site_type_symbol
  _atom_site_label
  _atom_site_symmetry_multiplicity
  _atom_site_fract_x
  _atom_site_fract_y
  _atom_site_fract_z
  _atom_site_occupancy
  B   B1        1.0  0.811884582042694  0.1200828030705452  0.40428870916366577  1.0000
  B   B2        1.0  0.5105020999908447  0.03162573650479317  0.29114052653312683  1.0000
  F   F1        1.0  0.394300490617752  0.03276698291301727  0.48984774947166443  1.0000
  F   F2        1.0  0.7032539248466492  0.9147387742996216  0.7545087337493896  1.0000
  O   O1        1.0  0.0673171654343605  0.6240842342376709  0.7438561916351318  1.0000
  O   O2        1.0  0.047186516225337975  0.6724803447723389  0.8035402894020081  1.0000
  O   O3        1.0  0.3134945333003998  0.35034245252609253  0.45931577682495117  1.0000
  O   O4        1.0  0.05520412325859069  0.8457086086273193  0.555724024772644  1.0000
  Pt  Pt1       1.0  0.8144598007202147  0.4135976731777191  0.46999192237854004  1.0000
  Pt  Pt2       1.0  0.7956253886222838  0.6052934527397156  0.48816972970962524  1.0000
  Pt  Pt3       1.0  0.8470635414123534  0.04479190334677696  0.9632089138031006  1.0000
