data_image0
_chemical_formula_structural       BBr2La5PSi
_chemical_formula_sum              "B1 Br2 La5 P1 Si1"
_cell_length_a       6.8556981091439155
_cell_length_b       7.261138621679392
_cell_length_c       7.499460220336914
_cell_angle_alpha    112.28822976801816
_cell_angle_beta     113.25523308771777
_cell_angle_gamma    101.03109391952454

_space_group_name_H-M_alt    "P 1"
_space_group_IT_number       1

loop_
  _space_group_symop_operation_xyz
  'x, y, z'

loop_
  _atom_site_type_symbol
  _atom_site_label
  _atom_site_symmetry_multiplicity
  _atom_site_fract_x
  _atom_site_fract_y
  _atom_site_fract_z
  _atom_site_occupancy
  B   B1        1.0  0.834931790828705  0.36794576048851013  0.7462446689605712  1.0000
  Br  Br1       1.0  0.0211237333714962  0.7777422666549683  0.22917814552783963  1.0000
  Br  Br2       1.0  0.7762228250503541  0.2996584177017212  0.36641526222229  1.0000
  La  La1       1.0  0.31769880652427673  0.35384586453437805  0.02562659420073035  1.0000
  La  La2       1.0  0.8052197098731996  0.3493925929069519  0.3546860814094543  1.0000
  La  La3       1.0  0.2891586124897003  0.33233821392059326  0.35127812623977656  1.0000
  La  La4       1.0  0.33032453060150146  0.3581044673919678  0.7554587125778197  1.0000
  La  La5       1.0  0.3558250069618225  0.8345530033111572  0.28202992677688604  1.0000
  P   P1        1.0  0.6608958840370178  0.8651397228240968  0.6202742457389832  1.0000
  Si  Si1       1.0  0.0009120777249336948  0.8673684000968934  0.0042550768703222275  1.0000
