data_image0
_chemical_formula_structural       Br2GeLa6S
_chemical_formula_sum              "Br2 Ge1 La6 S1"
_cell_length_a       5.828424349440559
_cell_length_b       8.066702047819556
_cell_length_c       8.220030784606934
_cell_angle_alpha    111.87177070249685
_cell_angle_beta     106.70854982169108
_cell_angle_gamma    94.0574151434737

_space_group_name_H-M_alt    "P 1"
_space_group_IT_number       1

loop_
  _space_group_symop_operation_xyz
  'x, y, z'

loop_
  _atom_site_type_symbol
  _atom_site_label
  _atom_site_symmetry_multiplicity
  _atom_site_fract_x
  _atom_site_fract_y
  _atom_site_fract_z
  _atom_site_occupancy
  Br  Br1       1.0  0.5648850798606873  0.8556415438652037  0.7882986068725586  1.0000
  Br  Br2       1.0  0.7640609145164489  0.15078096091747284  0.8862152099609375  1.0000
  Ge  Ge1       1.0  0.29066166281700134  0.35724073648452753  0.7786641120910645  1.0000
  La  La1       1.0  0.8169281482696532  0.6608356237411499  0.880943477153778  1.0000
  La  La2       1.0  0.24365074932575223  0.16053692996501923  0.35404932498931885  1.0000
  La  La3       1.0  0.8429909944534301  0.8575035333633422  0.5674408674240111  1.0000
  La  La4       1.0  0.10127116739749904  0.9432107210159301  0.10426848381757725  1.0000
  La  La5       1.0  0.32191959023475647  0.37630110979080195  0.6001242995262146  1.0000
  La  La6       1.0  0.6314032673835754  0.2742632031440735  0.15819407999515528  1.0000
  S   S1        1.0  0.05477343499660488  0.7641322016716002  0.9607016444206238  1.0000
