data_image0
_chemical_formula_structural       Br2La8
_chemical_formula_sum              "Br2 La8"
_cell_length_a       6.1832711870560715
_cell_length_b       7.56949812535396
_cell_length_c       6.869501113891602
_cell_angle_alpha    123.43916553431264
_cell_angle_beta     95.156894221498
_cell_angle_gamma    89.19763682483871

_space_group_name_H-M_alt    "P 1"
_space_group_IT_number       1

loop_
  _space_group_symop_operation_xyz
  'x, y, z'

loop_
  _atom_site_type_symbol
  _atom_site_label
  _atom_site_symmetry_multiplicity
  _atom_site_fract_x
  _atom_site_fract_y
  _atom_site_fract_z
  _atom_site_occupancy
  Br  Br1       1.0  0.3115631937980652  0.6336598992347717  0.3850481808185577  1.0000
  Br  Br2       1.0  0.7860966324806213  0.22333858907222748  0.6755484342575073  1.0000
  La  La1       1.0  0.3065565228462219  0.7255952954292297  0.818706214427948  1.0000
  La  La2       1.0  0.3066731095314026  0.4400474429130554  0.5091928243637085  1.0000
  La  La3       1.0  0.7990708947181702  0.3910618722438812  0.621599018573761  1.0000
  La  La4       1.0  0.29549580812454224  0.9796331524848938  0.22609139978885637  1.0000
  La  La5       1.0  0.8074595928192139  0.3838461637496948  0.007715384941548109  1.0000
  La  La6       1.0  0.777748703956604  0.45411503314971924  0.8143544793128967  1.0000
  La  La7       1.0  0.8054465055465698  0.7089419364929199  0.9012522101402283  1.0000
  La  La8       1.0  0.3022298812866211  0.7750202417373657  0.24323856830596924  1.0000
