data_image0
_chemical_formula_structural       Br4La4PSi
_chemical_formula_sum              "Br4 La4 P1 Si1"
_cell_length_a       7.117599759731068
_cell_length_b       7.984877959881365
_cell_length_c       7.834936141967773
_cell_angle_alpha    111.7513368581226
_cell_angle_beta     109.45857211318683
_cell_angle_gamma    101.11577729062762

_space_group_name_H-M_alt    "P 1"
_space_group_IT_number       1

loop_
  _space_group_symop_operation_xyz
  'x, y, z'

loop_
  _atom_site_type_symbol
  _atom_site_label
  _atom_site_symmetry_multiplicity
  _atom_site_fract_x
  _atom_site_fract_y
  _atom_site_fract_z
  _atom_site_occupancy
  Br  Br1       1.0  0.5305964350700378  0.46492576599121094  0.22652998566627502  1.0000
  Br  Br2       1.0  0.27909523248672485  0.44043412804603577  0.5627460479736328  1.0000
  Br  Br3       1.0  0.28241947293281555  0.7153781652450562  0.26950138807296753  1.0000
  Br  Br4       1.0  0.7839547991752625  0.1553075909614563  0.2996038496494293  1.0000
  La  La1       1.0  0.8360205888748169  0.9003950357437134  0.6994644403457642  1.0000
  La  La2       1.0  0.5187922120094299  0.9831256866455078  0.38338518142700195  1.0000
  La  La3       1.0  0.8026031851768494  0.5123055577278137  0.888687252998352  1.0000
  La  La4       1.0  0.27709704637527466  0.6489876508712769  0.327357679605484  1.0000
  P   P1        1.0  0.28465378284454346  0.023267559707164764  0.9483349323272705  1.0000
  Si  Si1       1.0  0.7792990207672119  0.1658262312412262  0.07313806563615799  1.0000
