data_image0
_chemical_formula_structural       Br5La5
_chemical_formula_sum              "Br5 La5"
_cell_length_a       5.8330101771382665
_cell_length_b       9.378656150486755
_cell_length_c       9.250814437866211
_cell_angle_alpha    120.84782236321212
_cell_angle_beta     89.11175398161798
_cell_angle_gamma    89.00584311930972

_space_group_name_H-M_alt    "P 1"
_space_group_IT_number       1

loop_
  _space_group_symop_operation_xyz
  'x, y, z'

loop_
  _atom_site_type_symbol
  _atom_site_label
  _atom_site_symmetry_multiplicity
  _atom_site_fract_x
  _atom_site_fract_y
  _atom_site_fract_z
  _atom_site_occupancy
  Br  Br1       1.0  0.12518899142742157  0.2828254699707031  0.26317915320396423  1.0000
  Br  Br2       1.0  0.6350054144859314  0.7838922142982483  0.42429685592651367  1.0000
  Br  Br3       1.0  0.14806583523750305  0.22478608787059784  0.505447268486023  1.0000
  Br  Br4       1.0  0.6395975947380066  0.7595813274383545  0.24129451811313632  1.0000
  Br  Br5       1.0  0.13385839760303497  0.5992639660835266  0.2411889433860779  1.0000
  La  La1       1.0  0.14094744622707367  0.5788264870643616  0.2185414731502533  1.0000
  La  La2       1.0  0.6275230050086975  0.043966662138700485  0.7822416424751282  1.0000
  La  La3       1.0  0.6373090744018555  0.026506271213293076  0.7244781255722046  1.0000
  La  La4       1.0  0.6495932936668396  0.29531314969062805  0.5021399259567261  1.0000
  La  La5       1.0  0.12085525691509247  0.25014248490333557  0.4069061279296875  1.0000
