data_image0
_chemical_formula_structural       Br2La5P2Si
_chemical_formula_sum              "Br2 La5 P2 Si1"
_cell_length_a       7.543773503513151
_cell_length_b       8.135271035641875
_cell_length_c       7.737284183502197
_cell_angle_alpha    109.21943015740948
_cell_angle_beta     109.21277488108791
_cell_angle_gamma    106.69111234158414

_space_group_name_H-M_alt    "P 1"
_space_group_IT_number       1

loop_
  _space_group_symop_operation_xyz
  'x, y, z'

loop_
  _atom_site_type_symbol
  _atom_site_label
  _atom_site_symmetry_multiplicity
  _atom_site_fract_x
  _atom_site_fract_y
  _atom_site_fract_z
  _atom_site_occupancy
  Br  Br1       1.0  0.13645479083061218  0.4825793504714966  0.06452769786119461  1.0000
  Br  Br2       1.0  0.6155633926391602  0.1349499225616455  0.028851320967078212  1.0000
  La  La1       1.0  0.11128480732440948  0.6734498143196106  0.4131401479244233  1.0000
  La  La2       1.0  0.3883260190486908  0.8825134634971619  0.6512022018432618  1.0000
  La  La3       1.0  0.3894512355327606  0.8629878163337708  0.5823156237602235  1.0000
  La  La4       1.0  0.14131614565849304  0.09688561409711838  0.20447480678558352  1.0000
  La  La5       1.0  0.6449413299560547  0.5827636122703552  0.2947459220886231  1.0000
  P   P1        1.0  0.8915178179740906  0.6214442253112793  0.3358032107353211  1.0000
  P   P2        1.0  0.6313024163246155  0.3547966778278351  0.9463589191436769  1.0000
  Si  Si1       1.0  0.11558734625577927  0.16952702403068542  0.0672035738825798  1.0000
