data_image0
_chemical_formula_structural       Al2O2P4Pb
_chemical_formula_sum              "Al2 O2 P4 Pb1"
_cell_length_a       6.254291719634682
_cell_length_b       6.398855757107926
_cell_length_c       6.218926906585693
_cell_angle_alpha    57.60651906817334
_cell_angle_beta     56.59759667438635
_cell_angle_gamma    56.02070697114051

_space_group_name_H-M_alt    "P 1"
_space_group_IT_number       1

loop_
  _space_group_symop_operation_xyz
  'x, y, z'

loop_
  _atom_site_type_symbol
  _atom_site_label
  _atom_site_symmetry_multiplicity
  _atom_site_fract_x
  _atom_site_fract_y
  _atom_site_fract_z
  _atom_site_occupancy
  Al  Al1       1.0  0.01721348613500595  0.939918041229248  0.9486639499664307  1.0000
  Al  Al2       1.0  0.39657044410705566  0.4337209165096283  0.8926926255226135  1.0000
  O   O1        1.0  0.7131989598274231  0.47924837470054626  0.8640745878219604  1.0000
  O   O2        1.0  0.6028779149055481  0.1504087746143341  0.0481383353471756  1.0000
  P   P1        1.0  0.8757368922233583  0.2798610031604767  0.8975845575332642  1.0000
  P   P2        1.0  0.5724807381629944  0.21489980816841125  0.47855883836746216  1.0000
  P   P3        1.0  0.09075159579515457  0.6012270450592041  0.14333349466323853  1.0000
  P   P4        1.0  0.27391859889030457  0.09825780987739563  0.46922585368156433  1.0000
  Pb  Pb1       1.0  0.04531209170818329  0.6348147392272949  0.580895185470581  1.0000
