data_image0
_chemical_formula_structural       Al4O3P2
_chemical_formula_sum              "Al4 O3 P2"
_cell_length_a       4.609141563970998
_cell_length_b       4.087072682166304
_cell_length_c       7.629560470581055
_cell_angle_alpha    112.74440320046841
_cell_angle_beta     102.97865725936714
_cell_angle_gamma    80.14748161423054

_space_group_name_H-M_alt    "P 1"
_space_group_IT_number       1

loop_
  _space_group_symop_operation_xyz
  'x, y, z'

loop_
  _atom_site_type_symbol
  _atom_site_label
  _atom_site_symmetry_multiplicity
  _atom_site_fract_x
  _atom_site_fract_y
  _atom_site_fract_z
  _atom_site_occupancy
  Al  Al1       1.0  0.9018044471740723  0.06329074501991272  0.8184515237808228  1.0000
  Al  Al2       1.0  0.42985010147094727  0.9242807030677794  0.8657874464988708  1.0000
  Al  Al3       1.0  0.6342453360557556  0.8889033794403075  0.7471304535865784  1.0000
  Al  Al4       1.0  0.20619945228099823  0.4468372464179992  0.06097795814275742  1.0000
  O   O1        1.0  0.9119130969047546  0.49209040403366083  0.702004075050354  1.0000
  O   O2        1.0  0.905486524105072  0.23790051043033597  0.10251856595277786  1.0000
  O   O3        1.0  0.17834597826004028  0.5962647199630737  0.8189976215362549  1.0000
  P   P1        1.0  0.8782094120979309  0.9203369617462157  0.39242023229599  1.0000
  P   P2        1.0  0.24409526586532593  0.4051831364631653  0.8206859827041626  1.0000
