data_image0
_chemical_formula_structural       Al4O2P3
_chemical_formula_sum              "Al4 O2 P3"
_cell_length_a       4.964765694308525
_cell_length_b       4.64469716609251
_cell_length_c       9.14326000213623
_cell_angle_alpha    101.7272107388779
_cell_angle_beta     93.46184980131773
_cell_angle_gamma    89.02447065354991

_space_group_name_H-M_alt    "P 1"
_space_group_IT_number       1

loop_
  _space_group_symop_operation_xyz
  'x, y, z'

loop_
  _atom_site_type_symbol
  _atom_site_label
  _atom_site_symmetry_multiplicity
  _atom_site_fract_x
  _atom_site_fract_y
  _atom_site_fract_z
  _atom_site_occupancy
  Al  Al1       1.0  0.30916404724121094  0.7235598564147949  0.9509040117263794  1.0000
  Al  Al2       1.0  0.30796217918395996  0.18718013167381287  0.9728087186813356  1.0000
  Al  Al3       1.0  0.8201092481613159  0.019104663282632828  0.7144042253494263  1.0000
  Al  Al4       1.0  0.31185248494148254  0.7983672618865967  0.8860766887664795  1.0000
  O   O1        1.0  0.3234805166721344  0.5352960228919983  0.9647231101989747  1.0000
  O   O2        1.0  0.02238461561501026  0.4289776086807251  0.02414688654243946  1.0000
  P   P1        1.0  0.818243682384491  0.5832988619804382  0.37636056542396545  1.0000
  P   P2        1.0  0.8023431301116943  0.9608182311058044  0.019009938463568687  1.0000
  P   P3        1.0  0.30291983485221863  0.18339316546916962  0.5696287155151367  1.0000
