data_image0
_chemical_formula_structural       Al2IO3P3
_chemical_formula_sum              "Al2 I1 O3 P3"
_cell_length_a       4.050603726419878
_cell_length_b       3.702374406340804
_cell_length_c       4.77595853805542
_cell_angle_alpha    46.57966435768116
_cell_angle_beta     49.99188403950558
_cell_angle_gamma    49.092198593380374

_space_group_name_H-M_alt    "P 1"
_space_group_IT_number       1

loop_
  _space_group_symop_operation_xyz
  'x, y, z'

loop_
  _atom_site_type_symbol
  _atom_site_label
  _atom_site_symmetry_multiplicity
  _atom_site_fract_x
  _atom_site_fract_y
  _atom_site_fract_z
  _atom_site_occupancy
  Al  Al1       1.0  0.020663732662796974  0.4346420168876648  0.373639315366745  1.0000
  Al  Al2       1.0  0.02147647738456726  0.6680676937103271  0.4471198320388794  1.0000
  I   I1        1.0  0.8801342248916626  0.6896645426750183  0.5889690518379211  1.0000
  O   O1        1.0  0.32065680623054504  0.3414739668369293  0.6387686729431152  1.0000
  O   O2        1.0  0.3501570522785187  0.4592507779598236  0.9912965297698975  1.0000
  O   O3        1.0  0.5921738147735596  0.5302850604057312  0.9406317472457886  1.0000
  P   P1        1.0  0.36625632643699646  0.931369423866272  0.15475566685199738  1.0000
  P   P2        1.0  0.37230104207992554  0.1188197210431099  0.9545027017593384  1.0000
  P   P3        1.0  0.40141716599464417  0.45118167996406555  0.7748915553092957  1.0000
