data_image0
_chemical_formula_structural       H3Ir2PPdPtSiTi
_chemical_formula_sum              "H3 Ir2 P1 Pd1 Pt1 Si1 Ti1"
_cell_length_a       5.277917281019544
_cell_length_b       5.6828158874242
_cell_length_c       5.949115753173828
_cell_angle_alpha    65.480096513224
_cell_angle_beta     60.803483088345125
_cell_angle_gamma    59.53058548640575

_space_group_name_H-M_alt    "P 1"
_space_group_IT_number       1

loop_
  _space_group_symop_operation_xyz
  'x, y, z'

loop_
  _atom_site_type_symbol
  _atom_site_label
  _atom_site_symmetry_multiplicity
  _atom_site_fract_x
  _atom_site_fract_y
  _atom_site_fract_z
  _atom_site_occupancy
  H   H1        1.0  0.9840834736824036  0.7717956900596619  0.5323463082313538  1.0000
  H   H2        1.0  0.2766873836517334  0.5281691551208496  0.14115190505981445  1.0000
  H   H3        1.0  0.4770568013191223  0.7533779144287109  0.9373936057090759  1.0000
  Ir  Ir1       1.0  0.2703720033168793  0.9139124751091003  0.591568648815155  1.0000
  Ir  Ir2       1.0  0.6785444617271423  0.22663600742816925  0.8411155939102173  1.0000
  P   P1        1.0  0.7173099517822266  0.5446770787239075  0.3958759605884552  1.0000
  Pd  Pd1       1.0  0.9198490381240845  0.5772615075111389  0.22614477574825287  1.0000
  Pt  Pt1       1.0  0.1521267145872116  0.716293215751648  0.30198904871940613  1.0000
  Si  Si1       1.0  0.9871847629547119  0.30254635214805603  0.10188120603561401  1.0000
  Ti  Ti1       1.0  0.22956743836402893  0.9858919382095337  0.35711559653282166  1.0000
