data_image0
_chemical_formula_structural       GeH3P3PdPt2
_chemical_formula_sum              "Ge1 H3 P3 Pd1 Pt2"
_cell_length_a       5.155337495761393
_cell_length_b       5.507307187496695
_cell_length_c       6.6960673332214355
_cell_angle_alpha    91.31439510597751
_cell_angle_beta     89.37155611387618
_cell_angle_gamma    90.2659153859643

_space_group_name_H-M_alt    "P 1"
_space_group_IT_number       1

loop_
  _space_group_symop_operation_xyz
  'x, y, z'

loop_
  _atom_site_type_symbol
  _atom_site_label
  _atom_site_symmetry_multiplicity
  _atom_site_fract_x
  _atom_site_fract_y
  _atom_site_fract_z
  _atom_site_occupancy
  Ge  Ge1       1.0  0.7339533567428589  0.116104856133461  0.7915152907371521  1.0000
  H   H1        1.0  0.7262508273124695  0.04037506878376007  0.7789043188095093  1.0000
  H   H2        1.0  0.24466609954833984  0.5420368313789368  0.8379331231117249  1.0000
  H   H3        1.0  0.26081132888793945  0.03934786468744278  0.4551336169242859  1.0000
  P   P1        1.0  0.7330460548400879  0.7812836170196533  0.2830488085746765  1.0000
  P   P2        1.0  0.25150418281555176  0.5313658118247986  0.027363812550902367  1.0000
  P   P3        1.0  0.21863986551761627  0.6067104935646057  0.5637646913528442  1.0000
  Pd  Pd1       1.0  0.23344819247722626  0.9895032644271851  0.7786283493041992  1.0000
  Pt  Pt1       1.0  0.2399861365556717  0.43096762895584106  0.31147414445877075  1.0000
  Pt  Pt2       1.0  0.7442736625671387  0.9531549215316772  0.38937827944755554  1.0000
