data_image0
_chemical_formula_structural       H6Pd4
_chemical_formula_sum              "H6 Pd4"
_cell_length_a       5.1655312541305145
_cell_length_b       5.71350143527007
_cell_length_c       4.974395751953125
_cell_angle_alpha    65.21359651469557
_cell_angle_beta     62.31605515090504
_cell_angle_gamma    62.02734326552544

_space_group_name_H-M_alt    "P 1"
_space_group_IT_number       1

loop_
  _space_group_symop_operation_xyz
  'x, y, z'

loop_
  _atom_site_type_symbol
  _atom_site_label
  _atom_site_symmetry_multiplicity
  _atom_site_fract_x
  _atom_site_fract_y
  _atom_site_fract_z
  _atom_site_occupancy
  H   H1        1.0  0.939949631690979  0.621590256690979  0.48151418566703796  1.0000
  H   H2        1.0  0.6871500015258789  0.2913912236690521  0.020048758015036583  1.0000
  H   H3        1.0  0.22418813407421112  0.3736060559749603  0.8541377782821655  1.0000
  H   H4        1.0  0.7035287022590637  0.5034602284431458  0.42040878534317017  1.0000
  H   H5        1.0  0.2294541448354721  0.9161702990531921  0.8394376635551453  1.0000
  H   H6        1.0  0.9172070026397705  0.07014865428209305  0.12945978343486786  1.0000
  Pd  Pd1       1.0  0.679276168346405  0.9752862453460693  0.6120174527168274  1.0000
  Pd  Pd2       1.0  0.414136677980423  0.11209161579608917  0.20120900869369507  1.0000
  Pd  Pd3       1.0  0.21262571215629578  0.8629807233810425  0.18693825602531433  1.0000
  Pd  Pd4       1.0  0.9169197678565979  0.906498372554779  0.1555224061012268  1.0000
