data_image0
_chemical_formula_structural       H5Pd5
_chemical_formula_sum              "H5 Pd5"
_cell_length_a       3.967426957357905
_cell_length_b       4.553694453730372
_cell_length_c       4.851097583770752
_cell_angle_alpha    88.53544641126327
_cell_angle_beta     87.10871748241583
_cell_angle_gamma    87.6598223897838

_space_group_name_H-M_alt    "P 1"
_space_group_IT_number       1

loop_
  _space_group_symop_operation_xyz
  'x, y, z'

loop_
  _atom_site_type_symbol
  _atom_site_label
  _atom_site_symmetry_multiplicity
  _atom_site_fract_x
  _atom_site_fract_y
  _atom_site_fract_z
  _atom_site_occupancy
  H   H1        1.0  0.5964938998222351  0.4251197278499603  0.0644172728061676  1.0000
  H   H2        1.0  0.583024263381958  0.42580148577690125  0.8148297667503358  1.0000
  H   H3        1.0  0.09383620321750641  0.22264307737350464  0.3641444444656372  1.0000
  H   H4        1.0  0.5807751417160034  0.6157500743865967  0.30721554160118103  1.0000
  H   H5        1.0  0.09259240329265594  0.7036067843437195  0.19655057787895203  1.0000
  Pd  Pd1       1.0  0.08562029898166656  0.47598597407341003  0.8037223815917969  1.0000
  Pd  Pd2       1.0  0.5847095847129822  0.5077233910560608  0.035133548080921166  1.0000
  Pd  Pd3       1.0  0.584966242313385  0.7541488409042358  0.0733126550912857  1.0000
  Pd  Pd4       1.0  0.08958861976861954  0.9063111543655396  0.1954410821199417  1.0000
  Pd  Pd5       1.0  0.5882741212844849  0.5516952276229858  0.7019667029380798  1.0000
