data_image0
_chemical_formula_structural       H3Ir2P2Pd2Sr
_chemical_formula_sum              "H3 Ir2 P2 Pd2 Sr1"
_cell_length_a       4.964771500391896
_cell_length_b       5.24955830070736
_cell_length_c       6.611586093902588
_cell_angle_alpha    94.00960208692719
_cell_angle_beta     89.36646855068656
_cell_angle_gamma    103.43777099208195

_space_group_name_H-M_alt    "P 1"
_space_group_IT_number       1

loop_
  _space_group_symop_operation_xyz
  'x, y, z'

loop_
  _atom_site_type_symbol
  _atom_site_label
  _atom_site_symmetry_multiplicity
  _atom_site_fract_x
  _atom_site_fract_y
  _atom_site_fract_z
  _atom_site_occupancy
  H   H1        1.0  0.3376845419406891  0.7507138252258301  0.7772685289382933  1.0000
  H   H2        1.0  0.8329190015792847  0.9877553582191467  0.9062944054603576  1.0000
  H   H3        1.0  0.8304353356361389  0.9029294848442078  0.06757975369691849  1.0000
  Ir  Ir1       1.0  0.3346114158630371  0.9167072772979736  0.06694483757019043  1.0000
  Ir  Ir2       1.0  0.0077890679240226746  0.9265090227127075  0.7246028780937195  1.0000
  P   P1        1.0  0.34329336881637573  0.149929940700531  0.11237424612045287  1.0000
  P   P2        1.0  0.8288668394088745  0.8782172799110413  0.2326513826847076  1.0000
  Pd  Pd1       1.0  0.34187889099121094  0.8350778222084045  0.4568729400634765  1.0000
  Pd  Pd2       1.0  0.3322399854660034  0.5315715670585632  0.7768479585647582  1.0000
  Sr  Sr1       1.0  0.826547384262085  0.42494481801986694  0.7422246932983397  1.0000
