data_image0
_chemical_formula_structural       H2IrPPd4PtSi
_chemical_formula_sum              "H2 Ir1 P1 Pd4 Pt1 Si1"
_cell_length_a       5.3299349641179425
_cell_length_b       4.958909921493986
_cell_length_c       5.743590354919434
_cell_angle_alpha    101.40014400708415
_cell_angle_beta     90.52024180643086
_cell_angle_gamma    90.21771655284486

_space_group_name_H-M_alt    "P 1"
_space_group_IT_number       1

loop_
  _space_group_symop_operation_xyz
  'x, y, z'

loop_
  _atom_site_type_symbol
  _atom_site_label
  _atom_site_symmetry_multiplicity
  _atom_site_fract_x
  _atom_site_fract_y
  _atom_site_fract_z
  _atom_site_occupancy
  H   H1        1.0  0.8704993724822998  0.6308347582817078  0.1799742728471756  1.0000
  H   H2        1.0  0.370545893907547  0.8072625994682312  0.08268046379089357  1.0000
  Ir  Ir1       1.0  0.8515247106552124  0.8011111617088318  0.31562817096710205  1.0000
  P   P1        1.0  0.8756244778633118  0.403670996427536  0.8640378713607788  1.0000
  Pd  Pd1       1.0  0.887493371963501  0.9703744649887086  0.9426414966583252  1.0000
  Pd  Pd2       1.0  0.39104264974594116  0.5014858245849609  0.5433585047721863  1.0000
  Pd  Pd3       1.0  0.36010172963142395  0.709719717502594  0.7959535121917725  1.0000
  Pd  Pd4       1.0  0.36831536889076233  0.75245201587677  0.41984403133392334  1.0000
  Pt  Pt1       1.0  0.9054620265960693  0.11034645885229111  0.24126505851745605  1.0000
  Si  Si1       1.0  0.39817875623703003  0.2175704389810562  0.2138553261756897  1.0000
