data_image0
_chemical_formula_structural       I2InNi7P
_chemical_formula_sum              "I2 In1 Ni7 P1"
_cell_length_a       5.27330304804948
_cell_length_b       6.025951699474961
_cell_length_c       7.94006872177124
_cell_angle_alpha    89.55401076815659
_cell_angle_beta     90.34974478338596
_cell_angle_gamma    111.4026869737203

_space_group_name_H-M_alt    "P 1"
_space_group_IT_number       1

loop_
  _space_group_symop_operation_xyz
  'x, y, z'

loop_
  _atom_site_type_symbol
  _atom_site_label
  _atom_site_symmetry_multiplicity
  _atom_site_fract_x
  _atom_site_fract_y
  _atom_site_fract_z
  _atom_site_occupancy
  I   I1        1.0  0.9049739837646483  0.44290113449096674  0.06402957439422606  1.0000
  I   I2        1.0  0.40303775668144226  0.7429175972938538  0.5838176608085631  1.0000
  In  In1       1.0  0.9131523370742797  0.5425406098365784  0.991761565208435  1.0000
  Ni  Ni1       1.0  0.9028244614601134  0.2559964954853058  0.33714756369590754  1.0000
  Ni  Ni2       1.0  0.9141713976860045  0.15343381464481354  0.4094050824642181  1.0000
  Ni  Ni3       1.0  0.9098558425903319  0.17947706580162048  0.2869476974010467  1.0000
  Ni  Ni4       1.0  0.41140586137771606  0.6883279085159302  0.49320396780967707  1.0000
  Ni  Ni5       1.0  0.9137160778045653  0.053938437253236764  0.5534567236900328  1.0000
  Ni  Ni6       1.0  0.41743242740631104  0.10938699543476103  0.37246164679527277  1.0000
  Ni  Ni7       1.0  0.9095730185508727  0.46288967132568354  0.4519163370132446  1.0000
  P   P1        1.0  0.41673582792282104  0.0639062374830246  0.8509797453880309  1.0000
