data_image0
_chemical_formula_structural       GaI3InNNi5
_chemical_formula_sum              "Ga1 I3 In1 N1 Ni5"
_cell_length_a       5.112537388825027
_cell_length_b       6.318612209063484
_cell_length_c       9.218619346618652
_cell_angle_alpha    78.07315221343282
_cell_angle_beta     80.96579284245679
_cell_angle_gamma    76.45400798589895

_space_group_name_H-M_alt    "P 1"
_space_group_IT_number       1

loop_
  _space_group_symop_operation_xyz
  'x, y, z'

loop_
  _atom_site_type_symbol
  _atom_site_label
  _atom_site_symmetry_multiplicity
  _atom_site_fract_x
  _atom_site_fract_y
  _atom_site_fract_z
  _atom_site_occupancy
  Ga  Ga1       1.0  0.07002327591180801  0.018199680373072624  0.9013415575027466  1.0000
  I   I1        1.0  0.9519492983818054  0.7044158577919006  0.31879758834838867  1.0000
  I   I2        1.0  0.45547884702682495  0.914335310459137  0.3167565166950226  1.0000
  I   I3        1.0  0.45350179076194763  0.183173269033432  0.46638724207878113  1.0000
  In  In1       1.0  0.45680442452430725  0.9183709025382996  0.9777149558067322  1.0000
  N   N1        1.0  0.7458125352859497  0.792332112789154  0.5432311296463013  1.0000
  Ni  Ni1       1.0  0.4546338617801666  0.18647758662700653  0.16791579127311707  1.0000
  Ni  Ni2       1.0  0.454440176486969  0.797987163066864  0.023438919335603714  1.0000
  Ni  Ni3       1.0  0.955078661441803  0.6542035341262817  0.8222445845603943  1.0000
  Ni  Ni4       1.0  0.9589874148368835  0.3502534329891205  0.7664499878883362  1.0000
  Ni  Ni5       1.0  0.45701006054878235  0.7483142614364624  0.0006887363269925117  1.0000
