data_image0
_chemical_formula_structural       In3Nd6Ni2
_chemical_formula_sum              "In3 Nd6 Ni2"
_cell_length_a       4.488256634023676
_cell_length_b       5.1515072126692605
_cell_length_c       6.75515604019165
_cell_angle_alpha    93.4996027762133
_cell_angle_beta     102.148742657265
_cell_angle_gamma    90.00079234295418

_space_group_name_H-M_alt    "P 1"
_space_group_IT_number       1

loop_
  _space_group_symop_operation_xyz
  'x, y, z'

loop_
  _atom_site_type_symbol
  _atom_site_label
  _atom_site_symmetry_multiplicity
  _atom_site_fract_x
  _atom_site_fract_y
  _atom_site_fract_z
  _atom_site_occupancy
  In  In1       1.0  0.12310585379600525  0.23141928017139435  0.4747957289218903  1.0000
  In  In2       1.0  0.5851670503616333  0.04568230360746384  0.030929045751690868  1.0000
  In  In3       1.0  0.37877777218818665  0.003463844768702984  0.7282307147979736  1.0000
  Nd  Nd1       1.0  0.8518341779708862  0.8581826686859131  0.6079903841018677  1.0000
  Nd  Nd2       1.0  0.6464549899101257  0.23294086754322052  0.1599878966808319  1.0000
  Nd  Nd3       1.0  0.3839063048362732  0.9746564626693726  0.7104960680007935  1.0000
  Nd  Nd4       1.0  0.8715789318084717  0.8597211837768555  0.1274762600660324  1.0000
  Nd  Nd5       1.0  0.11770697683095932  0.5578985810279846  0.24448186159133914  1.0000
  Nd  Nd6       1.0  0.13260455429553986  0.45207926630973816  0.08966986835002899  1.0000
  Ni  Ni1       1.0  0.874569296836853  0.01313256286084652  0.026608817279338837  1.0000
  Ni  Ni2       1.0  0.6263184547424316  0.41601261496543884  0.4496732950210572  1.0000
