data_image0
_chemical_formula_structural       In3Nd6Ni2
_chemical_formula_sum              "In3 Nd6 Ni2"
_cell_length_a       5.740123145241793
_cell_length_b       6.3370757527846555
_cell_length_c       6.652958393096924
_cell_angle_alpha    104.41616531674879
_cell_angle_beta     107.14116375436663
_cell_angle_gamma    110.35894998331423

_space_group_name_H-M_alt    "P 1"
_space_group_IT_number       1

loop_
  _space_group_symop_operation_xyz
  'x, y, z'

loop_
  _atom_site_type_symbol
  _atom_site_label
  _atom_site_symmetry_multiplicity
  _atom_site_fract_x
  _atom_site_fract_y
  _atom_site_fract_z
  _atom_site_occupancy
  In  In1       1.0  0.1226540580391884  0.2785225808620453  0.6770108938217163  1.0000
  In  In2       1.0  0.7073246240615845  0.22853976488113403  0.0018342927796766244  1.0000
  In  In3       1.0  0.6749687194824219  0.029294935986399654  0.4462720453739166  1.0000
  Nd  Nd1       1.0  0.6796725988388062  0.5808465480804443  0.2129327654838562  1.0000
  Nd  Nd2       1.0  0.3258558213710785  0.6037620306015015  0.9650787711143494  1.0000
  Nd  Nd3       1.0  0.11287587136030199  0.8226576447486877  0.4757159352302551  1.0000
  Nd  Nd4       1.0  0.09407117217779161  0.26397937536239624  0.27843955159187317  1.0000
  Nd  Nd5       1.0  0.20232695341110235  0.46341955661773687  0.7720854878425598  1.0000
  Nd  Nd6       1.0  0.9338091015815736  0.5190989971160889  0.7153815627098083  1.0000
  Ni  Ni1       1.0  0.6063701510429382  0.3627561628818512  0.3684072196483612  1.0000
  Ni  Ni2       1.0  0.6829433441162109  0.5481715202331543  0.3836539387702942  1.0000
