data_image0
_chemical_formula_structural       In4IrNd2Ni4
_chemical_formula_sum              "In4 Ir1 Nd2 Ni4"
_cell_length_a       5.89699483523451
_cell_length_b       5.767836865475142
_cell_length_c       6.86738920211792
_cell_angle_alpha    102.86650410808016
_cell_angle_beta     104.01261275630078
_cell_angle_gamma    114.41597039184241

_space_group_name_H-M_alt    "P 1"
_space_group_IT_number       1

loop_
  _space_group_symop_operation_xyz
  'x, y, z'

loop_
  _atom_site_type_symbol
  _atom_site_label
  _atom_site_symmetry_multiplicity
  _atom_site_fract_x
  _atom_site_fract_y
  _atom_site_fract_z
  _atom_site_occupancy
  In  In1       1.0  0.3110361397266388  0.2961697578430176  0.8664218783378601  1.0000
  In  In2       1.0  0.05105794593691825  0.7739880681037903  0.7234057784080505  1.0000
  In  In3       1.0  0.043172091245651245  0.5247299075126648  0.6925598978996277  1.0000
  In  In4       1.0  0.7821925282478333  0.9802698493003845  0.6044102907180786  1.0000
  Ir  Ir1       1.0  0.7569754123687744  0.34285661578178406  0.055363979190588  1.0000
  Nd  Nd1       1.0  0.7261979579925537  0.7591776251792908  0.10376911610364914  1.0000
  Nd  Nd2       1.0  0.724097728729248  0.504246175289154  0.5818816423416138  1.0000
  Ni  Ni1       1.0  0.3080092668533325  0.7795090079307556  0.3508574366569519  1.0000
  Ni  Ni2       1.0  0.7358473539352417  0.9710379838943481  0.019012145698070526  1.0000
  Ni  Ni3       1.0  0.08164247870445251  0.6491600275039673  0.22010816633701324  1.0000
  Ni  Ni4       1.0  0.3051275312900543  0.40675705671310425  0.6219457983970642  1.0000
