data_image0
_chemical_formula_structural       IIn3NdNi5Zn
_chemical_formula_sum              "I1 In3 Nd1 Ni5 Zn1"
_cell_length_a       5.382571333574676
_cell_length_b       4.889501881767931
_cell_length_c       9.142536163330078
_cell_angle_alpha    89.56872899866015
_cell_angle_beta     89.18240857251347
_cell_angle_gamma    134.69136797402257

_space_group_name_H-M_alt    "P 1"
_space_group_IT_number       1

loop_
  _space_group_symop_operation_xyz
  'x, y, z'

loop_
  _atom_site_type_symbol
  _atom_site_label
  _atom_site_symmetry_multiplicity
  _atom_site_fract_x
  _atom_site_fract_y
  _atom_site_fract_z
  _atom_site_occupancy
  I   I1        1.0  0.581058144569397  0.2644083499908447  0.028974099084734917  1.0000
  In  In1       1.0  0.1949041187763214  0.540009617805481  0.05857411399483681  1.0000
  In  In2       1.0  0.21739612519741058  0.6588696241378784  0.00928361713886261  1.0000
  In  In3       1.0  0.7377423644065857  0.011271621100604534  0.9101144075393677  1.0000
  Nd  Nd1       1.0  0.2655511498451233  0.8205986618995667  0.4434266686439514  1.0000
  Ni  Ni1       1.0  0.19294564425945282  0.9176031351089478  0.4524613618850708  1.0000
  Ni  Ni2       1.0  0.8041418790817261  0.28853124380111694  0.6684605479240417  1.0000
  Ni  Ni3       1.0  0.17470252513885498  0.7149853110313416  0.4007788300514221  1.0000
  Ni  Ni4       1.0  0.2795448899269104  0.30641263723373413  0.28466475009918213  1.0000
  Ni  Ni5       1.0  0.29951807856559753  0.2840770184993744  0.69577556848526  1.0000
  Zn  Zn1       1.0  0.7380809187889099  0.10976394265890121  0.7928104996681213  1.0000
