data_image0
_chemical_formula_structural       PPbTiZr7
_chemical_formula_sum              "P1 Pb1 Ti1 Zr7"
_cell_length_a       5.868479853812326
_cell_length_b       5.938625382870871
_cell_length_c       8.999061584472656
_cell_angle_alpha    87.39146202158865
_cell_angle_beta     75.74235796338327
_cell_angle_gamma    68.52636613078381

_space_group_name_H-M_alt    "P 1"
_space_group_IT_number       1

loop_
  _space_group_symop_operation_xyz
  'x, y, z'

loop_
  _atom_site_type_symbol
  _atom_site_label
  _atom_site_symmetry_multiplicity
  _atom_site_fract_x
  _atom_site_fract_y
  _atom_site_fract_z
  _atom_site_occupancy
  P   P1        1.0  0.5543956160545349  0.17216035723686218  0.08953825384378433  1.0000
  Pb  Pb1       1.0  0.702013373374939  0.7219688892364502  0.2364223450422287  1.0000
  Ti  Ti1       1.0  0.5729827284812927  0.0038951330352574587  0.21595719456672668  1.0000
  Zr  Zr1       1.0  0.566578209400177  0.2825954854488373  0.8688453435897826  1.0000
  Zr  Zr2       1.0  0.06862451136112213  0.30755165219306946  0.4487852156162262  1.0000
  Zr  Zr3       1.0  0.07323377579450607  0.45730218291282654  0.4569520950317383  1.0000
  Zr  Zr4       1.0  0.06673239171504974  0.7856451869010925  0.6018050312995911  1.0000
  Zr  Zr5       1.0  0.5667149424552917  0.12421421706676483  0.2855904698371887  1.0000
  Zr  Zr6       1.0  0.07496151328086853  0.5239332914352417  0.10039369016885757  1.0000
  Zr  Zr7       1.0  0.06984039396047592  0.5917378664016724  0.6248924732208252  1.0000
