data_image0
_chemical_formula_structural       O2PbZnZr6
_chemical_formula_sum              "O2 Pb1 Zn1 Zr6"
_cell_length_a       4.4329061421571065
_cell_length_b       4.3379564300573605
_cell_length_c       6.364464282989502
_cell_angle_alpha    116.61708075207827
_cell_angle_beta     103.68307504390286
_cell_angle_gamma    88.88333210487079

_space_group_name_H-M_alt    "P 1"
_space_group_IT_number       1

loop_
  _space_group_symop_operation_xyz
  'x, y, z'

loop_
  _atom_site_type_symbol
  _atom_site_label
  _atom_site_symmetry_multiplicity
  _atom_site_fract_x
  _atom_site_fract_y
  _atom_site_fract_z
  _atom_site_occupancy
  O   O1        1.0  0.7609369158744812  0.9595986008644103  0.607613742351532  1.0000
  O   O2        1.0  0.776120126247406  0.6179769039154053  0.35575243830680847  1.0000
  Pb  Pb1       1.0  0.27219152450561523  0.44102546572685236  0.06363405287265778  1.0000
  Zn  Zn1       1.0  0.3633864223957062  0.8956031799316405  0.09658945351839066  1.0000
  Zr  Zr1       1.0  0.3759945333003998  0.4596466720104217  0.08717420697212219  1.0000
  Zr  Zr2       1.0  0.06278727948665619  0.41295710206031794  0.910541296005249  1.0000
  Zr  Zr3       1.0  0.8771836161613464  0.8397188782691954  0.7059818506240845  1.0000
  Zr  Zr4       1.0  0.9132833480834961  0.27305421233177185  0.08527549356222153  1.0000
  Zr  Zr5       1.0  0.8803963661193848  0.8681969642639159  0.6519652009010315  1.0000
  Zr  Zr6       1.0  0.40926170349121094  0.49730208516120905  0.1990663707256317  1.0000
