data_image0
_chemical_formula_structural       OZr9
_chemical_formula_sum              "O1 Zr9"
_cell_length_a       5.433680767870755
_cell_length_b       7.346351087982612
_cell_length_c       8.395613670349121
_cell_angle_alpha    122.73837505548342
_cell_angle_beta     90.81771120160897
_cell_angle_gamma    89.25093224270292

_space_group_name_H-M_alt    "P 1"
_space_group_IT_number       1

loop_
  _space_group_symop_operation_xyz
  'x, y, z'

loop_
  _atom_site_type_symbol
  _atom_site_label
  _atom_site_symmetry_multiplicity
  _atom_site_fract_x
  _atom_site_fract_y
  _atom_site_fract_z
  _atom_site_occupancy
  O   O1        1.0  0.4418172240257263  0.03098094277083874  0.11778322607278824  1.0000
  Zr  Zr1       1.0  0.5957053899765015  0.2692582905292511  0.47473660111427307  1.0000
  Zr  Zr2       1.0  0.09329751133918762  0.8219229578971864  0.6053571105003357  1.0000
  Zr  Zr3       1.0  0.5991520881652832  0.5561531782150269  0.9724439978599548  1.0000
  Zr  Zr4       1.0  0.5950536727905273  0.7115166783332825  0.7937583327293396  1.0000
  Zr  Zr5       1.0  0.0942181870341301  0.7719424962997437  0.5101613998413086  1.0000
  Zr  Zr6       1.0  0.5936545729637146  0.7484179735183716  0.5537574887275696  1.0000
  Zr  Zr7       1.0  0.0943358987569809  0.7946110367774963  0.33951783180236816  1.0000
  Zr  Zr8       1.0  0.09353382140398026  0.2255625426769257  0.5449509620666504  1.0000
  Zr  Zr9       1.0  0.09410128742456436  0.8972459435462953  0.5061466097831726  1.0000
