data_image0
_chemical_formula_structural       OZr9
_chemical_formula_sum              "O1 Zr9"
_cell_length_a       5.170410248971105
_cell_length_b       5.366309419884135
_cell_length_c       6.401650905609131
_cell_angle_alpha    106.82757302055658
_cell_angle_beta     90.73459739703841
_cell_angle_gamma    84.47262905469518

_space_group_name_H-M_alt    "P 1"
_space_group_IT_number       1

loop_
  _space_group_symop_operation_xyz
  'x, y, z'

loop_
  _atom_site_type_symbol
  _atom_site_label
  _atom_site_symmetry_multiplicity
  _atom_site_fract_x
  _atom_site_fract_y
  _atom_site_fract_z
  _atom_site_occupancy
  O   O1        1.0  0.2880868911743164  0.17442026734352112  0.10343836992979051  1.0000
  Zr  Zr1       1.0  0.7907480597496033  0.3589450418949127  0.08001122623682021  1.0000
  Zr  Zr2       1.0  0.29542121291160583  0.2083788514137268  0.009191052988171577  1.0000
  Zr  Zr3       1.0  0.7968536019325256  0.27031567692756653  0.24659964442253116  1.0000
  Zr  Zr4       1.0  0.7985234260559082  0.941733181476593  0.740604043006897  1.0000
  Zr  Zr5       1.0  0.29406869411468506  0.6027552485466003  0.9811906814575196  1.0000
  Zr  Zr6       1.0  0.8040915727615356  0.6810212135314941  0.4264925122261048  1.0000
  Zr  Zr7       1.0  0.2979540526866913  0.006946436129510403  0.2544240355491638  1.0000
  Zr  Zr8       1.0  0.2952859103679657  0.09557338804006577  0.16988696157932281  1.0000
  Zr  Zr9       1.0  0.7982274889945984  0.4342854619026184  0.7615209817886353  1.0000
