data_image0
_chemical_formula_structural       Pb2ZnZr7
_chemical_formula_sum              "Pb2 Zn1 Zr7"
_cell_length_a       5.437199868300305
_cell_length_b       5.745279149793422
_cell_length_c       7.827789783477783
_cell_angle_alpha    125.18249005674845
_cell_angle_beta     88.83511397459831
_cell_angle_gamma    85.5372319285425

_space_group_name_H-M_alt    "P 1"
_space_group_IT_number       1

loop_
  _space_group_symop_operation_xyz
  'x, y, z'

loop_
  _atom_site_type_symbol
  _atom_site_label
  _atom_site_symmetry_multiplicity
  _atom_site_fract_x
  _atom_site_fract_y
  _atom_site_fract_z
  _atom_site_occupancy
  Pb  Pb1       1.0  0.8280972838401794  0.8408807516098022  0.5850235819816589  1.0000
  Pb  Pb2       1.0  0.3314978778362274  0.001952999853529036  0.2725287973880768  1.0000
  Zn  Zn1       1.0  0.8284800052642822  0.830477774143219  0.050058659166097585  1.0000
  Zr  Zr1       1.0  0.3341336250305176  0.13215170800685883  0.7018776535987854  1.0000
  Zr  Zr2       1.0  0.33164384961128235  0.9590493440628052  0.23873651027679438  1.0000
  Zr  Zr3       1.0  0.33296477794647217  0.29038533568382263  0.707231879234314  1.0000
  Zr  Zr4       1.0  0.33086439967155457  0.029015980660915375  0.9254698157310485  1.0000
  Zr  Zr5       1.0  0.8317551016807556  0.9933286905288696  0.3854548335075378  1.0000
  Zr  Zr6       1.0  0.8298381567001343  0.4266383647918701  0.01107765641063449  1.0000
  Zr  Zr7       1.0  0.3269614577293396  0.9129218459129333  0.9107464551925659  1.0000
