data_image0
_chemical_formula_structural       OPbZr8
_chemical_formula_sum              "O1 Pb1 Zr8"
_cell_length_a       5.448129653931297
_cell_length_b       6.5798394665911815
_cell_length_c       7.349746227264404
_cell_angle_alpha    103.68383086702778
_cell_angle_beta     90.4082243226992
_cell_angle_gamma    87.29192107059846

_space_group_name_H-M_alt    "P 1"
_space_group_IT_number       1

loop_
  _space_group_symop_operation_xyz
  'x, y, z'

loop_
  _atom_site_type_symbol
  _atom_site_label
  _atom_site_symmetry_multiplicity
  _atom_site_fract_x
  _atom_site_fract_y
  _atom_site_fract_z
  _atom_site_occupancy
  O   O1        1.0  0.6008116602897644  0.6240118741989136  0.872643232345581  1.0000
  Pb  Pb1       1.0  0.6035629510879517  0.1434715837240219  0.4129224121570587  1.0000
  Zr  Zr1       1.0  0.11480031907558441  0.5449340343475342  0.0760713666677475  1.0000
  Zr  Zr2       1.0  0.11112071573734283  0.5971214175224304  0.2316516935825348  1.0000
  Zr  Zr3       1.0  0.607458770275116  0.3155580759048462  0.17101792991161346  1.0000
  Zr  Zr4       1.0  0.8652732968330383  0.24363385140895844  0.7033510804176331  1.0000
  Zr  Zr5       1.0  0.6124668717384338  0.7082052826881409  0.13898105919361115  1.0000
  Zr  Zr6       1.0  0.11704784631729126  0.025203756988048553  0.2509373426437378  1.0000
  Zr  Zr7       1.0  0.6041725873947144  0.754310667514801  0.034692201763391495  1.0000
  Zr  Zr8       1.0  0.10793548822402954  0.637217104434967  0.7806543111801147  1.0000
