data_image0
_chemical_formula_structural       Li2O2SThTl2Zn
_chemical_formula_sum              "Li2 O2 S1 Th1 Tl2 Zn1"
_cell_length_a       6.006205993468009
_cell_length_b       5.842392585533405
_cell_length_c       5.84125280380249
_cell_angle_alpha    109.31247932986503
_cell_angle_beta     109.47638889839897
_cell_angle_gamma    113.2232614663312

_space_group_name_H-M_alt    "P 1"
_space_group_IT_number       1

loop_
  _space_group_symop_operation_xyz
  'x, y, z'

loop_
  _atom_site_type_symbol
  _atom_site_label
  _atom_site_symmetry_multiplicity
  _atom_site_fract_x
  _atom_site_fract_y
  _atom_site_fract_z
  _atom_site_occupancy
  Li  Li1       1.0  0.5243484377861023  0.4317547678947449  0.23133379220962524  1.0000
  Li  Li2       1.0  0.4126165807247162  0.02488519437611103  0.1364180892705917  1.0000
  O   O1        1.0  0.7793652415275574  0.1957475244998932  0.7757984399795532  1.0000
  O   O2        1.0  0.5970740914344788  0.7669010758399963  0.12469231337308884  1.0000
  S   S1        1.0  0.7546365857124329  0.3160620927810669  0.3386411666870117  1.0000
  Th  Th1       1.0  0.015479295514523983  0.4448266625404358  0.642440140247345  1.0000
  Tl  Tl1       1.0  0.11136367917060852  0.6963667869567871  0.48233386874198914  1.0000
  Tl  Tl2       1.0  0.03178313747048378  0.13178719580173492  0.6401668787002563  1.0000
  Zn  Zn1       1.0  0.01371458824723959  0.12505799531936646  0.8184743523597717  1.0000
