data_image0
_chemical_formula_structural       Li2O2S2Tl3
_chemical_formula_sum              "Li2 O2 S2 Tl3"
_cell_length_a       5.4976708063135185
_cell_length_b       6.815694596742648
_cell_length_c       8.159402847290039
_cell_angle_alpha    110.86477836706392
_cell_angle_beta     98.83692262406984
_cell_angle_gamma    106.5050842191782

_space_group_name_H-M_alt    "P 1"
_space_group_IT_number       1

loop_
  _space_group_symop_operation_xyz
  'x, y, z'

loop_
  _atom_site_type_symbol
  _atom_site_label
  _atom_site_symmetry_multiplicity
  _atom_site_fract_x
  _atom_site_fract_y
  _atom_site_fract_z
  _atom_site_occupancy
  Li  Li1       1.0  0.1724511831998825  0.29770535230636597  0.6018666625022888  1.0000
  Li  Li2       1.0  0.7263859510421753  0.6881607174873352  0.7678052186965942  1.0000
  O   O1        1.0  0.1232796385884285  0.28076866269111633  0.7592229843139648  1.0000
  O   O2        1.0  0.1891583353281021  0.3656953275203705  0.8779558539390564  1.0000
  S   S1        1.0  0.19025126099586487  0.6746887564659119  0.5759316682815552  1.0000
  S   S2        1.0  0.7017895579338074  0.743834912776947  0.5971429347991943  1.0000
  Tl  Tl1       1.0  0.24507851898670197  0.17308056354522705  0.057800307869911194  1.0000
  Tl  Tl2       1.0  0.7158527970314026  0.15945947170257568  0.5936510562896729  1.0000
  Tl  Tl3       1.0  0.20262198150157928  0.1275920420885086  0.8676477074623108  1.0000
