data_image0
_chemical_formula_structural       OTl8
_chemical_formula_sum              "O1 Tl8"
_cell_length_a       5.630098523234665
_cell_length_b       5.8797715449700005
_cell_length_c       5.420823097229004
_cell_angle_alpha    110.47261530291217
_cell_angle_beta     108.73314901882705
_cell_angle_gamma    106.22698476997067

_space_group_name_H-M_alt    "P 1"
_space_group_IT_number       1

loop_
  _space_group_symop_operation_xyz
  'x, y, z'

loop_
  _atom_site_type_symbol
  _atom_site_label
  _atom_site_symmetry_multiplicity
  _atom_site_fract_x
  _atom_site_fract_y
  _atom_site_fract_z
  _atom_site_occupancy
  O   O1        1.0  0.2906413674354553  0.33403298258781433  0.3421737849712372  1.0000
  Tl  Tl1       1.0  0.8114380836486816  0.9980467557907104  0.34743204712867737  1.0000
  Tl  Tl2       1.0  0.9516732692718506  0.24790595471858978  0.41136813163757324  1.0000
  Tl  Tl3       1.0  0.30122295022010803  0.9833512902259827  0.8042799234390259  1.0000
  Tl  Tl4       1.0  0.9849687218666077  0.15385831892490387  0.24390251934528354  1.0000
  Tl  Tl5       1.0  0.8182134032249451  0.6574798822402954  0.8002405762672424  1.0000
  Tl  Tl6       1.0  0.8064150214195251  0.722051739692688  0.197510078549385  1.0000
  Tl  Tl7       1.0  0.007749722804874182  0.02016371488571167  0.25679564476013184  1.0000
  Tl  Tl8       1.0  0.41610583662986755  0.8361058235168457  0.587489128112793  1.0000
