data_image0
_chemical_formula_structural       InLi2O3STl2
_chemical_formula_sum              "In1 Li2 O3 S1 Tl2"
_cell_length_a       5.4287935341118985
_cell_length_b       5.5793191094111965
_cell_length_c       5.893041133880615
_cell_angle_alpha    117.60952509008177
_cell_angle_beta     104.14337717510742
_cell_angle_gamma    92.54203737442081

_space_group_name_H-M_alt    "P 1"
_space_group_IT_number       1

loop_
  _space_group_symop_operation_xyz
  'x, y, z'

loop_
  _atom_site_type_symbol
  _atom_site_label
  _atom_site_symmetry_multiplicity
  _atom_site_fract_x
  _atom_site_fract_y
  _atom_site_fract_z
  _atom_site_occupancy
  In  In1       1.0  0.585685133934021  0.8959123492240906  0.04895787313580513  1.0000
  Li  Li1       1.0  0.09277483820915222  0.6287899017333984  0.33845025300979614  1.0000
  Li  Li2       1.0  0.12232420593500137  0.23697499930858612  0.1012435108423233  1.0000
  O   O1        1.0  0.09046418964862823  0.6864071488380432  0.26925143599510193  1.0000
  O   O2        1.0  0.59431391954422  0.11650671809911728  0.8603827357292175  1.0000
  O   O3        1.0  0.6100404262542725  0.1665172278881073  0.15212249755859375  1.0000
  S   S1        1.0  0.5887852907180786  0.8315230011940002  0.360355943441391  1.0000
  Tl  Tl1       1.0  0.5930819511413574  0.2913212180137634  0.15063808858394623  1.0000
  Tl  Tl2       1.0  0.09720772504806519  0.06575813889503479  0.46195700764656067  1.0000
