data_image0
_chemical_formula_structural       Tl9
_chemical_formula_sum              "Tl9"
_cell_length_a       5.699943643839112
_cell_length_b       5.844310364411266
_cell_length_c       4.480928421020508
_cell_angle_alpha    111.84569880219564
_cell_angle_beta     127.03497343543818
_cell_angle_gamma    107.53004272959441

_space_group_name_H-M_alt    "P 1"
_space_group_IT_number       1

loop_
  _space_group_symop_operation_xyz
  'x, y, z'

loop_
  _atom_site_type_symbol
  _atom_site_label
  _atom_site_symmetry_multiplicity
  _atom_site_fract_x
  _atom_site_fract_y
  _atom_site_fract_z
  _atom_site_occupancy
  Tl  Tl1       1.0  0.8071020245552063  0.1208549290895462  0.016975888982415203  1.0000
  Tl  Tl2       1.0  0.012498334050178528  0.7224365472793579  0.896313190460205  1.0000
  Tl  Tl3       1.0  0.06554920971393582  0.22181290388107297  0.027316007763147323  1.0000
  Tl  Tl4       1.0  0.34879767894744873  0.8545940518379211  0.7332485914230346  1.0000
  Tl  Tl5       1.0  0.08670533448457718  0.5905185341835022  0.5234956741333007  1.0000
  Tl  Tl6       1.0  0.2791461348533629  0.5045906305313109  0.5905776023864745  1.0000
  Tl  Tl7       1.0  0.5955718159675598  0.051121637225151055  0.2579290568828583  1.0000
  Tl  Tl8       1.0  0.33600071072578436  0.15624096989631658  0.6481851339340211  1.0000
  Tl  Tl9       1.0  0.07774166017770767  0.29037943482398987  0.11542002111673351  1.0000
