data_image0
_chemical_formula_structural       HI2OTb6
_chemical_formula_sum              "H1 I2 O1 Tb6"
_cell_length_a       5.481596171404403
_cell_length_b       7.083547712838932
_cell_length_c       8.933174133300781
_cell_angle_alpha    99.73422361155134
_cell_angle_beta     90.02801372862479
_cell_angle_gamma    97.62786807946013

_space_group_name_H-M_alt    "P 1"
_space_group_IT_number       1

loop_
  _space_group_symop_operation_xyz
  'x, y, z'

loop_
  _atom_site_type_symbol
  _atom_site_label
  _atom_site_symmetry_multiplicity
  _atom_site_fract_x
  _atom_site_fract_y
  _atom_site_fract_z
  _atom_site_occupancy
  H   H1        1.0  0.42354607582092285  0.8092993497848512  0.7444773316383362  1.0000
  I   I1        1.0  0.9243599772453308  0.974016845226288  0.06388941407203674  1.0000
  I   I2        1.0  0.9234607219696045  0.6369554996490479  0.6344326734542847  1.0000
  O   O1        1.0  0.46799424290657043  0.42641845345497137  0.8303186893463135  1.0000
  Tb  Tb1       1.0  0.9194984436035156  0.6520794034004211  0.4746108949184418  1.0000
  Tb  Tb2       1.0  0.42683929204940796  0.00952425878494978  0.6703595519065857  1.0000
  Tb  Tb3       1.0  0.447231650352478  0.49356371164321905  0.12438559532165527  1.0000
  Tb  Tb4       1.0  0.9206881523132324  0.8356240391731263  0.37602004408836365  1.0000
  Tb  Tb5       1.0  0.4327032268047333  0.05028238147497178  0.7270408272743225  1.0000
  Tb  Tb6       1.0  0.9349282383918762  0.6525800228118896  0.5709456205368042  1.0000
