data_image0
_chemical_formula_structural       O2Tb8
_chemical_formula_sum              "O2 Tb8"
_cell_length_a       5.969138281367549
_cell_length_b       5.982991965830521
_cell_length_c       9.77235221862793
_cell_angle_alpha    88.04825570017893
_cell_angle_beta     84.8969842748381
_cell_angle_gamma    73.03118566681152

_space_group_name_H-M_alt    "P 1"
_space_group_IT_number       1

loop_
  _space_group_symop_operation_xyz
  'x, y, z'

loop_
  _atom_site_type_symbol
  _atom_site_label
  _atom_site_symmetry_multiplicity
  _atom_site_fract_x
  _atom_site_fract_y
  _atom_site_fract_z
  _atom_site_occupancy
  O   O1        1.0  0.41211688518524164  0.7467577457427979  0.13943611085414886  1.0000
  O   O2        1.0  0.7816084027290344  0.4007103145122528  0.32773640751838684  1.0000
  Tb  Tb1       1.0  0.20347501337528226  0.09285266697406769  0.9148258566856384  1.0000
  Tb  Tb2       1.0  0.6870133280754089  0.9475486278533936  0.4964350461959839  1.0000
  Tb  Tb3       1.0  0.2510436773300171  0.3838269114494324  0.2810531258583069  1.0000
  Tb  Tb4       1.0  0.8069905042648314  0.6184800267219543  0.35424795746803284  1.0000
  Tb  Tb5       1.0  0.6151661276817322  0.7903093099594116  0.8683000206947327  1.0000
  Tb  Tb6       1.0  0.24889433383941648  0.7258276343345642  0.8929433226585388  1.0000
  Tb  Tb7       1.0  0.04563722759485245  0.8692624568939209  0.17751532793045044  1.0000
  Tb  Tb8       1.0  0.05213897302746772  0.8814133405685425  0.7310423851013184  1.0000
