data_image0
_chemical_formula_structural       GaIOTb7
_chemical_formula_sum              "Ga1 I1 O1 Tb7"
_cell_length_a       6.772916723166811
_cell_length_b       6.908827886025467
_cell_length_c       9.80866527557373
_cell_angle_alpha    85.76435086942116
_cell_angle_beta     73.84630477497274
_cell_angle_gamma    66.00054557803217

_space_group_name_H-M_alt    "P 1"
_space_group_IT_number       1

loop_
  _space_group_symop_operation_xyz
  'x, y, z'

loop_
  _atom_site_type_symbol
  _atom_site_label
  _atom_site_symmetry_multiplicity
  _atom_site_fract_x
  _atom_site_fract_y
  _atom_site_fract_z
  _atom_site_occupancy
  Ga  Ga1       1.0  0.08105161786079407  0.8065847754478455  0.8565733432769775  1.0000
  I   I1        1.0  0.40630781650543213  0.5259691476821899  0.3631250560283661  1.0000
  O   O1        1.0  0.34084245562553406  0.278381884098053  0.3471366763114929  1.0000
  Tb  Tb1       1.0  0.5881473422050476  0.7767540216445923  0.8657612204551697  1.0000
  Tb  Tb2       1.0  0.492831289768219  0.05945565551519394  0.6458560228347779  1.0000
  Tb  Tb3       1.0  0.38504818081855774  0.4941486716270447  0.37641462683677673  1.0000
  Tb  Tb4       1.0  0.9973018765449524  0.24830231070518494  0.17308343946933746  1.0000
  Tb  Tb5       1.0  0.9740862250328064  0.17582310736179352  0.4755001962184906  1.0000
  Tb  Tb6       1.0  0.09458888322114944  0.9198551177978516  0.7808552384376525  1.0000
  Tb  Tb7       1.0  0.6044282913208008  0.4818303883075714  0.4324500262737274  1.0000
