data_image0
_chemical_formula_structural       Cr5OTb4
_chemical_formula_sum              "Cr5 O1 Tb4"
_cell_length_a       5.581090436215266
_cell_length_b       6.199679937839256
_cell_length_c       7.139266490936279
_cell_angle_alpha    85.81084397319832
_cell_angle_beta     73.55190951859991
_cell_angle_gamma    70.77080709623075

_space_group_name_H-M_alt    "P 1"
_space_group_IT_number       1

loop_
  _space_group_symop_operation_xyz
  'x, y, z'

loop_
  _atom_site_type_symbol
  _atom_site_label
  _atom_site_symmetry_multiplicity
  _atom_site_fract_x
  _atom_site_fract_y
  _atom_site_fract_z
  _atom_site_occupancy
  Cr  Cr1       1.0  0.8657829165458679  0.4257586598396301  0.8838619589805602  1.0000
  Cr  Cr2       1.0  0.3075374960899353  0.392971009016037  0.7291241884231567  1.0000
  Cr  Cr3       1.0  0.3653230667114258  0.10602127760648727  0.8252731561660767  1.0000
  Cr  Cr4       1.0  0.37685808539390564  0.14390920102596283  0.185787171125412  1.0000
  Cr  Cr5       1.0  0.36650538444519043  0.3389900326728821  0.3971347212791443  1.0000
  O   O1        1.0  0.858282744884491  0.7927790284156799  0.07088293880224228  1.0000
  Tb  Tb1       1.0  0.369549959897995  0.9600323438644409  0.64570152759552  1.0000
  Tb  Tb2       1.0  0.8734602928161621  0.07809429615736008  0.7812686562538147  1.0000
  Tb  Tb3       1.0  0.8691110610961914  0.864224374294281  0.8649938106536865  1.0000
  Tb  Tb4       1.0  0.8594165444374084  0.8039938807487488  0.5375010967254639  1.0000
