data_image0
_chemical_formula_structural       Cr4OTb5
_chemical_formula_sum              "Cr4 O1 Tb5"
_cell_length_a       5.205260301098318
_cell_length_b       5.926962960516661
_cell_length_c       5.778840065002441
_cell_angle_alpha    89.40087643849078
_cell_angle_beta     89.62560703572484
_cell_angle_gamma    92.16561867166081

_space_group_name_H-M_alt    "P 1"
_space_group_IT_number       1

loop_
  _space_group_symop_operation_xyz
  'x, y, z'

loop_
  _atom_site_type_symbol
  _atom_site_label
  _atom_site_symmetry_multiplicity
  _atom_site_fract_x
  _atom_site_fract_y
  _atom_site_fract_z
  _atom_site_occupancy
  Cr  Cr1       1.0  0.08088777959346771  0.9135307669639587  0.6204327940940857  1.0000
  Cr  Cr2       1.0  0.567564845085144  0.17192086577415466  0.756476640701294  1.0000
  Cr  Cr3       1.0  0.0667760968208313  0.19003750383853912  0.8283038139343262  1.0000
  Cr  Cr4       1.0  0.2484861463308334  0.9871578216552734  0.971269965171814  1.0000
  O   O1        1.0  0.6322394013404846  0.9538671970367432  0.5533035397529602  1.0000
  Tb  Tb1       1.0  0.5628026127815247  0.19645261764526367  0.0946742370724678  1.0000
  Tb  Tb2       1.0  0.7431738376617432  0.996077835559845  0.5527697205543518  1.0000
  Tb  Tb3       1.0  0.7429273128509521  0.4751897156238556  0.7081709504127502  1.0000
  Tb  Tb4       1.0  0.7338201403617859  0.6873514652252197  0.6603139638900757  1.0000
  Tb  Tb5       1.0  0.07291960716247559  0.5374508500099182  0.5606523156166077  1.0000
