data_image0
_chemical_formula_structural       O3Tb7
_chemical_formula_sum              "O3 Tb7"
_cell_length_a       5.204296169427477
_cell_length_b       5.002495903388212
_cell_length_c       11.839439392089844
_cell_angle_alpha    91.19593865597571
_cell_angle_beta     84.87798937963409
_cell_angle_gamma    64.44830421270349

_space_group_name_H-M_alt    "P 1"
_space_group_IT_number       1

loop_
  _space_group_symop_operation_xyz
  'x, y, z'

loop_
  _atom_site_type_symbol
  _atom_site_label
  _atom_site_symmetry_multiplicity
  _atom_site_fract_x
  _atom_site_fract_y
  _atom_site_fract_z
  _atom_site_occupancy
  O   O1        1.0  0.8023062348365784  0.7459621429443359  0.3955256938934326  1.0000
  O   O2        1.0  0.7826157808303833  0.7198342084884644  0.9907935261726379  1.0000
  O   O3        1.0  0.29606547951698303  0.08680537343025208  0.9722169637680054  1.0000
  Tb  Tb1       1.0  0.5326659083366394  0.9949774742126465  0.8558127880096436  1.0000
  Tb  Tb2       1.0  0.539347231388092  0.7596745491027832  0.05349696800112724  1.0000
  Tb  Tb3       1.0  0.3081479072570801  0.6594344973564148  0.5236018896102905  1.0000
  Tb  Tb4       1.0  0.5352588295936584  0.6464855670928955  0.3557026982307434  1.0000
  Tb  Tb5       1.0  0.03215048834681511  0.693600594997406  0.1411394476890564  1.0000
  Tb  Tb6       1.0  0.0321660190820694  0.6402370929718018  0.2682170271873474  1.0000
  Tb  Tb7       1.0  0.030115526169538498  0.7044375538825989  0.8754985332489014  1.0000
