data_image0
_chemical_formula_structural       CdFGaGeIPdRuSbZn
_chemical_formula_sum              "Cd1 F1 Ga1 Ge1 I1 Pd1 Ru1 Sb1 Zn1"
_cell_length_a       4.923280627817267
_cell_length_b       6.412234483308291
_cell_length_c       7.045090675354004
_cell_angle_alpha    89.69724690749753
_cell_angle_beta     89.93918967995018
_cell_angle_gamma    106.4651893472851

_space_group_name_H-M_alt    "P 1"
_space_group_IT_number       1

loop_
  _space_group_symop_operation_xyz
  'x, y, z'

loop_
  _atom_site_type_symbol
  _atom_site_label
  _atom_site_symmetry_multiplicity
  _atom_site_fract_x
  _atom_site_fract_y
  _atom_site_fract_z
  _atom_site_occupancy
  Cd  Cd1       1.0  0.44294407963752747  0.3926505148410797  0.02333515882492065  1.0000
  F   F1        1.0  0.43966278433799744  0.1788579374551773  0.8671137094497681  1.0000
  Ga  Ga1       1.0  0.9530633091926575  0.4338816702365875  0.9294090867042542  1.0000
  Ge  Ge1       1.0  0.6577466726303101  0.1052522286772728  0.49603933095932007  1.0000
  I   I1        1.0  0.9149463176727295  0.2663906216621399  0.8841738104820251  1.0000
  Pd  Pd1       1.0  0.417987585067749  0.41182559728622437  0.9120675325393677  1.0000
  Ru  Ru1       1.0  0.9460636973381042  0.8315714001655579  0.10111583769321442  1.0000
  Sb  Sb1       1.0  0.41562139987945557  0.8943033218383789  0.9015571475028992  1.0000
  Zn  Zn1       1.0  0.9128276705741882  0.7283218502998352  0.8295400738716125  1.0000
