data_image0
_chemical_formula_structural       AsGa2GeMoReTeTiZn
_chemical_formula_sum              "As1 Ga2 Ge1 Mo1 Re1 Te1 Ti1 Zn1"
_cell_length_a       5.425020066271816
_cell_length_b       6.206942848327152
_cell_length_c       7.649972438812256
_cell_angle_alpha    90.76517115380545
_cell_angle_beta     89.79239860234514
_cell_angle_gamma    112.41913664491292

_space_group_name_H-M_alt    "P 1"
_space_group_IT_number       1

loop_
  _space_group_symop_operation_xyz
  'x, y, z'

loop_
  _atom_site_type_symbol
  _atom_site_label
  _atom_site_symmetry_multiplicity
  _atom_site_fract_x
  _atom_site_fract_y
  _atom_site_fract_z
  _atom_site_occupancy
  As  As1       1.0  0.5385693907737732  0.8106952905654907  0.2460581809282303  1.0000
  Ga  Ga1       1.0  0.024050081148743713  0.9977331757545472  0.9123759269714357  1.0000
  Ga  Ga2       1.0  0.523064374923706  0.40976488590240484  0.35881748795509344  1.0000
  Ge  Ge1       1.0  0.025965699926018715  0.6653450131416321  0.4001613557338715  1.0000
  Mo  Mo1       1.0  0.028955921530723572  0.7037964463233948  0.12392146140336992  1.0000
  Re  Re1       1.0  0.5310236215591432  0.9748060107231141  0.933299481868744  1.0000
  Te  Te1       1.0  0.5344171524047852  0.19763004779815674  0.22451144456863406  1.0000
  Ti  Ti1       1.0  0.033654116094112396  0.7455457448959351  0.9491077065467836  1.0000
  Zn  Zn1       1.0  0.025396930053830147  0.586624264717102  0.3966055512428284  1.0000
