data_image0
_chemical_formula_structural       Cd4RuTe4
_chemical_formula_sum              "Cd4 Ru1 Te4"
_cell_length_a       4.999254331473188
_cell_length_b       6.2837035797398
_cell_length_c       7.364898204803467
_cell_angle_alpha    112.77553828160777
_cell_angle_beta     89.70792755793937
_cell_angle_gamma    90.57300949710273

_space_group_name_H-M_alt    "P 1"
_space_group_IT_number       1

loop_
  _space_group_symop_operation_xyz
  'x, y, z'

loop_
  _atom_site_type_symbol
  _atom_site_label
  _atom_site_symmetry_multiplicity
  _atom_site_fract_x
  _atom_site_fract_y
  _atom_site_fract_z
  _atom_site_occupancy
  Cd  Cd1       1.0  0.6672405004501343  0.5543387532234192  0.3652062714099884  1.0000
  Cd  Cd2       1.0  0.6776845455169678  0.7951850295066833  0.14107914268970492  1.0000
  Cd  Cd3       1.0  0.1640806496143341  0.7557699084281921  0.9490861296653746  1.0000
  Cd  Cd4       1.0  0.1754416972398758  0.3619791567325592  0.6698563694953918  1.0000
  Ru  Ru1       1.0  0.646670937538147  0.8372698426246643  0.4867721796035767  1.0000
  Te  Te1       1.0  0.164651557803154  0.08161653578281403  0.41027528047561646  1.0000
  Te  Te2       1.0  0.6568957567214966  0.6476598381996155  0.8662251830101013  1.0000
  Te  Te3       1.0  0.16990727186203003  0.05362410843372345  0.6257350444793701  1.0000
  Te  Te4       1.0  0.1697327047586441  0.06325163692235947  0.5866026282310486  1.0000
