data_image0
_chemical_formula_structural       GaGe2ILuRuTiZn2
_chemical_formula_sum              "Ga1 Ge2 I1 Lu1 Ru1 Ti1 Zn2"
_cell_length_a       5.15169502526792
_cell_length_b       6.4050554144651395
_cell_length_c       7.0785675048828125
_cell_angle_alpha    118.19698970108695
_cell_angle_beta     89.7565513819951
_cell_angle_gamma    89.7037163126648

_space_group_name_H-M_alt    "P 1"
_space_group_IT_number       1

loop_
  _space_group_symop_operation_xyz
  'x, y, z'

loop_
  _atom_site_type_symbol
  _atom_site_label
  _atom_site_symmetry_multiplicity
  _atom_site_fract_x
  _atom_site_fract_y
  _atom_site_fract_z
  _atom_site_occupancy
  Ga  Ga1       1.0  0.08311396092176437  0.33241206407546997  0.7820694446563721  1.0000
  Ge  Ge1       1.0  0.5837656259536743  0.879051685333252  0.9144337177276611  1.0000
  Ge  Ge2       1.0  0.570949137210846  0.11305712908506393  0.540507435798645  1.0000
  I   I1        1.0  0.5813984870910645  0.2589986026287079  0.361424058675766  1.0000
  Lu  Lu1       1.0  0.08705078065395355  0.9406918883323669  0.33572837710380554  1.0000
  Ru  Ru1       1.0  0.8363509774208069  0.2632474899291992  0.7885646820068359  1.0000
  Ti  Ti1       1.0  0.5853521823883057  0.18086250126361847  0.7511399984359741  1.0000
  Zn  Zn1       1.0  0.0866609737277031  0.6461231708526611  0.4158172011375427  1.0000
  Zn  Zn2       1.0  0.08329660445451736  0.31579717993736267  0.943373441696167  1.0000
