data_image0
_chemical_formula_structural       Li2Lu3O6S2Si
_chemical_formula_sum              "Li2 Lu3 O6 S2 Si1"
_cell_length_a       5.185783874356713
_cell_length_b       6.660951777628752
_cell_length_c       7.555731296539307
_cell_angle_alpha    111.87399837411019
_cell_angle_beta     109.84656133513022
_cell_angle_gamma    89.83943938506867

_space_group_name_H-M_alt    "P 1"
_space_group_IT_number       1

loop_
  _space_group_symop_operation_xyz
  'x, y, z'

loop_
  _atom_site_type_symbol
  _atom_site_label
  _atom_site_symmetry_multiplicity
  _atom_site_fract_x
  _atom_site_fract_y
  _atom_site_fract_z
  _atom_site_occupancy
  Li  Li1       1.0  0.8891514539718628  0.7771824598312378  0.9494171142578126  1.0000
  Li  Li2       1.0  0.9873462319374084  0.2684590220451355  0.22120690345764163  1.0000
  Lu  Lu1       1.0  0.2565597891807556  0.05024602264165878  0.6354946494102479  1.0000
  Lu  Lu2       1.0  0.18577277660369873  0.4816686511039734  0.41487920284271246  1.0000
  Lu  Lu3       1.0  0.8778499364852905  0.15792205929756165  0.9062634110450746  1.0000
  O   O1        1.0  0.5901747345924377  0.33504942059516907  0.26773372292518616  1.0000
  O   O2        1.0  0.00978751853108406  0.6538911461830139  0.44923377037048345  1.0000
  O   O3        1.0  0.5792325735092163  0.9856328964233398  0.6344577670097352  1.0000
  O   O4        1.0  0.8304075598716736  0.009511500597000122  0.05778817087411881  1.0000
  O   O5        1.0  0.004923283122479916  0.10529611259698868  0.6316392421722413  1.0000
  O   O6        1.0  0.5857815146446228  0.2948932945728302  0.7915971875190736  1.0000
  S   S1        1.0  0.6551406979560852  0.39070525765419006  0.3893268704414368  1.0000
  S   S2        1.0  0.3853861093521118  0.16409017145633698  0.86645644903183  1.0000
  Si  Si1       1.0  0.11034723371267319  0.7209993600845337  0.7797603607177735  1.0000
