data_image0
_chemical_formula_structural       Li3Lu3O6SSi
_chemical_formula_sum              "Li3 Lu3 O6 S1 Si1"
_cell_length_a       5.645953302474529
_cell_length_b       7.181154956750822
_cell_length_c       7.576576232910156
_cell_angle_alpha    104.90505680267312
_cell_angle_beta     105.72831492711812
_cell_angle_gamma    104.12668295220725

_space_group_name_H-M_alt    "P 1"
_space_group_IT_number       1

loop_
  _space_group_symop_operation_xyz
  'x, y, z'

loop_
  _atom_site_type_symbol
  _atom_site_label
  _atom_site_symmetry_multiplicity
  _atom_site_fract_x
  _atom_site_fract_y
  _atom_site_fract_z
  _atom_site_occupancy
  Li  Li1       1.0  0.2882068157196045  0.42200264334678655  0.9079887270927429  1.0000
  Li  Li2       1.0  0.5672006607055664  0.5918657183647156  0.5690402388572693  1.0000
  Li  Li3       1.0  0.680195152759552  0.22484989464282992  0.8395494818687439  1.0000
  Lu  Lu1       1.0  0.556887149810791  0.08726006001234056  0.38807982206344604  1.0000
  Lu  Lu2       1.0  0.5533920526504517  0.0955481380224228  0.4718911945819855  1.0000
  Lu  Lu3       1.0  0.8677670955657959  0.6343498229980469  0.05206522345542908  1.0000
  O   O1        1.0  0.36868536472320557  0.22312411665916446  0.8426566123962402  1.0000
  O   O2        1.0  0.9416495561599731  0.2526453733444214  0.22858069837093353  1.0000
  O   O3        1.0  0.3092038035392762  0.9537951350212098  0.9593228101730347  1.0000
  O   O4        1.0  0.43324384093284607  0.12418685853481294  0.9168415665626526  1.0000
  O   O5        1.0  0.5879035592079163  0.5974944233894348  0.6163424849510193  1.0000
  O   O6        1.0  0.43642938137054443  0.45851477980613714  0.344588965177536  1.0000
  S   S1        1.0  0.1760760992765427  0.699876368045807  0.8348745703697205  1.0000
  Si  Si1       1.0  0.46033504605293274  0.06301391869783401  0.44599008560180664  1.0000
