data_image0
_chemical_formula_structural       Li2O2Si2Sr8
_chemical_formula_sum              "Li2 O2 Si2 Sr8"
_cell_length_a       6.99214078853064
_cell_length_b       7.3326427051001355
_cell_length_c       7.593739986419678
_cell_angle_alpha    60.341028645533186
_cell_angle_beta     64.13719026011348
_cell_angle_gamma    61.71284286718588

_space_group_name_H-M_alt    "P 1"
_space_group_IT_number       1

loop_
  _space_group_symop_operation_xyz
  'x, y, z'

loop_
  _atom_site_type_symbol
  _atom_site_label
  _atom_site_symmetry_multiplicity
  _atom_site_fract_x
  _atom_site_fract_y
  _atom_site_fract_z
  _atom_site_occupancy
  Li  Li1       1.0  0.1425764262676239  0.2919917106628418  0.9533020853996277  1.0000
  Li  Li2       1.0  0.14769919216632846  0.36697947978973383  0.5943957567214966  1.0000
  O   O1        1.0  0.06725451350212097  0.13772548735141754  0.15471240878105164  1.0000
  O   O2        1.0  0.7567048072814941  0.6794936060905457  0.757686197757721  1.0000
  Si  Si1       1.0  0.13597972691059113  0.32292962074279785  0.7288562059402466  1.0000
  Si  Si2       1.0  0.2138563245534897  0.8320744037628173  0.5554762482643127  1.0000
  Sr  Sr1       1.0  0.8379265069961548  0.15541572868824005  0.8883787393569946  1.0000
  Sr  Sr2       1.0  0.46534284949302673  0.5941500663757324  0.12350032478570938  1.0000
  Sr  Sr3       1.0  0.859495997428894  0.5615321397781372  0.8142189979553223  1.0000
  Sr  Sr4       1.0  0.15870700776577  0.8095010519027709  0.26224204897880554  1.0000
  Sr  Sr5       1.0  0.16752529144287112  0.8120872378349303  0.07792923599481583  1.0000
  Sr  Sr6       1.0  0.8310315012931824  0.05241103470325469  0.08939146995544434  1.0000
  Sr  Sr7       1.0  0.3608824908733368  0.5750499963760376  0.9653648734092712  1.0000
  Sr  Sr8       1.0  0.6258418560028076  0.32330915331840515  0.4044228792190552  1.0000
