data_image0
_chemical_formula_structural       BrLi3OSr9
_chemical_formula_sum              "Br1 Li3 O1 Sr9"
_cell_length_a       6.737901241420134
_cell_length_b       6.96905006496732
_cell_length_c       6.966091156005859
_cell_angle_alpha    60.34956004664974
_cell_angle_beta     59.90363621633613
_cell_angle_gamma    57.17749916927943

_space_group_name_H-M_alt    "P 1"
_space_group_IT_number       1

loop_
  _space_group_symop_operation_xyz
  'x, y, z'

loop_
  _atom_site_type_symbol
  _atom_site_label
  _atom_site_symmetry_multiplicity
  _atom_site_fract_x
  _atom_site_fract_y
  _atom_site_fract_z
  _atom_site_occupancy
  Br  Br1       1.0  0.8192037343978882  0.42821487784385676  0.04719000682234764  1.0000
  Li  Li1       1.0  0.5631023645401001  0.4577601850032806  0.09450370073318481  1.0000
  Li  Li2       1.0  0.7359662055969238  0.1695871353149414  0.771674394607544  1.0000
  Li  Li3       1.0  0.6372395157814026  0.6656744480133057  0.3118569552898407  1.0000
  O   O1        1.0  0.6346408128738403  0.46580189466476435  0.4874599575996398  1.0000
  Sr  Sr1       1.0  0.10114914923906326  0.3595757484436035  0.47746771574020386  1.0000
  Sr  Sr2       1.0  0.6535627841949463  0.3852846324443817  0.7753080725669861  1.0000
  Sr  Sr3       1.0  0.5973585844039917  0.23555366694927213  0.4184366464614868  1.0000
  Sr  Sr4       1.0  0.6618306040763855  0.44866189360618586  0.27778634428977966  1.0000
  Sr  Sr5       1.0  0.6213224530220033  0.9595480561256408  0.274804025888443  1.0000
  Sr  Sr6       1.0  0.13666392862796792  0.9472913742065429  0.8282822370529175  1.0000
  Sr  Sr7       1.0  0.11806216090917587  0.17423796653747559  0.0020790440030395985  1.0000
  Sr  Sr8       1.0  0.09945394843816757  0.06966713815927505  0.5173320174217224  1.0000
  Sr  Sr9       1.0  0.11055646091699609  0.9578852653503417  0.2708326578140259  1.0000
