data_image0
_chemical_formula_structural       LiO6SSi4SrZr
_chemical_formula_sum              "Li1 O6 S1 Si4 Sr1 Zr1"
_cell_length_a       6.625822550070953
_cell_length_b       7.275638891923125
_cell_length_c       7.363784313201904
_cell_angle_alpha    110.65586653535445
_cell_angle_beta     107.23695358077906
_cell_angle_gamma    107.17689755972077

_space_group_name_H-M_alt    "P 1"
_space_group_IT_number       1

loop_
  _space_group_symop_operation_xyz
  'x, y, z'

loop_
  _atom_site_type_symbol
  _atom_site_label
  _atom_site_symmetry_multiplicity
  _atom_site_fract_x
  _atom_site_fract_y
  _atom_site_fract_z
  _atom_site_occupancy
  Li  Li1       1.0  0.6746341586112976  0.7070297598838806  0.6707794666290283  1.0000
  O   O1        1.0  0.9825153350830078  0.13856624066829681  0.7350748181343079  1.0000
  O   O2        1.0  0.5375139713287354  0.5949097871780396  0.6351649761199951  1.0000
  O   O3        1.0  0.43038317561149597  0.4128047227859497  0.22421634197235107  1.0000
  O   O4        1.0  0.7687909007072449  0.386811763048172  0.26773732900619507  1.0000
  O   O5        1.0  0.5147082805633545  0.9142807722091675  0.26420971751213074  1.0000
  O   O6        1.0  0.25981953740119934  0.22538933157920837  0.17638257145881653  1.0000
  S   S1        1.0  0.01893864944577217  0.18413406610488892  0.9759635329246521  1.0000
  Si  Si1       1.0  0.9844239950180054  0.11185967177152634  0.3581221103668213  1.0000
  Si  Si2       1.0  0.6902033090591431  0.7478909492492676  0.31632718443870544  1.0000
  Si  Si3       1.0  0.3781298100948334  0.5446922779083252  0.9867579340934753  1.0000
  Si  Si4       1.0  0.07229354232549667  0.625472366809845  0.2629319131374359  1.0000
  Sr  Sr1       1.0  0.27484652400016785  0.553324282169342  0.707921028137207  1.0000
  Zr  Zr1       1.0  0.48654505610466003  0.16497337818145752  0.42924413084983826  1.0000
