data_image0
_chemical_formula_structural       LiO6SSi6
_chemical_formula_sum              "Li1 O6 S1 Si6"
_cell_length_a       4.622281761957609
_cell_length_b       7.7732080459030675
_cell_length_c       8.564103126525879
_cell_angle_alpha    92.98736812176544
_cell_angle_beta     91.33936689809462
_cell_angle_gamma    90.33703231307337

_space_group_name_H-M_alt    "P 1"
_space_group_IT_number       1

loop_
  _space_group_symop_operation_xyz
  'x, y, z'

loop_
  _atom_site_type_symbol
  _atom_site_label
  _atom_site_symmetry_multiplicity
  _atom_site_fract_x
  _atom_site_fract_y
  _atom_site_fract_z
  _atom_site_occupancy
  Li  Li1       1.0  0.9970978498458862  0.9811180830001831  0.0077466280199587345  1.0000
  O   O1        1.0  0.2814180850982666  0.09668569266796112  0.03794267028570175  1.0000
  O   O2        1.0  0.8206586837768555  0.5111047625541687  0.06952638179063797  1.0000
  O   O3        1.0  0.47424226999282837  0.6206351518630981  0.4501146078109741  1.0000
  O   O4        1.0  0.3518713116645813  0.4247264862060547  0.2957862317562103  1.0000
  O   O5        1.0  0.7541554570198059  0.7239079475402832  0.3137017488479614  1.0000
  O   O6        1.0  0.2501715123653412  0.03619343414902687  0.31556859612464905  1.0000
  S   S1        1.0  0.776682436466217  0.9822574257850647  0.8104721903800964  1.0000
  Si  Si1       1.0  0.9993916153907776  0.34550967812538147  0.8426294326782227  1.0000
  Si  Si2       1.0  0.233719602227211  0.05954889953136444  0.9024699926376343  1.0000
  Si  Si3       1.0  0.8876140117645264  0.32339513301849365  0.04176199808716774  1.0000
  Si  Si4       1.0  0.6505281925201416  0.6146954894065857  0.041830144822597504  1.0000
  Si  Si5       1.0  0.8503949046134949  0.593528687953949  0.4373489022254944  1.0000
  Si  Si6       1.0  0.7478839755058289  0.04226317256689072  0.14978475868701935  1.0000
