data_image0
_chemical_formula_structural       CuIP2STb6
_chemical_formula_sum              "Cu1 I1 P2 S1 Tb6"
_cell_length_a       6.422682470476011
_cell_length_b       7.400575649643304
_cell_length_c       7.196167945861816
_cell_angle_alpha    112.61768712766893
_cell_angle_beta     101.57239111676382
_cell_angle_gamma    110.23441371813445

_space_group_name_H-M_alt    "P 1"
_space_group_IT_number       1

loop_
  _space_group_symop_operation_xyz
  'x, y, z'

loop_
  _atom_site_type_symbol
  _atom_site_label
  _atom_site_symmetry_multiplicity
  _atom_site_fract_x
  _atom_site_fract_y
  _atom_site_fract_z
  _atom_site_occupancy
  Cu  Cu1       1.0  0.9597731828689575  0.10230927914381029  0.0064027272164821625  1.0000
  I   I1        1.0  0.05481957644224167  0.3389081060886383  0.023395154625177415  1.0000
  P   P1        1.0  0.7402560114860535  0.08634012937545776  0.9946588277816772  1.0000
  P   P2        1.0  0.7411275506019592  0.28560805320739746  0.9952676892280579  1.0000
  S   S1        1.0  0.7371256947517395  0.3782226443290711  0.7300723195075989  1.0000
  Tb  Tb1       1.0  0.9621438980102539  0.5835057497024536  0.7701154351234436  1.0000
  Tb  Tb2       1.0  0.4668496549129486  0.5388839840888977  0.9996439218521118  1.0000
  Tb  Tb3       1.0  0.9426520466804504  0.7733201980590821  0.6263522505760193  1.0000
  Tb  Tb4       1.0  0.343050479888916  0.5851791501045227  0.8638578057289124  1.0000
  Tb  Tb5       1.0  0.3401792049407959  0.0891137942671776  0.4812988042831421  1.0000
  Tb  Tb6       1.0  0.3623282015323639  0.05163014307618142  0.5993184447288513  1.0000
