data_image0
_chemical_formula_structural       CuIMnPTb6Zn
_chemical_formula_sum              "Cu1 I1 Mn1 P1 Tb6 Zn1"
_cell_length_a       5.267374775629904
_cell_length_b       6.618624814653649
_cell_length_c       8.765061378479004
_cell_angle_alpha    99.01786010390607
_cell_angle_beta     88.87388302022502
_cell_angle_gamma    94.54534701597147

_space_group_name_H-M_alt    "P 1"
_space_group_IT_number       1

loop_
  _space_group_symop_operation_xyz
  'x, y, z'

loop_
  _atom_site_type_symbol
  _atom_site_label
  _atom_site_symmetry_multiplicity
  _atom_site_fract_x
  _atom_site_fract_y
  _atom_site_fract_z
  _atom_site_occupancy
  Cu  Cu1       1.0  0.9347938299179077  0.5007440447807312  0.3581608533859253  1.0000
  I   I1        1.0  0.13822965323925018  0.2795339822769165  0.6008223295211792  1.0000
  Mn  Mn1       1.0  0.4051864743232727  0.3015049397945404  0.6278027892112733  1.0000
  P   P1        1.0  0.5726036429405212  0.8054560422897339  0.116171270608902  1.0000
  Tb  Tb1       1.0  0.34463614225387573  0.13338109850883484  0.15245746076107025  1.0000
  Tb  Tb2       1.0  0.9030642509460449  0.9948498010635376  0.8237491250038147  1.0000
  Tb  Tb3       1.0  0.4105648696422577  0.7739611268043518  0.32653215527534485  1.0000
  Tb  Tb4       1.0  0.6449386477470398  0.7333521842956543  0.8150851726531982  1.0000
  Tb  Tb5       1.0  0.16171696782112122  0.2883971631526947  0.43568927049636846  1.0000
  Tb  Tb6       1.0  0.8854613304138184  0.4734733998775482  0.610659122467041  1.0000
  Zn  Zn1       1.0  0.8983362913131714  0.3461553454399109  0.2164059579372406  1.0000
