data_image0
_chemical_formula_structural       FInPd5Tb4
_chemical_formula_sum              "F1 In1 Pd5 Tb4"
_cell_length_a       4.620741594294735
_cell_length_b       5.746411521532244
_cell_length_c       8.261239051818848
_cell_angle_alpha    110.51206516387475
_cell_angle_beta     95.01237147724929
_cell_angle_gamma    85.56050158101921

_space_group_name_H-M_alt    "P 1"
_space_group_IT_number       1

loop_
  _space_group_symop_operation_xyz
  'x, y, z'

loop_
  _atom_site_type_symbol
  _atom_site_label
  _atom_site_symmetry_multiplicity
  _atom_site_fract_x
  _atom_site_fract_y
  _atom_site_fract_z
  _atom_site_occupancy
  F   F1        1.0  0.18419209122657776  0.7756799459457397  0.7373199462890625  1.0000
  In  In1       1.0  0.6860557198524475  0.13110031187534332  0.2254468947649002  1.0000
  Pd  Pd1       1.0  0.18776802718639374  0.6842604875564575  0.20480827987194064  1.0000
  Pd  Pd2       1.0  0.17774266004562378  0.18972305953502655  0.8194544911384583  1.0000
  Pd  Pd3       1.0  0.6790246963500977  0.9776065349578857  0.7621737718582153  1.0000
  Pd  Pd4       1.0  0.6804600954055786  0.4395473897457123  0.7720769047737122  1.0000
  Pd  Pd5       1.0  0.6841448545455933  0.6320516467094421  0.015030934475362301  1.0000
  Tb  Tb1       1.0  0.6734681129455566  0.7688674926757812  0.8791700005531311  1.0000
  Tb  Tb2       1.0  0.18959371745586395  0.6826545000076294  0.3715831935405731  1.0000
  Tb  Tb3       1.0  0.6886357069015503  0.007663592230528593  0.33214542269706726  1.0000
  Tb  Tb4       1.0  0.007850035093724728  0.9569976329803467  0.48471274971961975  1.0000
