data_image0
_chemical_formula_structural       BiCaPd4SnTb4
_chemical_formula_sum              "Bi1 Ca1 Pd4 Sn1 Tb4"
_cell_length_a       4.932361394606142
_cell_length_b       6.725306119926844
_cell_length_c       7.2844414710998535
_cell_angle_alpha    119.34495898194953
_cell_angle_beta     92.8750076514252
_cell_angle_gamma    89.87751883857639

_space_group_name_H-M_alt    "P 1"
_space_group_IT_number       1

loop_
  _space_group_symop_operation_xyz
  'x, y, z'

loop_
  _atom_site_type_symbol
  _atom_site_label
  _atom_site_symmetry_multiplicity
  _atom_site_fract_x
  _atom_site_fract_y
  _atom_site_fract_z
  _atom_site_occupancy
  Bi  Bi1       1.0  0.14869385957717896  0.2867695689201355  0.533932089805603  1.0000
  Ca  Ca1       1.0  0.6565344333648682  0.14707492291927338  0.503425121307373  1.0000
  Pd  Pd1       1.0  0.6550145149230957  0.6512598395347595  0.7300363183021545  1.0000
  Pd  Pd2       1.0  0.6468204855918884  0.8148489594459534  0.44558754563331604  1.0000
  Pd  Pd3       1.0  0.15217792987823486  0.9879185557365417  0.07508692890405655  1.0000
  Pd  Pd4       1.0  0.1488652527332306  0.3435024619102478  0.6748243570327759  1.0000
  Sn  Sn1       1.0  0.6529010534286499  0.9734156131744385  0.4005589485168457  1.0000
  Tb  Tb1       1.0  0.6525235772132874  0.3238276243209839  0.1933816373348236  1.0000
  Tb  Tb2       1.0  0.14292241632938385  0.36361366510391235  0.8682263493537903  1.0000
  Tb  Tb3       1.0  0.15331508219242096  0.9639966487884521  0.0030259932391345805  1.0000
  Tb  Tb4       1.0  0.3997482359409332  0.8460440039634705  0.7004675269126892  1.0000
