data_image0
_chemical_formula_structural       DyIMnPdTb6Zn
_chemical_formula_sum              "Dy1 I1 Mn1 Pd1 Tb6 Zn1"
_cell_length_a       5.203996000846254
_cell_length_b       6.999022508316616
_cell_length_c       7.52696418762207
_cell_angle_alpha    105.99847828771162
_cell_angle_beta     89.6373388557119
_cell_angle_gamma    104.50879611095135

_space_group_name_H-M_alt    "P 1"
_space_group_IT_number       1

loop_
  _space_group_symop_operation_xyz
  'x, y, z'

loop_
  _atom_site_type_symbol
  _atom_site_label
  _atom_site_symmetry_multiplicity
  _atom_site_fract_x
  _atom_site_fract_y
  _atom_site_fract_z
  _atom_site_occupancy
  Dy  Dy1       1.0  0.590791642665863  0.3043884336948395  0.6337299942970277  1.0000
  I   I1        1.0  0.8778916001319885  0.4788483381271362  0.19329279661178592  1.0000
  Mn  Mn1       1.0  0.2621315121650696  0.44106987118721  0.11582151800394058  1.0000
  Pd  Pd1       1.0  0.4167308211326599  0.9206080436706542  0.1757045984268188  1.0000
  Tb  Tb1       1.0  0.8793599605560303  0.9966700077056884  0.4268293082714081  1.0000
  Tb  Tb2       1.0  0.6259105205535889  0.6681898236274718  0.6895312666893006  1.0000
  Tb  Tb3       1.0  0.21914575994014737  0.6669031381607055  0.26376548409461975  1.0000
  Tb  Tb4       1.0  0.8940129280090332  0.3680563271045684  0.9975937008857728  1.0000
  Tb  Tb5       1.0  0.09096354246139526  0.10158350318670271  0.16118918359279635  1.0000
  Tb  Tb6       1.0  0.3656047284603119  0.015190226025879381  0.6924672722816468  1.0000
  Zn  Zn1       1.0  0.23936237394809723  0.37226888537406916  0.4918199181556702  1.0000
