data_image0
_chemical_formula_structural       FIPdTb7Zn
_chemical_formula_sum              "F1 I1 Pd1 Tb7 Zn1"
_cell_length_a       5.469259496613451
_cell_length_b       6.006449806197476
_cell_length_c       8.61541748046875
_cell_angle_alpha    95.12181402498858
_cell_angle_beta     87.11746089577493
_cell_angle_gamma    118.18712980941952

_space_group_name_H-M_alt    "P 1"
_space_group_IT_number       1

loop_
  _space_group_symop_operation_xyz
  'x, y, z'

loop_
  _atom_site_type_symbol
  _atom_site_label
  _atom_site_symmetry_multiplicity
  _atom_site_fract_x
  _atom_site_fract_y
  _atom_site_fract_z
  _atom_site_occupancy
  F   F1        1.0  0.8006535172462463  0.24307665228843692  0.6570656895637512  1.0000
  I   I1        1.0  0.5185995101928711  0.4137814939022065  0.7428892850875854  1.0000
  Pd  Pd1       1.0  0.016567455604672474  0.39810526371002203  0.2891019582748413  1.0000
  Tb  Tb1       1.0  0.9348631501197815  0.743065595626831  0.11250795423984528  1.0000
  Tb  Tb2       1.0  0.82394939661026  0.8864516019821168  0.28308185935020447  1.0000
  Tb  Tb3       1.0  0.3375400900840759  0.7446532845497131  0.5557807683944702  1.0000
  Tb  Tb4       1.0  0.5948132872581483  0.8922390341758729  0.37261539697647095  1.0000
  Tb  Tb5       1.0  0.3106188774108887  0.42412990331649786  0.4691888093948364  1.0000
  Tb  Tb6       1.0  0.33772772550582897  0.9889172315597535  0.9851726293563843  1.0000
  Tb  Tb7       1.0  0.29280927777290344  0.7388232350349426  0.2548937201499939  1.0000
  Zn  Zn1       1.0  0.1412845104932785  0.5419144630432129  0.0908917635679245  1.0000
