data_image0
_chemical_formula_structural       LaP3SSr5Tl
_chemical_formula_sum              "La1 P3 S1 Sr5 Tl1"
_cell_length_a       5.794442455557337
_cell_length_b       7.344674473829684
_cell_length_c       8.69385051727295
_cell_angle_alpha    89.85393848804321
_cell_angle_beta     90.49066292226976
_cell_angle_gamma    89.24024717904311

_space_group_name_H-M_alt    "P 1"
_space_group_IT_number       1

loop_
  _space_group_symop_operation_xyz
  'x, y, z'

loop_
  _atom_site_type_symbol
  _atom_site_label
  _atom_site_symmetry_multiplicity
  _atom_site_fract_x
  _atom_site_fract_y
  _atom_site_fract_z
  _atom_site_occupancy
  La  La1       1.0  0.4345853626728058  0.057737205177545554  0.07912945747375488  1.0000
  P   P1        1.0  0.7627009153366089  0.10103453695774078  0.16464044153690338  1.0000
  P   P2        1.0  0.4741740226745606  0.6523614525794983  0.20055048167705536  1.0000
  P   P3        1.0  0.4767221808433533  0.35318559408187866  0.8547587990760803  1.0000
  S   S1        1.0  0.5723568201065063  0.5912853479385376  0.35527801513671875  1.0000
  Sr  Sr1       1.0  0.9881234169006349  0.3562249541282654  0.3613615930080414  1.0000
  Sr  Sr2       1.0  0.007815998047590256  0.3544065058231354  0.005955125205218792  1.0000
  Sr  Sr3       1.0  0.47627985477447515  0.8663124442100525  0.8145769834518433  1.0000
  Sr  Sr4       1.0  0.9882622361183168  0.3686639964580536  0.093160480260849  1.0000
  Sr  Sr5       1.0  0.48184347152709966  0.6290454864501953  0.6880238652229309  1.0000
  Tl  Tl1       1.0  0.008647899143397808  0.8438349366188049  0.5900470614433289  1.0000
