data_image0
_chemical_formula_structural       LaP4PtSSr4
_chemical_formula_sum              "La1 P4 Pt1 S1 Sr4"
_cell_length_a       5.494139847371608
_cell_length_b       6.7325279224412835
_cell_length_c       8.580339431762695
_cell_angle_alpha    90.29159713333794
_cell_angle_beta     90.93079089710982
_cell_angle_gamma    90.8643103760654

_space_group_name_H-M_alt    "P 1"
_space_group_IT_number       1

loop_
  _space_group_symop_operation_xyz
  'x, y, z'

loop_
  _atom_site_type_symbol
  _atom_site_label
  _atom_site_symmetry_multiplicity
  _atom_site_fract_x
  _atom_site_fract_y
  _atom_site_fract_z
  _atom_site_occupancy
  La  La1       1.0  0.07930509001016617  0.7003424167633058  0.5351644158363342  1.0000
  P   P1        1.0  0.6767309904098511  0.059654310345649726  0.7159673571586609  1.0000
  P   P2        1.0  0.470579594373703  0.11196000874042512  0.31795263290405273  1.0000
  P   P3        1.0  0.3253304064273834  0.957126021385193  0.09837836772203445  1.0000
  P   P4        1.0  0.9722837209701538  0.5563629865646362  0.34101882576942444  1.0000
  Pt  Pt1       1.0  0.6714614629745483  0.21194553375244143  0.040809813886880875  1.0000
  S   S1        1.0  0.6247051358222961  0.2424023747444153  0.47506073117256165  1.0000
  Sr  Sr1       1.0  0.5846902132034302  0.6330959200859071  0.6440091133117676  1.0000
  Sr  Sr2       1.0  0.9551678895950317  0.5971083045005798  0.08979243040084839  1.0000
  Sr  Sr3       1.0  0.09922900795936584  0.2670741379261017  0.4570680856704712  1.0000
  Sr  Sr4       1.0  0.6169376373291016  0.7532635331153871  0.7177757620811462  1.0000
