data_image0
_chemical_formula_structural       FPt9Sr
_chemical_formula_sum              "F1 Pt9 Sr1"
_cell_length_a       4.895256901837645
_cell_length_b       6.574640083137077
_cell_length_c       8.666316986083984
_cell_angle_alpha    90.4382387856963
_cell_angle_beta     90.21279360172544
_cell_angle_gamma    89.58246098005405

_space_group_name_H-M_alt    "P 1"
_space_group_IT_number       1

loop_
  _space_group_symop_operation_xyz
  'x, y, z'

loop_
  _atom_site_type_symbol
  _atom_site_label
  _atom_site_symmetry_multiplicity
  _atom_site_fract_x
  _atom_site_fract_y
  _atom_site_fract_z
  _atom_site_occupancy
  F   F1        1.0  0.082183837890625  0.9169352054595947  0.5993431806564331  1.0000
  Pt  Pt1       1.0  0.5883752107620239  0.1745733618736267  0.5848368406295776  1.0000
  Pt  Pt2       1.0  0.5851396322250366  0.23434819281101227  0.5909200310707092  1.0000
  Pt  Pt3       1.0  0.5868901610374451  0.4127192497253418  0.7668405771255493  1.0000
  Pt  Pt4       1.0  0.09556969255208969  0.7114292979240417  0.9623214602470398  1.0000
  Pt  Pt5       1.0  0.5879061818122864  0.7301793098449707  0.6391295194625854  1.0000
  Pt  Pt6       1.0  0.0884513407945633  0.8004695177078247  0.4666265547275543  1.0000
  Pt  Pt7       1.0  0.08557361364364624  0.07889217883348465  0.3771486282348633  1.0000
  Pt  Pt8       1.0  0.09105339646339417  0.5049359202384949  0.3099243938922882  1.0000
  Pt  Pt9       1.0  0.5819007754325867  0.41971534490585327  0.9214972257614136  1.0000
  Sr  Sr1       1.0  0.6180850863456726  0.7832323908805847  0.5784578919410706  1.0000
