data_image0
_chemical_formula_structural       P3PtSnSr5Tl
_chemical_formula_sum              "P3 Pt1 Sn1 Sr5 Tl1"
_cell_length_a       6.027346973621487
_cell_length_b       6.80564284253374
_cell_length_c       8.77478313446045
_cell_angle_alpha    90.84631835013772
_cell_angle_beta     89.89615687458283
_cell_angle_gamma    90.16837489189463

_space_group_name_H-M_alt    "P 1"
_space_group_IT_number       1

loop_
  _space_group_symop_operation_xyz
  'x, y, z'

loop_
  _atom_site_type_symbol
  _atom_site_label
  _atom_site_symmetry_multiplicity
  _atom_site_fract_x
  _atom_site_fract_y
  _atom_site_fract_z
  _atom_site_occupancy
  P   P1        1.0  0.2571588158607483  0.9447085857391357  0.13552813231945038  1.0000
  P   P2        1.0  0.07851237058639526  0.2684669494628906  0.012828721664845943  1.0000
  P   P3        1.0  0.7699638009071349  0.4862841069698334  0.712073564529419  1.0000
  Pt  Pt1       1.0  0.9392625093460082  0.00800918135792017  0.46407487988471985  1.0000
  Sn  Sn1       1.0  0.28641438484191895  0.9736062288284302  0.7790273427963257  1.0000
  Sr  Sr1       1.0  0.5883474349975586  0.25413939356803894  0.9326251745223999  1.0000
  Sr  Sr2       1.0  0.7561559081077575  0.9849244952201843  0.683915376663208  1.0000
  Sr  Sr3       1.0  0.43020337820053095  0.5010805726051331  0.4301149845123291  1.0000
  Sr  Sr4       1.0  0.32722628116607666  0.22838348150253296  0.1906435638666153  1.0000
  Sr  Sr5       1.0  0.8225803971290587  0.7658336162567139  0.43517059087753296  1.0000
  Tl  Tl1       1.0  0.06442271918058395  0.7628294825553894  0.9651389718055725  1.0000
