data_image0
_chemical_formula_structural       Pt8Sr3
_chemical_formula_sum              "Pt8 Sr3"
_cell_length_a       4.921657222740965
_cell_length_b       7.065329377199204
_cell_length_c       8.636468887329102
_cell_angle_alpha    92.13351457968686
_cell_angle_beta     87.29268328210539
_cell_angle_gamma    93.05414497281804

_space_group_name_H-M_alt    "P 1"
_space_group_IT_number       1

loop_
  _space_group_symop_operation_xyz
  'x, y, z'

loop_
  _atom_site_type_symbol
  _atom_site_label
  _atom_site_symmetry_multiplicity
  _atom_site_fract_x
  _atom_site_fract_y
  _atom_site_fract_z
  _atom_site_occupancy
  Pt  Pt1       1.0  0.9015910625457764  0.17499376833438873  0.5704207420349121  1.0000
  Pt  Pt2       1.0  0.37380725145339966  0.5800223350524902  0.5343600511550903  1.0000
  Pt  Pt3       1.0  0.865850031375885  0.03602852672338486  0.3373178541660309  1.0000
  Pt  Pt4       1.0  0.3863048851490021  0.7829234600067139  0.813034474849701  1.0000
  Pt  Pt5       1.0  0.8705190420150757  0.5519993901252747  0.05782973766326904  1.0000
  Pt  Pt6       1.0  0.8946316838264465  0.56723552942276  0.5749232172966003  1.0000
  Pt  Pt7       1.0  0.14171767234802246  0.7960099577903748  0.001371145248413086  1.0000
  Pt  Pt8       1.0  0.40754061937332153  0.8311848044395447  0.8247175216674805  1.0000
  Sr  Sr1       1.0  0.3735972046852112  0.5422133803367615  0.3042052388191223  1.0000
  Sr  Sr2       1.0  0.9018040895462036  0.043693382292985916  0.06529118120670319  1.0000
  Sr  Sr3       1.0  0.40096956491470337  0.29126429557800293  0.8361761569976807  1.0000
