data_image0
_chemical_formula_structural       P3Pt4Sr4
_chemical_formula_sum              "P3 Pt4 Sr4"
_cell_length_a       5.399713214191752
_cell_length_b       7.760476948140947
_cell_length_c       8.214848518371582
_cell_angle_alpha    90.14013772791337
_cell_angle_beta     89.4517767151773
_cell_angle_gamma    91.22289491608106

_space_group_name_H-M_alt    "P 1"
_space_group_IT_number       1

loop_
  _space_group_symop_operation_xyz
  'x, y, z'

loop_
  _atom_site_type_symbol
  _atom_site_label
  _atom_site_symmetry_multiplicity
  _atom_site_fract_x
  _atom_site_fract_y
  _atom_site_fract_z
  _atom_site_occupancy
  P   P1        1.0  0.6552286148071289  0.2571202516555786  0.6781699061393738  1.0000
  P   P2        1.0  0.1715582311153412  0.5230122208595276  0.7020257115364075  1.0000
  P   P3        1.0  0.6458171010017395  0.7922555804252623  0.9221306443214417  1.0000
  Pt  Pt1       1.0  0.49242791533470154  0.47727236151695246  0.8851624131202698  1.0000
  Pt  Pt2       1.0  0.43676599860191345  0.6221072673797606  0.2914930284023285  1.0000
  Pt  Pt3       1.0  0.686174213886261  0.23261137306690213  0.9404309988021851  1.0000
  Pt  Pt4       1.0  0.951793909072876  0.535068929195404  0.9321534037590027  1.0000
  Sr  Sr1       1.0  0.6432809233665466  0.29260990023612976  0.4011441171169281  1.0000
  Sr  Sr2       1.0  0.6562513113021851  0.197003036737442  0.7807437777519226  1.0000
  Sr  Sr3       1.0  0.154089093208313  0.01196148060262203  0.20160558819770813  1.0000
  Sr  Sr4       1.0  0.1609543114900589  0.7569652795791625  0.5305761694908142  1.0000
