data_image0
_chemical_formula_structural       AgPt4Si4
_chemical_formula_sum              "Ag1 Pt4 Si4"
_cell_length_a       4.788568682974487
_cell_length_b       5.372317073421509
_cell_length_c       6.872414588928223
_cell_angle_alpha    71.63924182992056
_cell_angle_beta     68.89977982377451
_cell_angle_gamma    62.46266782753116

_space_group_name_H-M_alt    "P 1"
_space_group_IT_number       1

loop_
  _space_group_symop_operation_xyz
  'x, y, z'

loop_
  _atom_site_type_symbol
  _atom_site_label
  _atom_site_symmetry_multiplicity
  _atom_site_fract_x
  _atom_site_fract_y
  _atom_site_fract_z
  _atom_site_occupancy
  Ag  Ag1       1.0  0.6540274024009705  0.680912435054779  0.23682850599288938  1.0000
  Pt  Pt1       1.0  0.3923104703426361  0.9738737940788269  0.755650222301483  1.0000
  Pt  Pt2       1.0  0.74338698387146  0.4879850149154663  0.24835638701915738  1.0000
  Pt  Pt3       1.0  0.15423481166362762  0.16439194977283478  0.25214919447898865  1.0000
  Pt  Pt4       1.0  0.07107909023761749  0.1511085331439972  0.9940698742866515  1.0000
  Si  Si1       1.0  0.33001837134361267  0.4806453585624695  0.6636072993278503  1.0000
  Si  Si2       1.0  0.3908842206001282  0.4979187548160553  0.7603396177291869  1.0000
  Si  Si3       1.0  0.8997982144355774  0.4988453984260559  0.3676494359970093  1.0000
  Si  Si4       1.0  0.2632577419281006  0.708782434463501  0.4324962496757507  1.0000
