data_image0
_chemical_formula_structural       AgAs2Pt6
_chemical_formula_sum              "Ag1 As2 Pt6"
_cell_length_a       3.777575477851929
_cell_length_b       4.380835668153794
_cell_length_c       9.763895988464355
_cell_angle_alpha    111.1338957721912
_cell_angle_beta     85.60731867932783
_cell_angle_gamma    88.66356373245671

_space_group_name_H-M_alt    "P 1"
_space_group_IT_number       1

loop_
  _space_group_symop_operation_xyz
  'x, y, z'

loop_
  _atom_site_type_symbol
  _atom_site_label
  _atom_site_symmetry_multiplicity
  _atom_site_fract_x
  _atom_site_fract_y
  _atom_site_fract_z
  _atom_site_occupancy
  Ag  Ag1       1.0  0.2584690749645233  0.7001460194587708  0.0910489410161972  1.0000
  As  As1       1.0  0.22871369123458862  0.07920050621032715  0.118012934923172  1.0000
  As  As2       1.0  0.7313359975814819  0.21666721999645233  0.9925905466079712  1.0000
  Pt  Pt1       1.0  0.23431998491287231  0.7009666562080383  0.25846782326698303  1.0000
  Pt  Pt2       1.0  0.23488369584083557  0.39025428891181946  0.5017886161804199  1.0000
  Pt  Pt3       1.0  0.7372438907623291  0.4928688108921051  0.7521047592163086  1.0000
  Pt  Pt4       1.0  0.22708357870578766  0.5324423313140869  7.891654968260582e-05  1.0000
  Pt  Pt5       1.0  0.7354506254196167  0.022896267473697662  0.5710604786872864  1.0000
  Pt  Pt6       1.0  0.2284696400165558  0.0313778854906559  0.40974944829940796  1.0000
