data_image0
_chemical_formula_structural       AlAsHPt2Si4
_chemical_formula_sum              "Al1 As1 H1 Pt2 Si4"
_cell_length_a       4.482123515644506
_cell_length_b       5.016924120712406
_cell_length_c       8.275094985961914
_cell_angle_alpha    77.44350363529534
_cell_angle_beta     75.87773728354699
_cell_angle_gamma    62.13414367434571

_space_group_name_H-M_alt    "P 1"
_space_group_IT_number       1

loop_
  _space_group_symop_operation_xyz
  'x, y, z'

loop_
  _atom_site_type_symbol
  _atom_site_label
  _atom_site_symmetry_multiplicity
  _atom_site_fract_x
  _atom_site_fract_y
  _atom_site_fract_z
  _atom_site_occupancy
  Al  Al1       1.0  0.846233069896698  0.23440992832183838  0.3545372784137726  1.0000
  As  As1       1.0  0.43347275257110596  0.6758909821510315  0.5166587233543396  1.0000
  H   H1        1.0  0.50766921043396  0.9502253532409668  0.8495186567306519  1.0000
  Pt  Pt1       1.0  0.9842787981033325  0.7539864182472229  0.3615826368331909  1.0000
  Pt  Pt2       1.0  0.7804953455924988  0.033742841333150864  0.15157528221607208  1.0000
  Si  Si1       1.0  0.7865239381790161  0.23886239528656006  0.8530154824256897  1.0000
  Si  Si2       1.0  0.2904229462146759  0.03973417356610298  0.11964055895805359  1.0000
  Si  Si3       1.0  0.289978951215744  0.5578585267066956  0.20296414196491241  1.0000
  Si  Si4       1.0  0.7763715982437134  0.5954241156578064  0.13391231000423431  1.0000
