data_image0
_chemical_formula_structural       Gd3Ru2S2U2
_chemical_formula_sum              "Gd3 Ru2 S2 U2"
_cell_length_a       5.768147274034952
_cell_length_b       6.273060827618118
_cell_length_c       7.216108322143555
_cell_angle_alpha    116.72205710886159
_cell_angle_beta     108.11856243723184
_cell_angle_gamma    89.52609897545246

_space_group_name_H-M_alt    "P 1"
_space_group_IT_number       1

loop_
  _space_group_symop_operation_xyz
  'x, y, z'

loop_
  _atom_site_type_symbol
  _atom_site_label
  _atom_site_symmetry_multiplicity
  _atom_site_fract_x
  _atom_site_fract_y
  _atom_site_fract_z
  _atom_site_occupancy
  Gd  Gd1       1.0  0.8230459094047546  0.9794054627418518  0.9637662172317506  1.0000
  Gd  Gd2       1.0  0.318964421749115  0.19748610258102417  0.9664512276649476  1.0000
  Gd  Gd3       1.0  0.835073709487915  0.2352719008922577  0.25380271673202515  1.0000
  Ru  Ru1       1.0  0.5810988545417786  0.4704207181930542  0.37892761826515203  1.0000
  Ru  Ru2       1.0  0.36989423632621765  0.9811637997627258  0.9800072312355043  1.0000
  S   S1        1.0  0.4289790093898773  0.7140925526618958  0.1868887394666672  1.0000
  S   S2        1.0  0.4145601689815521  0.6967760324478149  0.3828551173210144  1.0000
  U   U1        1.0  0.81573885679245  0.19205476343631744  0.9630876779556276  1.0000
  U   U2        1.0  0.869035005569458  0.4826405346393585  0.7230916619300843  1.0000
