data_image0
_chemical_formula_structural       Gd4S2U3
_chemical_formula_sum              "Gd4 S2 U3"
_cell_length_a       5.598383924116756
_cell_length_b       6.988385780457354
_cell_length_c       8.375616073608398
_cell_angle_alpha    118.13656797088177
_cell_angle_beta     103.9732912309964
_cell_angle_gamma    88.71373060735

_space_group_name_H-M_alt    "P 1"
_space_group_IT_number       1

loop_
  _space_group_symop_operation_xyz
  'x, y, z'

loop_
  _atom_site_type_symbol
  _atom_site_label
  _atom_site_symmetry_multiplicity
  _atom_site_fract_x
  _atom_site_fract_y
  _atom_site_fract_z
  _atom_site_occupancy
  Gd  Gd1       1.0  0.9855318069458008  0.6423014402389526  0.004473372828215361  1.0000
  Gd  Gd2       1.0  0.0020731757394969463  0.1592680811882019  0.5429160594940186  1.0000
  Gd  Gd3       1.0  0.9922360777854919  0.126766636967659  0.9869430065155029  1.0000
  Gd  Gd4       1.0  0.502053439617157  0.8110709190368652  0.28160315752029413  1.0000
  S   S1        1.0  0.4904206097126007  0.14763379096984863  0.03408448398113251  1.0000
  S   S2        1.0  0.9869024753570557  0.6275004744529724  0.1301368921995163  1.0000
  U   U1        1.0  0.005893506109714508  0.830411434173584  0.5475760698318481  1.0000
  U   U2        1.0  0.477560818195343  0.11120839416980743  0.4623628258705139  1.0000
  U   U3        1.0  0.9843254685401917  0.13146795332431793  0.3261840343475342  1.0000
