data_image0
_chemical_formula_structural       Gd4RuS2U2
_chemical_formula_sum              "Gd4 Ru1 S2 U2"
_cell_length_a       5.8803339419118235
_cell_length_b       6.375482564018523
_cell_length_c       6.855729579925537
_cell_angle_alpha    117.99752998997013
_cell_angle_beta     115.81327396742073
_cell_angle_gamma    89.54079058621859

_space_group_name_H-M_alt    "P 1"
_space_group_IT_number       1

loop_
  _space_group_symop_operation_xyz
  'x, y, z'

loop_
  _atom_site_type_symbol
  _atom_site_label
  _atom_site_symmetry_multiplicity
  _atom_site_fract_x
  _atom_site_fract_y
  _atom_site_fract_z
  _atom_site_occupancy
  Gd  Gd1       1.0  0.9543396234512329  0.30295008420944214  0.34524163603782654  1.0000
  Gd  Gd2       1.0  0.6627739667892456  0.9497464895248414  0.22573639452457428  1.0000
  Gd  Gd3       1.0  0.9997361898422241  0.803008794784546  0.5595664978027344  1.0000
  Gd  Gd4       1.0  0.43702539801597595  0.30148303508758545  0.035856932401657104  1.0000
  Ru  Ru1       1.0  0.1708660572767258  0.4549991190433503  0.12187761068344116  1.0000
  S   S1        1.0  0.9064119458198547  0.30619266629219055  0.701677143573761  1.0000
  S   S2        1.0  0.46011483669281006  0.8187541365623475  0.3746517300605774  1.0000
  U   U1        1.0  0.9554443955421448  0.7994120717048646  0.9110041260719299  1.0000
  U   U2        1.0  0.3955373167991638  0.4669083654880524  0.7600918412208557  1.0000
