data_image0
_chemical_formula_structural       O3SSbSi7Sm
_chemical_formula_sum              "O3 S1 Sb1 Si7 Sm1"
_cell_length_a       5.4805479059389475
_cell_length_b       7.139354772977651
_cell_length_c       7.268178939819336
_cell_angle_alpha    74.25711859019559
_cell_angle_beta     69.25352057464012
_cell_angle_gamma    69.69443932356599

_space_group_name_H-M_alt    "P 1"
_space_group_IT_number       1

loop_
  _space_group_symop_operation_xyz
  'x, y, z'

loop_
  _atom_site_type_symbol
  _atom_site_label
  _atom_site_symmetry_multiplicity
  _atom_site_fract_x
  _atom_site_fract_y
  _atom_site_fract_z
  _atom_site_occupancy
  O   O1        1.0  0.19935834407806396  0.14773809909820557  0.4683929979801178  1.0000
  O   O2        1.0  0.5160014033317566  0.2859201431274414  0.9951461553573608  1.0000
  O   O3        1.0  0.0005817413330078125  0.6038629412651062  0.7252118587493896  1.0000
  S   S1        1.0  0.8386886119842529  0.7986722588539124  0.44708624482154846  1.0000
  Sb  Sb1       1.0  0.4733056128025055  0.2892097234725952  0.8053319454193115  1.0000
  Si  Si1       1.0  0.8512765765190125  0.6063098907470703  0.3286040425300598  1.0000
  Si  Si2       1.0  0.31298816204071045  0.05741554126143456  0.8214351534843445  1.0000
  Si  Si3       1.0  0.5311548113822937  0.6234180331230164  0.23093841969966888  1.0000
  Si  Si4       1.0  0.9907920360565186  0.3018978238105774  0.907671332359314  1.0000
  Si  Si5       1.0  0.7588980197906494  0.29473087191581726  0.15753431618213654  1.0000
  Si  Si6       1.0  0.26591038703918457  0.774957001209259  0.1498841494321823  1.0000
  Si  Si7       1.0  0.2864220440387726  0.017213385552167892  0.6101504564285278  1.0000
  Sm  Sm1       1.0  0.2772221863269806  0.01246004831045866  0.7841528654098511  1.0000
