data_image0
_chemical_formula_structural       O4SSi5Sr2Ti
_chemical_formula_sum              "O4 S1 Si5 Sr2 Ti1"
_cell_length_a       6.715416482821981
_cell_length_b       6.618097607359954
_cell_length_c       6.57636833190918
_cell_angle_alpha    109.35910992488554
_cell_angle_beta     109.35109082821371
_cell_angle_gamma    110.90683027025821

_space_group_name_H-M_alt    "P 1"
_space_group_IT_number       1

loop_
  _space_group_symop_operation_xyz
  'x, y, z'

loop_
  _atom_site_type_symbol
  _atom_site_label
  _atom_site_symmetry_multiplicity
  _atom_site_fract_x
  _atom_site_fract_y
  _atom_site_fract_z
  _atom_site_occupancy
  O   O1        1.0  0.6342999339103699  0.9996112585067749  0.3711489737033844  1.0000
  O   O2        1.0  0.028788058087229732  0.6448923349380493  0.7526886463165283  1.0000
  O   O3        1.0  0.3514377176761628  0.4364762008190155  0.9581400752067566  1.0000
  O   O4        1.0  0.3828933238983155  0.510686993598938  0.5681620240211487  1.0000
  S   S1        1.0  0.7464013099670411  0.11254863440990448  0.09649514406919484  1.0000
  Si  Si1       1.0  0.062459085136652  0.6458760499954224  0.2795829176902771  1.0000
  Si  Si2       1.0  0.5367036461830139  0.6391074657440186  0.8621582984924316  1.0000
  Si  Si3       1.0  0.22095833718776706  0.781268298625946  0.1089944988489151  1.0000
  Si  Si4       1.0  0.05530530586838723  0.12682098150253296  0.6058333516120911  1.0000
  Si  Si5       1.0  0.731105923652649  0.5311426520347595  0.58756422996521  1.0000
  Sr  Sr1       1.0  0.7660534977912904  0.1579333245754242  0.1983851045370102  1.0000
  Sr  Sr2       1.0  0.1728029698133469  0.9532033801078796  0.24492870271205902  1.0000
  Ti  Ti1       1.0  0.029935466125607494  0.16610543429851532  0.46037814021110535  1.0000
