data_image0
_chemical_formula_structural       OSi7Sr5
_chemical_formula_sum              "O1 Si7 Sr5"
_cell_length_a       5.141921957772477
_cell_length_b       6.379070875696508
_cell_length_c       6.384409427642822
_cell_angle_alpha    119.55457242040868
_cell_angle_beta     91.8460913082206
_cell_angle_gamma    89.99381692356451

_space_group_name_H-M_alt    "P 1"
_space_group_IT_number       1

loop_
  _space_group_symop_operation_xyz
  'x, y, z'

loop_
  _atom_site_type_symbol
  _atom_site_label
  _atom_site_symmetry_multiplicity
  _atom_site_fract_x
  _atom_site_fract_y
  _atom_site_fract_z
  _atom_site_occupancy
  O   O1        1.0  0.2904699444770813  0.3767405152320862  0.3636874258518219  1.0000
  Si  Si1       1.0  0.7467734217643738  0.8694742918014526  0.28294634819030756  1.0000
  Si  Si2       1.0  0.7552136778831482  0.7501752376556396  0.2795408368110656  1.0000
  Si  Si3       1.0  0.4965174794197083  0.11968627572059631  0.31211939454078674  1.0000
  Si  Si4       1.0  0.24185034632682803  0.7321749925613403  0.7998720407485962  1.0000
  Si  Si5       1.0  0.08775348216295242  0.4335044026374817  0.26280245184898376  1.0000
  Si  Si6       1.0  0.7293700575828552  0.7110885977745056  0.46213141083717346  1.0000
  Si  Si7       1.0  0.2406027764081955  0.7737244963645935  0.24002777040004725  1.0000
  Sr  Sr1       1.0  0.6022268533706665  0.47111400961875916  0.6355096101760864  1.0000
  Sr  Sr2       1.0  0.2175247073173523  0.7080568075180054  0.426546961069107  1.0000
  Sr  Sr3       1.0  0.24323163926601413  0.7237654328346252  0.9057766795158385  1.0000
  Sr  Sr4       1.0  0.7762236595153809  0.743341863155365  0.2627644836902618  1.0000
  Sr  Sr5       1.0  0.2922588884830475  0.20968495309352875  0.5080118179321289  1.0000
