data_image0
_chemical_formula_structural       O4SbSi6SmSr
_chemical_formula_sum              "O4 Sb1 Si6 Sm1 Sr1"
_cell_length_a       5.9309386124765835
_cell_length_b       6.602468750477935
_cell_length_c       6.711103439331055
_cell_angle_alpha    68.19202176214559
_cell_angle_beta     65.30369117368663
_cell_angle_gamma    65.86359491158795

_space_group_name_H-M_alt    "P 1"
_space_group_IT_number       1

loop_
  _space_group_symop_operation_xyz
  'x, y, z'

loop_
  _atom_site_type_symbol
  _atom_site_label
  _atom_site_symmetry_multiplicity
  _atom_site_fract_x
  _atom_site_fract_y
  _atom_site_fract_z
  _atom_site_occupancy
  O   O1        1.0  0.8994641304016113  0.6112009286880493  0.8472193479537964  1.0000
  O   O2        1.0  0.39540353417396545  0.5422605276107788  0.2703207731246948  1.0000
  O   O3        1.0  0.12294145673513412  0.13021515309810638  0.7680239677429199  1.0000
  O   O4        1.0  0.6316777467727661  0.9290740489959717  0.9029504060745239  1.0000
  Sb  Sb1       1.0  0.8560195565223694  0.32706642150878906  0.8506799340248108  1.0000
  Si  Si1       1.0  0.7377480268478394  0.12160464376211166  0.28348979353904724  1.0000
  Si  Si2       1.0  0.8652337193489075  0.8247981071472168  0.14067445695400238  1.0000
  Si  Si3       1.0  0.7893559336662292  0.14090070128440857  0.2749967575073242  1.0000
  Si  Si4       1.0  0.9121527671813965  0.11083649098873138  0.6190839409828186  1.0000
  Si  Si5       1.0  0.3815307319164276  0.1252850741147995  0.5192990303039551  1.0000
  Si  Si6       1.0  0.15353529155254364  0.6506544947624207  0.11459273099899292  1.0000
  Sm  Sm1       1.0  0.29195520281791687  0.8308802843093872  0.812018096446991  1.0000
  Sr  Sr1       1.0  0.5957491397857666  0.8374660015106201  0.6018091440200806  1.0000
