data_image0
_chemical_formula_structural       O3SSi9
_chemical_formula_sum              "O3 S1 Si9"
_cell_length_a       5.485483104718264
_cell_length_b       6.784306523672913
_cell_length_c       6.792186260223389
_cell_angle_alpha    70.22822877778914
_cell_angle_beta     67.15313373428903
_cell_angle_gamma    66.79232452544477

_space_group_name_H-M_alt    "P 1"
_space_group_IT_number       1

loop_
  _space_group_symop_operation_xyz
  'x, y, z'

loop_
  _atom_site_type_symbol
  _atom_site_label
  _atom_site_symmetry_multiplicity
  _atom_site_fract_x
  _atom_site_fract_y
  _atom_site_fract_z
  _atom_site_occupancy
  O   O1        1.0  0.9859803318977356  0.3927839994430542  0.47523930668830866  1.0000
  O   O2        1.0  0.3535846471786499  0.0010871689300984144  0.6530176997184753  1.0000
  O   O3        1.0  0.7143653035163879  0.8031677603721619  0.46573233604431147  1.0000
  S   S1        1.0  0.012674379162490368  0.47947660088539124  0.4946515858173371  1.0000
  Si  Si1       1.0  0.22334474325180054  0.791431725025177  0.2731632888317108  1.0000
  Si  Si2       1.0  0.34492412209510803  0.9710304737091064  0.9072833657264708  1.0000
  Si  Si3       1.0  0.8482567071914673  0.010320845991373062  0.789064347743988  1.0000
  Si  Si4       1.0  0.8408374190330505  0.5609951615333557  0.9220466017723082  1.0000
  Si  Si5       1.0  0.34545716643333435  0.36916249990463257  0.7795753479003906  1.0000
  Si  Si6       1.0  0.5198562145233154  0.3846697509288788  0.28353065252304077  1.0000
  Si  Si7       1.0  0.24199622869491577  0.6962946653366089  0.7904878258705139  1.0000
  Si  Si8       1.0  0.9741179347038269  0.030022358521819115  0.8034897446632384  1.0000
  Si  Si9       1.0  0.8416624665260315  0.2657338082790375  0.8089105486869811  1.0000
