data_image0
_chemical_formula_structural       GeOSi6Sr4Zr
_chemical_formula_sum              "Ge1 O1 Si6 Sr4 Zr1"
_cell_length_a       6.0022692166071945
_cell_length_b       6.704594917376088
_cell_length_c       6.477993011474609
_cell_angle_alpha    107.83572482366438
_cell_angle_beta     97.05121752440911
_cell_angle_gamma    111.99134924901061

_space_group_name_H-M_alt    "P 1"
_space_group_IT_number       1

loop_
  _space_group_symop_operation_xyz
  'x, y, z'

loop_
  _atom_site_type_symbol
  _atom_site_label
  _atom_site_symmetry_multiplicity
  _atom_site_fract_x
  _atom_site_fract_y
  _atom_site_fract_z
  _atom_site_occupancy
  Ge  Ge1       1.0  0.5214225053787231  0.09960182011127472  0.047355327755212784  1.0000
  O   O1        1.0  0.7744783759117126  0.06944998353719711  0.4559805393218994  1.0000
  Si  Si1       1.0  0.520624041557312  0.7088482975959778  0.09223658591508865  1.0000
  Si  Si2       1.0  0.7818540930747986  0.831226646900177  0.3509248197078705  1.0000
  Si  Si3       1.0  0.025095483288168907  0.4697759449481964  0.0945537760853767  1.0000
  Si  Si4       1.0  0.7980360388755798  0.09530051052570343  0.5519448518753052  1.0000
  Si  Si5       1.0  0.2815116345882416  0.12093821913003922  0.2906813323497772  1.0000
  Si  Si6       1.0  0.48119270801544195  0.2662977874279022  0.9108072519302368  1.0000
  Sr  Sr1       1.0  0.30139920115470886  0.7428580522537231  0.4493267834186554  1.0000
  Sr  Sr2       1.0  0.7416188716888428  0.37738746404647827  0.7131451964378357  1.0000
  Sr  Sr3       1.0  0.8308927416801453  0.7553941011428833  0.931625247001648  1.0000
  Sr  Sr4       1.0  0.26273268461227417  0.26004478335380554  0.5581911206245422  1.0000
  Zr  Zr1       1.0  0.2780511975288391  0.5971223711967468  0.6922034621238708  1.0000
