data_image0
_chemical_formula_structural       Ce2CoI2MgSi2Tb2U
_chemical_formula_sum              "Ce2 Co1 I2 Mg1 Si2 Tb2 U1"
_cell_length_a       5.320687603260668
_cell_length_b       7.620606738366572
_cell_length_c       8.102279663085938
_cell_angle_alpha    90.56559300155108
_cell_angle_beta     91.46927723581958
_cell_angle_gamma    92.73536141224378

_space_group_name_H-M_alt    "P 1"
_space_group_IT_number       1

loop_
  _space_group_symop_operation_xyz
  'x, y, z'

loop_
  _atom_site_type_symbol
  _atom_site_label
  _atom_site_symmetry_multiplicity
  _atom_site_fract_x
  _atom_site_fract_y
  _atom_site_fract_z
  _atom_site_occupancy
  Ce  Ce1       1.0  0.3138939440250397  0.1425764411687851  0.5543546080589294  1.0000
  Ce  Ce2       1.0  0.3056583106517792  0.4080734848976136  0.23202219605445862  1.0000
  Co  Co1       1.0  0.29928261041641235  0.5214429497718811  0.2838674485683441  1.0000
  I   I1        1.0  0.3353881239891052  0.17021220922470096  0.9131866097450256  1.0000
  I   I2        1.0  0.8106548190116882  0.9301939606666566  0.522688627243042  1.0000
  Mg  Mg1       1.0  0.8131293654441833  0.6653366684913636  0.600147545337677  1.0000
  Si  Si1       1.0  0.8206875324249268  0.06797270476818085  0.32476574182510376  1.0000
  Si  Si2       1.0  0.3071903884410858  0.8725695610046388  0.6464003324508667  1.0000
  Tb  Tb1       1.0  0.8119356632232666  0.9637170433998109  0.651342511177063  1.0000
  Tb  Tb2       1.0  0.3150242567062378  0.7672816514968873  0.11686531454324722  1.0000
  U   U1        1.0  0.2958461046218872  0.9674091935157777  0.8007338643074036  1.0000
