data_image0
_chemical_formula_structural       Ce5MgMnSeSiTb2
_chemical_formula_sum              "Ce5 Mg1 Mn1 Se1 Si1 Tb2"
_cell_length_a       6.9129823986062755
_cell_length_b       6.865794920076418
_cell_length_c       8.154654502868652
_cell_angle_alpha    65.99398249986956
_cell_angle_beta     67.19685850538673
_cell_angle_gamma    60.900027700448426

_space_group_name_H-M_alt    "P 1"
_space_group_IT_number       1

loop_
  _space_group_symop_operation_xyz
  'x, y, z'

loop_
  _atom_site_type_symbol
  _atom_site_label
  _atom_site_symmetry_multiplicity
  _atom_site_fract_x
  _atom_site_fract_y
  _atom_site_fract_z
  _atom_site_occupancy
  Ce  Ce1       1.0  0.09330026060342789  0.08251576870679855  0.8686180710792542  1.0000
  Ce  Ce2       1.0  0.7599993944168091  0.5124011039733887  0.08691292256116867  1.0000
  Ce  Ce3       1.0  0.07817262411117554  0.39488670229911804  0.9277293086051941  1.0000
  Ce  Ce4       1.0  0.7226204872131348  0.13837388157844543  0.5651793479919434  1.0000
  Ce  Ce5       1.0  0.6041176915168762  0.9051408767700195  0.5445380806922913  1.0000
  Mg  Mg1       1.0  0.7340539693832397  0.3958137333393097  0.7121362090110779  1.0000
  Mn  Mn1       1.0  0.32782307267189026  0.1140272468328476  0.19261786341667175  1.0000
  Se  Se1       1.0  0.23616257309913635  0.6108495593070984  0.3613346815109253  1.0000
  Si  Si1       1.0  0.4814782738685608  0.7080425024032593  0.40795719623565674  1.0000
  Tb  Tb1       1.0  0.6022672653198242  0.43361344933509827  0.7543825507164001  1.0000
  Tb  Tb2       1.0  0.08835538476705551  0.5589754581451416  0.6023154258728027  1.0000
