data_image0
_chemical_formula_structural       Ce4Mn5Si2
_chemical_formula_sum              "Ce4 Mn5 Si2"
_cell_length_a       5.83865120379713
_cell_length_b       5.939957007785096
_cell_length_c       7.568558692932129
_cell_angle_alpha    102.51020601286504
_cell_angle_beta     90.39232459845658
_cell_angle_gamma    102.60688632833909

_space_group_name_H-M_alt    "P 1"
_space_group_IT_number       1

loop_
  _space_group_symop_operation_xyz
  'x, y, z'

loop_
  _atom_site_type_symbol
  _atom_site_label
  _atom_site_symmetry_multiplicity
  _atom_site_fract_x
  _atom_site_fract_y
  _atom_site_fract_z
  _atom_site_occupancy
  Ce  Ce1       1.0  0.6923623085021973  0.008800619281828403  0.8888724446296693  1.0000
  Ce  Ce2       1.0  0.7087257504463196  0.5511919856071472  0.25570371747016907  1.0000
  Ce  Ce3       1.0  0.18757817149162292  0.03364389389753342  0.28417879343032837  1.0000
  Ce  Ce4       1.0  0.2002810835838318  0.1110214814543724  0.6144409179687501  1.0000
  Mn  Mn1       1.0  0.6977335214614868  0.12923158705234528  0.15354724228382113  1.0000
  Mn  Mn2       1.0  0.1891791969537735  0.025887208059430122  0.3344917297363282  1.0000
  Mn  Mn3       1.0  0.701204776763916  0.43188905715942383  0.05593411251902581  1.0000
  Mn  Mn4       1.0  0.19348134100437164  0.9617758393287659  0.42735946178436285  1.0000
  Mn  Mn5       1.0  0.2029101550579071  0.531097412109375  0.6646820306777955  1.0000
  Si  Si1       1.0  0.6927595138549805  0.19347906112670898  0.9847006797790528  1.0000
  Si  Si2       1.0  0.2174759805202484  0.4910218417644501  0.7315499782562257  1.0000
