data_image0
_chemical_formula_structural       CeGdMg2Mn6Os
_chemical_formula_sum              "Ce1 Gd1 Mg2 Mn6 Os1"
_cell_length_a       5.264506865958092
_cell_length_b       5.337660505107801
_cell_length_c       5.284250259399414
_cell_angle_alpha    72.01090781597023
_cell_angle_beta     74.39408652385623
_cell_angle_gamma    74.01538620908246

_space_group_name_H-M_alt    "P 1"
_space_group_IT_number       1

loop_
  _space_group_symop_operation_xyz
  'x, y, z'

loop_
  _atom_site_type_symbol
  _atom_site_label
  _atom_site_symmetry_multiplicity
  _atom_site_fract_x
  _atom_site_fract_y
  _atom_site_fract_z
  _atom_site_occupancy
  Ce  Ce1       1.0  0.4310443699359894  0.9293431043624878  0.05066419392824173  1.0000
  Gd  Gd1       1.0  0.024527356028556824  0.8637016415596008  0.5984991192817688  1.0000
  Mg  Mg1       1.0  0.46872395277023315  0.21971826255321503  0.948722243309021  1.0000
  Mg  Mg2       1.0  0.4301087260246277  0.2202899158000946  0.4720214307308197  1.0000
  Mn  Mn1       1.0  0.6689874529838562  0.05183763802051544  0.7974266409873962  1.0000
  Mn  Mn2       1.0  0.654914140701294  0.6760409474372864  0.5367404818534851  1.0000
  Mn  Mn3       1.0  0.11252698302268982  0.3742404580116272  0.8044573664665222  1.0000
  Mn  Mn4       1.0  0.9490445852279663  0.12311971187591553  0.4953474998474121  1.0000
  Mn  Mn5       1.0  0.6802954077720642  0.18414069712162018  0.5242078900337219  1.0000
  Mn  Mn6       1.0  0.6808233857154846  0.8930537104606628  0.868200421333313  1.0000
  Os  Os1       1.0  0.42665404081344604  0.9474273920059204  0.8602083325386047  1.0000
