data_image0
_chemical_formula_structural       Ce4Mn3MoSi3
_chemical_formula_sum              "Ce4 Mn3 Mo1 Si3"
_cell_length_a       5.4952807602396865
_cell_length_b       5.413716032650159
_cell_length_c       8.825654029846191
_cell_angle_alpha    92.22534864829893
_cell_angle_beta     90.40998392238515
_cell_angle_gamma    123.27439240716431

_space_group_name_H-M_alt    "P 1"
_space_group_IT_number       1

loop_
  _space_group_symop_operation_xyz
  'x, y, z'

loop_
  _atom_site_type_symbol
  _atom_site_label
  _atom_site_symmetry_multiplicity
  _atom_site_fract_x
  _atom_site_fract_y
  _atom_site_fract_z
  _atom_site_occupancy
  Ce  Ce1       1.0  0.34474143385887146  0.3406426012516022  0.3172176778316498  1.0000
  Ce  Ce2       1.0  0.3418540358543396  0.061227042227983475  0.29938074946403503  1.0000
  Ce  Ce3       1.0  0.8395153880119324  0.28561851382255554  0.801002562046051  1.0000
  Ce  Ce4       1.0  0.5823105573654175  0.9197643995285034  0.19674208760261536  1.0000
  Mn  Mn1       1.0  0.5213615894317627  0.90376877784729  0.5736860036849976  1.0000
  Mn  Mn2       1.0  0.8260000348091125  0.2057306170463562  0.6971068382263184  1.0000
  Mn  Mn3       1.0  0.3626357316970825  0.17974704504013062  0.7604833245277405  1.0000
  Mo  Mo1       1.0  0.8345164656639099  0.46934741735458374  0.36962324380874634  1.0000
  Si  Si1       1.0  0.025020966306328773  0.33078908920288086  0.5836683511734009  1.0000
  Si  Si2       1.0  0.03650251403450966  0.14818599820137024  0.9941367506980896  1.0000
  Si  Si3       1.0  0.35385802388191223  0.16571004688739777  0.8446234464645386  1.0000
