data_image0
_chemical_formula_structural       Ce4FMgMn3SiZr
_chemical_formula_sum              "Ce4 F1 Mg1 Mn3 Si1 Zr1"
_cell_length_a       5.874859796785869
_cell_length_b       5.811558530647411
_cell_length_c       7.2130656242370605
_cell_angle_alpha    88.82596622341916
_cell_angle_beta     88.9325900046889
_cell_angle_gamma    89.89758537197052

_space_group_name_H-M_alt    "P 1"
_space_group_IT_number       1

loop_
  _space_group_symop_operation_xyz
  'x, y, z'

loop_
  _atom_site_type_symbol
  _atom_site_label
  _atom_site_symmetry_multiplicity
  _atom_site_fract_x
  _atom_site_fract_y
  _atom_site_fract_z
  _atom_site_occupancy
  Ce  Ce1       1.0  0.05278206244111061  0.8423828482627869  0.6861830949783325  1.0000
  Ce  Ce2       1.0  0.1241530328989029  0.37286412715911865  0.6553587913513184  1.0000
  Ce  Ce3       1.0  0.5478842854499817  0.25838419795036316  0.08483560383319855  1.0000
  Ce  Ce4       1.0  0.7089743614196777  0.8486407399177551  0.31417903304100037  1.0000
  F   F1        1.0  0.6960282325744629  0.7406798005104065  0.8348257541656494  1.0000
  Mg  Mg1       1.0  0.5410336256027222  0.38017213344573975  0.28514134883880615  1.0000
  Mn  Mn1       1.0  0.18360069394111633  0.00304400990717113  0.8231703639030457  1.0000
  Mn  Mn2       1.0  0.4798329770565033  0.5337796807289124  0.97817063331604  1.0000
  Mn  Mn3       1.0  0.09959341585636139  0.6403726935386658  0.887582004070282  1.0000
  Si  Si1       1.0  0.6639547348022461  0.19463346898555756  0.2759875953197479  1.0000
  Zr  Zr1       1.0  0.7114042639732361  0.06759600341320038  0.4161689579486847  1.0000
