data_image0
_chemical_formula_structural       As4HIInLa2P2
_chemical_formula_sum              "As4 H1 I1 In1 La2 P2"
_cell_length_a       4.6975202921650085
_cell_length_b       7.220698353528277
_cell_length_c       8.271885871887207
_cell_angle_alpha    116.43411365496843
_cell_angle_beta     90.17523656846835
_cell_angle_gamma    96.58864461362505

_space_group_name_H-M_alt    "P 1"
_space_group_IT_number       1

loop_
  _space_group_symop_operation_xyz
  'x, y, z'

loop_
  _atom_site_type_symbol
  _atom_site_label
  _atom_site_symmetry_multiplicity
  _atom_site_fract_x
  _atom_site_fract_y
  _atom_site_fract_z
  _atom_site_occupancy
  As  As1       1.0  0.4414363503456116  0.39958080649375916  0.9456533789634705  1.0000
  As  As2       1.0  0.440348356962204  0.0805029645562172  0.3393516540527344  1.0000
  As  As3       1.0  0.43778538703918457  0.2654785215854645  0.47379630804061884  1.0000
  As  As4       1.0  0.9455850720405579  0.36805692315101624  0.10252923518419263  1.0000
  H   H1        1.0  0.442816823720932  0.2831086218357086  0.21125906705856323  1.0000
  I   I1        1.0  0.44257938861846924  0.16927674412727356  0.05033068731427191  1.0000
  In  In1       1.0  0.017545942217111588  0.3211098313331604  0.595772385597229  1.0000
  La  La1       1.0  0.9395402669906616  0.33390599489212036  0.8168202638626099  1.0000
  La  La2       1.0  0.9401984214782715  0.27282705903053284  0.5851256847381592  1.0000
  P   P1        1.0  0.937456488609314  0.5435490012168884  0.39825984835624695  1.0000
  P   P2        1.0  0.4519179165363312  0.40531906485557556  0.5951496362686157  1.0000
