data_image0
_chemical_formula_structural       As5HINiP2Zn
_chemical_formula_sum              "As5 H1 I1 Ni1 P2 Zn1"
_cell_length_a       5.0444208668582355
_cell_length_b       4.595240027661284
_cell_length_c       6.220407009124756
_cell_angle_alpha    132.27418911601512
_cell_angle_beta     112.40136492811426
_cell_angle_gamma    92.9362931527796

_space_group_name_H-M_alt    "P 1"
_space_group_IT_number       1

loop_
  _space_group_symop_operation_xyz
  'x, y, z'

loop_
  _atom_site_type_symbol
  _atom_site_label
  _atom_site_symmetry_multiplicity
  _atom_site_fract_x
  _atom_site_fract_y
  _atom_site_fract_z
  _atom_site_occupancy
  As  As1       1.0  0.11558209359645844  0.9493239521980286  0.3039624094963073  1.0000
  As  As2       1.0  0.6339591741561889  0.7521817088127134  0.9973711967468261  1.0000
  As  As3       1.0  0.5461280941963196  0.5782471299171448  0.6165041327476501  1.0000
  As  As4       1.0  0.09611402451992035  0.5899686813354492  0.05292452126741407  1.0000
  As  As5       1.0  0.2792174816131592  0.025208139792084697  0.2581557631492615  1.0000
  H   H1        1.0  0.6613669395446776  0.766089618206024  0.7987517118453978  1.0000
  I   I1        1.0  0.7620078921318053  0.7412518858909605  0.8160635828971862  1.0000
  Ni  Ni1       1.0  0.7411682605743408  0.6203386187553405  0.4802418649196625  1.0000
  P   P1        1.0  0.28449061512947094  0.02227088995277906  0.7940559387207032  1.0000
  P   P2        1.0  0.6423036456108092  0.6031507253646848  0.661688208580017  1.0000
  Zn  Zn1       1.0  0.2916683256626129  0.09424034506082538  0.5416475534439087  1.0000
