data_image0
_chemical_formula_structural       As5INi3PZn
_chemical_formula_sum              "As5 I1 Ni3 P1 Zn1"
_cell_length_a       5.300815132041616
_cell_length_b       6.285306865190143
_cell_length_c       8.311555862426758
_cell_angle_alpha    115.25829975007491
_cell_angle_beta     91.48350206304744
_cell_angle_gamma    103.18742707167243

_space_group_name_H-M_alt    "P 1"
_space_group_IT_number       1

loop_
  _space_group_symop_operation_xyz
  'x, y, z'

loop_
  _atom_site_type_symbol
  _atom_site_label
  _atom_site_symmetry_multiplicity
  _atom_site_fract_x
  _atom_site_fract_y
  _atom_site_fract_z
  _atom_site_occupancy
  As  As1       1.0  0.9110671281814576  0.3027011752128601  0.8707807660102844  1.0000
  As  As2       1.0  0.40709277987480164  0.9199110269546509  0.6782292127609253  1.0000
  As  As3       1.0  0.4307535588741303  0.6217812895774841  0.9682695865631104  1.0000
  As  As4       1.0  0.8498586416244508  0.007120983675122261  0.3157341778278351  1.0000
  As  As5       1.0  0.4191273450851441  0.3684549927711487  0.7192151546478271  1.0000
  I   I1        1.0  0.9177446365356446  0.11262355744838715  0.6278046369552612  1.0000
  Ni  Ni1       1.0  0.9153143167495729  0.5086740255355835  0.6530053019523621  1.0000
  Ni  Ni2       1.0  0.28522413969039917  0.37565428018569946  0.06547365337610248  1.0000
  Ni  Ni3       1.0  0.24880397319793704  0.9362291097640991  0.033664166927337695  1.0000
  P   P1        1.0  0.2953803241252899  0.3135004937648773  0.21240147948265076  1.0000
  Zn  Zn1       1.0  0.9093920588493348  0.20380516350269318  0.31614911556243896  1.0000
