data_image0
_chemical_formula_structural       As8La3
_chemical_formula_sum              "As8 La3"
_cell_length_a       5.865457900881512
_cell_length_b       5.562374439022525
_cell_length_c       6.416281700134277
_cell_angle_alpha    117.87931907440368
_cell_angle_beta     111.89125766725373
_cell_angle_gamma    90.24354793897565

_space_group_name_H-M_alt    "P 1"
_space_group_IT_number       1

loop_
  _space_group_symop_operation_xyz
  'x, y, z'

loop_
  _atom_site_type_symbol
  _atom_site_label
  _atom_site_symmetry_multiplicity
  _atom_site_fract_x
  _atom_site_fract_y
  _atom_site_fract_z
  _atom_site_occupancy
  As  As1       1.0  0.24222424626350406  0.444836974143982  0.17498230934143066  1.0000
  As  As2       1.0  0.7487940192222595  0.9689336419105531  0.19452247023582458  1.0000
  As  As3       1.0  0.24706788361072543  0.5432465076446533  0.2028711587190628  1.0000
  As  As4       1.0  0.7434648871421814  0.5184643864631653  0.9820662140846252  1.0000
  As  As5       1.0  0.21301537752151492  0.7901109457015991  0.7859552502632141  1.0000
  As  As6       1.0  0.2327903062105179  0.33503642678260803  0.27161142230033875  1.0000
  As  As7       1.0  0.7397263646125793  0.05591973289847375  0.9997107982635498  1.0000
  As  As8       1.0  0.24919687211513522  0.3429449796676636  0.16395382583141327  1.0000
  La  La1       1.0  0.2460518926382065  0.011723698116838932  0.5950197577476501  1.0000
  La  La2       1.0  0.7375299334526062  0.6164051294326782  0.43270817399024963  1.0000
  La  La3       1.0  0.7459649443626404  0.01713631860911846  0.934008002281189  1.0000
