data_image0
_chemical_formula_structural       As4CoGaLa2LiNiP
_chemical_formula_sum              "As4 Co1 Ga1 La2 Li1 Ni1 P1"
_cell_length_a       5.322450162579673
_cell_length_b       6.608963813964001
_cell_length_c       7.707527160644531
_cell_angle_alpha    113.12862865409627
_cell_angle_beta     114.2073354583682
_cell_angle_gamma    90.38707233377954

_space_group_name_H-M_alt    "P 1"
_space_group_IT_number       1

loop_
  _space_group_symop_operation_xyz
  'x, y, z'

loop_
  _atom_site_type_symbol
  _atom_site_label
  _atom_site_symmetry_multiplicity
  _atom_site_fract_x
  _atom_site_fract_y
  _atom_site_fract_z
  _atom_site_occupancy
  As  As1       1.0  0.9014479517936707  0.5827214121818542  0.4525415897369385  1.0000
  As  As2       1.0  0.3986959159374237  0.9863108992576599  0.8087360858917236  1.0000
  As  As3       1.0  0.3991604149341583  0.011479830369353294  0.8478137254714966  1.0000
  As  As4       1.0  0.3956791162490845  0.0070739793591201305  0.2169375717639923  1.0000
  Co  Co1       1.0  0.8988423347473145  0.2905341684818268  0.2730361819267273  1.0000
  Ga  Ga1       1.0  0.40419843792915344  0.3993600308895111  0.01763998530805114  1.0000
  La  La1       1.0  0.8829396367073059  0.6308874487876892  0.7594441175460815  1.0000
  La  La2       1.0  0.4000253677368164  0.7321252226829529  0.8642852306365967  1.0000
  Li  Li1       1.0  0.5536175966262817  0.5618671178817749  0.250727117061615  1.0000
  Ni  Ni1       1.0  0.9126775860786438  0.9290823936462402  0.24313004314899445  1.0000
  P   P1        1.0  0.3924596309661865  0.2899804711341858  0.4403916299343109  1.0000
