data_image0
_chemical_formula_structural       As9LaNi
_chemical_formula_sum              "As9 La1 Ni1"
_cell_length_a       5.9363495356442995
_cell_length_b       4.957305658492206
_cell_length_c       5.261610984802246
_cell_angle_alpha    143.32359808950466
_cell_angle_beta     126.16255398364572
_cell_angle_gamma    90.36446201399517

_space_group_name_H-M_alt    "P 1"
_space_group_IT_number       1

loop_
  _space_group_symop_operation_xyz
  'x, y, z'

loop_
  _atom_site_type_symbol
  _atom_site_label
  _atom_site_symmetry_multiplicity
  _atom_site_fract_x
  _atom_site_fract_y
  _atom_site_fract_z
  _atom_site_occupancy
  As  As1       1.0  0.33100250363349915  0.6768890023231506  0.3325247168540953  1.0000
  As  As2       1.0  0.5998459458351135  0.37227758765220637  0.6393674015998839  1.0000
  As  As3       1.0  0.240657091140747  0.969058871269226  0.41467896103858926  1.0000
  As  As4       1.0  0.852695882320404  0.27003827691078186  0.8160266876220703  1.0000
  As  As5       1.0  0.22490400075912476  0.7932526469230652  0.971914768218994  1.0000
  As  As6       1.0  0.7864739894866942  0.2615725994110106  0.8181950449943541  1.0000
  As  As7       1.0  0.3870008885860443  0.5652954578399658  0.1603703945875167  1.0000
  As  As8       1.0  0.9953570365905762  0.47208881378173817  0.8455416560173034  1.0000
  As  As9       1.0  0.9240750074386597  0.36356052756309504  0.6842098236083983  1.0000
  La  La1       1.0  0.8692402839660645  0.8217854499816892  0.6535468101501463  1.0000
  Ni  Ni1       1.0  0.25342509150505055  0.9478502273559569  0.20716178417205797  1.0000
