data_image0
_chemical_formula_structural       GaGe2IPbV4
_chemical_formula_sum              "Ga1 Ge2 I1 Pb1 V4"
_cell_length_a       4.547767742516788
_cell_length_b       4.977533734845464
_cell_length_c       6.979501724243164
_cell_angle_alpha    87.99564924662837
_cell_angle_beta     90.27294252229834
_cell_angle_gamma    95.42103477961679

_space_group_name_H-M_alt    "P 1"
_space_group_IT_number       1

loop_
  _space_group_symop_operation_xyz
  'x, y, z'

loop_
  _atom_site_type_symbol
  _atom_site_label
  _atom_site_symmetry_multiplicity
  _atom_site_fract_x
  _atom_site_fract_y
  _atom_site_fract_z
  _atom_site_occupancy
  Ga  Ga1       1.0  0.5167631506919861  0.3731417655944824  0.23825271427631384  1.0000
  Ge  Ge1       1.0  0.5068531036376953  0.7568730115890503  0.578395664691925  1.0000
  Ge  Ge2       1.0  0.479317843914032  0.22365309298038483  0.42435318231582647  1.0000
  I   I1        1.0  0.8191820383071899  0.3152020275592804  0.9602236151695253  1.0000
  Pb  Pb1       1.0  0.4185102581977844  0.22736889123916626  0.5545505285263062  1.0000
  V   V1        1.0  0.7315565943717957  0.32606905698776245  0.3769695162773133  1.0000
  V   V2        1.0  0.0013653039932250977  0.43944239616394043  0.5570720434188843  1.0000
  V   V3        1.0  0.3507393002510071  0.12273678183555603  0.23070719838142398  1.0000
  V   V4        1.0  0.015227967873215675  0.5658254623413086  0.2001306861639023  1.0000
