data_image0
_chemical_formula_structural       FI2IrV5
_chemical_formula_sum              "F1 I2 Ir1 V5"
_cell_length_a       5.571103168206464
_cell_length_b       5.438447536013128
_cell_length_c       5.941926002502441
_cell_angle_alpha    108.83421645311327
_cell_angle_beta     104.15080632213703
_cell_angle_gamma    107.8539272723337

_space_group_name_H-M_alt    "P 1"
_space_group_IT_number       1

loop_
  _space_group_symop_operation_xyz
  'x, y, z'

loop_
  _atom_site_type_symbol
  _atom_site_label
  _atom_site_symmetry_multiplicity
  _atom_site_fract_x
  _atom_site_fract_y
  _atom_site_fract_z
  _atom_site_occupancy
  F   F1        1.0  0.038354840129613876  0.9350508451461792  0.8958576917648314  1.0000
  I   I1        1.0  0.415565013885498  0.24938498437404633  0.47990468144416804  1.0000
  I   I2        1.0  0.9243333339691161  0.3313131630420685  0.6415832042694092  1.0000
  Ir  Ir1       1.0  0.9360892772674559  0.508668065071106  0.029937475919723507  1.0000
  V   V1        1.0  0.42715981602668757  0.09955916553735733  0.859490394592285  1.0000
  V   V2        1.0  0.42014634609222407  0.9696322083473206  0.47053402662277216  1.0000
  V   V3        1.0  0.9479007720947265  0.8911726474761963  0.1978381425142288  1.0000
  V   V4        1.0  0.732082188129425  0.624226450920105  0.45623132586479176  1.0000
  V   V5        1.0  0.42881697416305536  0.7458041906356812  0.9766585826873778  1.0000
