data_image0
_chemical_formula_structural       GeHHo2PtSiTiZr2
_chemical_formula_sum              "Ge1 H1 Ho2 Pt1 Si1 Ti1 Zr2"
_cell_length_a       5.1238002141955485
_cell_length_b       6.061220521825571
_cell_length_c       6.716304302215576
_cell_angle_alpha    74.56363521730084
_cell_angle_beta     68.40350596822297
_cell_angle_gamma    64.39837981396553

_space_group_name_H-M_alt    "P 1"
_space_group_IT_number       1

loop_
  _space_group_symop_operation_xyz
  'x, y, z'

loop_
  _atom_site_type_symbol
  _atom_site_label
  _atom_site_symmetry_multiplicity
  _atom_site_fract_x
  _atom_site_fract_y
  _atom_site_fract_z
  _atom_site_occupancy
  Ge  Ge1       1.0  0.398030549287796  0.7901917099952698  0.9524004459381104  1.0000
  H   H1        1.0  0.9013907313346863  0.7757865786552429  0.29075711965560913  1.0000
  Ho  Ho1       1.0  0.39723730087280273  0.7222075462341309  0.5945898294448853  1.0000
  Ho  Ho2       1.0  0.8895940780639648  0.13380113244056702  0.9567030668258667  1.0000
  Pt  Pt1       1.0  0.886520504951477  0.25659945607185364  0.9162717461585999  1.0000
  Si  Si1       1.0  0.40539535880088806  0.6372556686401367  0.2184818685054779  1.0000
  Ti  Ti1       1.0  0.8943942785263062  0.7941596508026123  0.3613130748271942  1.0000
  Zr  Zr1       1.0  0.9036989212036133  0.12535063922405243  0.7842183113098145  1.0000
  Zr  Zr2       1.0  0.39116600155830383  0.12912783026695251  0.8540075421333313  1.0000
