data_image0
_chemical_formula_structural       Ge2HSi2Zr4
_chemical_formula_sum              "Ge2 H1 Si2 Zr4"
_cell_length_a       5.209806440663733
_cell_length_b       5.107499856024085
_cell_length_c       7.850770473480225
_cell_angle_alpha    100.42619528163398
_cell_angle_beta     96.48811432471656
_cell_angle_gamma    89.57673436818084

_space_group_name_H-M_alt    "P 1"
_space_group_IT_number       1

loop_
  _space_group_symop_operation_xyz
  'x, y, z'

loop_
  _atom_site_type_symbol
  _atom_site_label
  _atom_site_symmetry_multiplicity
  _atom_site_fract_x
  _atom_site_fract_y
  _atom_site_fract_z
  _atom_site_occupancy
  Ge  Ge1       1.0  0.5648482441902161  0.6435987949371338  0.9268675446510315  1.0000
  Ge  Ge2       1.0  0.9664120078086853  0.4093976616859436  0.4651949107646942  1.0000
  H   H1        1.0  0.05736790597438812  0.7646281123161316  0.6343852877616882  1.0000
  Si  Si1       1.0  0.551297128200531  0.06779000908136368  0.007111812941730022  1.0000
  Si  Si2       1.0  0.05873839557170868  0.0976480171084404  0.5676348209381104  1.0000
  Zr  Zr1       1.0  0.062760129570961  0.38736310601234436  0.026308553293347352  1.0000
  Zr  Zr2       1.0  0.2714480757713318  0.3238137662410736  0.9126799702644348  1.0000
  Zr  Zr3       1.0  0.578704297542572  0.12374933063983917  0.06458548456430435  1.0000
  Zr  Zr4       1.0  0.5666996240615845  0.877061665058136  0.05918058380484578  1.0000
