data_image0
_chemical_formula_structural       Ho5Si4
_chemical_formula_sum              "Ho5 Si4"
_cell_length_a       5.553101311881979
_cell_length_b       5.57571448538211
_cell_length_c       7.085532188415527
_cell_angle_alpha    90.88109186703535
_cell_angle_beta     89.9554369193845
_cell_angle_gamma    89.98986630185644

_space_group_name_H-M_alt    "P 1"
_space_group_IT_number       1

loop_
  _space_group_symop_operation_xyz
  'x, y, z'

loop_
  _atom_site_type_symbol
  _atom_site_label
  _atom_site_symmetry_multiplicity
  _atom_site_fract_x
  _atom_site_fract_y
  _atom_site_fract_z
  _atom_site_occupancy
  Ho  Ho1       1.0  0.8934155106544495  0.23315821588039398  0.5574201345443726  1.0000
  Ho  Ho2       1.0  0.39870572090148926  0.7356152534484863  0.9099836945533754  1.0000
  Ho  Ho3       1.0  0.3963034749031067  0.9859197735786438  0.9801779985427858  1.0000
  Ho  Ho4       1.0  0.8930291533470154  0.22656843066215515  0.13000273704528809  1.0000
  Ho  Ho5       1.0  0.10344923287630081  0.7554073929786682  0.11099964380264284  1.0000
  Si  Si1       1.0  0.39763957262039185  0.043151870369911194  0.4875922799110413  1.0000
  Si  Si2       1.0  0.8930380940437317  0.7458816766738892  0.08070684969425201  1.0000
  Si  Si3       1.0  0.8947067260742188  0.49964651465415955  0.6039783358573914  1.0000
  Si  Si4       1.0  0.39868736267089844  0.9019970297813416  0.5632719993591309  1.0000
