data_image0
_chemical_formula_structural       Ge2HHoOSbSi2Tb
_chemical_formula_sum              "Ge2 H1 Ho1 O1 Sb1 Si2 Tb1"
_cell_length_a       4.33303471337449
_cell_length_b       5.372620935651022
_cell_length_c       6.870283126831055
_cell_angle_alpha    120.49895164115301
_cell_angle_beta     89.81490883968576
_cell_angle_gamma    98.69990081703305

_space_group_name_H-M_alt    "P 1"
_space_group_IT_number       1

loop_
  _space_group_symop_operation_xyz
  'x, y, z'

loop_
  _atom_site_type_symbol
  _atom_site_label
  _atom_site_symmetry_multiplicity
  _atom_site_fract_x
  _atom_site_fract_y
  _atom_site_fract_z
  _atom_site_occupancy
  Ge  Ge1       1.0  0.28876742720603943  0.8378525972366333  0.6491773724555969  1.0000
  Ge  Ge2       1.0  0.29708898067474365  0.585597574710846  0.2096763104200363  1.0000
  H   H1        1.0  0.7978174090385437  0.32200300693511963  0.15096250176429749  1.0000
  Ho  Ho1       1.0  0.2933911681175232  0.7595012187957764  0.2992382049560547  1.0000
  O   O1        1.0  0.881179928779602  0.20474964380264282  0.6537465453147888  1.0000
  Sb  Sb1       1.0  0.7997824549674988  0.5575788617134094  0.21565917134284976  1.0000
  Si  Si1       1.0  0.78299880027771  0.48438698053359985  0.2125105112791062  1.0000
  Si  Si2       1.0  0.30004727840423584  0.9205197095870972  0.517116129398346  1.0000
  Tb  Tb1       1.0  0.8018413782119751  0.49994054436683655  0.5791864395141602  1.0000
