data_image0
_chemical_formula_structural       Br2O2U3
_chemical_formula_sum              "Br2 O2 U3"
_cell_length_a       5.0705666130167835
_cell_length_b       4.722227793802441
_cell_length_c       8.946968078613281
_cell_angle_alpha    100.46235084859063
_cell_angle_beta     91.60018810916868
_cell_angle_gamma    117.44083044442026

_space_group_name_H-M_alt    "P 1"
_space_group_IT_number       1

loop_
  _space_group_symop_operation_xyz
  'x, y, z'

loop_
  _atom_site_type_symbol
  _atom_site_label
  _atom_site_symmetry_multiplicity
  _atom_site_fract_x
  _atom_site_fract_y
  _atom_site_fract_z
  _atom_site_occupancy
  Br  Br1       1.0  0.5592771768569946  0.34222447872161865  0.017344238236546516  1.0000
  Br  Br2       1.0  0.26156553626060486  0.2158668041229248  0.8434823751449585  1.0000
  O   O1        1.0  0.7256597280502319  0.022987015545368195  0.463565856218338  1.0000
  O   O2        1.0  0.2544046938419342  0.5276817679405212  0.5538824200630187  1.0000
  U   U1        1.0  0.08427425473928452  0.8505868911743164  0.5748347640037537  1.0000
  U   U2        1.0  0.8864534497261047  0.20063333213329315  0.11027121543884277  1.0000
  U   U3        1.0  0.9637253284454346  0.701623797416687  0.09385888278484344  1.0000
