data_image0
_chemical_formula_structural       BrOU5
_chemical_formula_sum              "Br1 O1 U5"
_cell_length_a       5.369590231334674
_cell_length_b       5.251202796266177
_cell_length_c       8.794038772583008
_cell_angle_alpha    102.806212090199
_cell_angle_beta     91.13820580900536
_cell_angle_gamma    110.20878249699672

_space_group_name_H-M_alt    "P 1"
_space_group_IT_number       1

loop_
  _space_group_symop_operation_xyz
  'x, y, z'

loop_
  _atom_site_type_symbol
  _atom_site_label
  _atom_site_symmetry_multiplicity
  _atom_site_fract_x
  _atom_site_fract_y
  _atom_site_fract_z
  _atom_site_occupancy
  Br  Br1       1.0  0.9881998300552368  0.597154438495636  0.49659040570259094  1.0000
  O   O1        1.0  0.9850874543190002  0.8746758699417114  0.28183409571647644  1.0000
  U   U1        1.0  0.4911506772041321  0.7468172311782837  0.5007671117782593  1.0000
  U   U2        1.0  0.4634646773338318  0.10507329553365707  0.9847196936607361  1.0000
  U   U3        1.0  0.980348527431488  0.11239927262067795  0.9887796640396118  1.0000
  U   U4        1.0  0.21908527612686157  0.39206063747406006  0.6697223782539368  1.0000
  U   U5        1.0  0.9381182193756104  0.4473591446876526  0.27625176310539246  1.0000
