data_image0
_chemical_formula_structural       F2Ge3H2InNa2PdPt2U3VZn
_chemical_formula_sum              "F2 Ge3 H2 In1 Na2 Pd1 Pt2 U3 V1 Zn1"
_cell_length_a       6.831399661548202
_cell_length_b       8.3725352630238
_cell_length_c       8.649407386779785
_cell_angle_alpha    124.92176103419202
_cell_angle_beta     90.08141366123104
_cell_angle_gamma    89.23228742780738

_space_group_name_H-M_alt    "P 1"
_space_group_IT_number       1

loop_
  _space_group_symop_operation_xyz
  'x, y, z'

loop_
  _atom_site_type_symbol
  _atom_site_label
  _atom_site_symmetry_multiplicity
  _atom_site_fract_x
  _atom_site_fract_y
  _atom_site_fract_z
  _atom_site_occupancy
  F   F1        1.0  0.07229776680469513  0.9879708886146545  0.3221767544746399  1.0000
  F   F2        1.0  0.8280109763145447  0.034373149275779724  0.2373047024011612  1.0000
  Ge  Ge1       1.0  0.8373773694038391  0.6357352137565613  0.07544252276420593  1.0000
  Ge  Ge2       1.0  0.07261735945940018  0.3721511662006378  0.44237402081489563  1.0000
  Ge  Ge3       1.0  0.07168246805667877  0.9019613862037659  0.8992592096328736  1.0000
  H   H1        1.0  0.09127289056777954  0.8568212389945984  0.43483060598373424  1.0000
  H   H2        1.0  0.07533351331949234  0.6559190154075623  0.1241685226559639  1.0000
  In  In1       1.0  0.5701529383659363  0.4103326201438904  0.3006473481655121  1.0000
  Na  Na1       1.0  0.07638369500637054  0.4818270206451416  0.10386314243078232  1.0000
  Na  Na2       1.0  0.5747871398925782  0.9729847311973572  0.06040608510375033  1.0000
  Pd  Pd1       1.0  0.07169318199157715  0.40187764167785645  0.6928256750106812  1.0000
  Pt  Pt1       1.0  0.5721662044525146  0.7258999347686768  0.08190151304006577  1.0000
  Pt  Pt2       1.0  0.5711478590965271  0.1323363333940506  0.38010868430137634  1.0000
  U   U1        1.0  0.07212217897176743  0.8679310083389282  0.705377161502838  1.0000
  U   U2        1.0  0.5712687969207764  0.21330222487449646  0.9320201277732849  1.0000
  U   U3        1.0  0.573741614818573  0.5262676477432251  0.24093963205814367  1.0000
  V   V1        1.0  0.07375393807888031  0.19291017949581146  0.269820898771286  1.0000
  Zn  Zn1       1.0  0.5713751912117004  0.6834550499916077  0.4851652979850769  1.0000
