data_image0
_chemical_formula_structural       F3GaGe2HIOSi2ThU3Zn2Zr
_chemical_formula_sum              "F3 Ga1 Ge2 H1 I1 O1 Si2 Th1 U3 Zn2 Zr1"
_cell_length_a       5.865448194452986
_cell_length_b       8.39328025703334
_cell_length_c       8.634095191955566
_cell_angle_alpha    123.05637024367181
_cell_angle_beta     89.24801770883944
_cell_angle_gamma    89.50467554165034

_space_group_name_H-M_alt    "P 1"
_space_group_IT_number       1

loop_
  _space_group_symop_operation_xyz
  'x, y, z'

loop_
  _atom_site_type_symbol
  _atom_site_label
  _atom_site_symmetry_multiplicity
  _atom_site_fract_x
  _atom_site_fract_y
  _atom_site_fract_z
  _atom_site_occupancy
  F   F1        1.0  0.8340483903884889  0.5266492962837219  0.9151396155357361  1.0000
  F   F2        1.0  0.33365216851234436  0.31943827867507935  0.15763390064239502  1.0000
  F   F3        1.0  0.33336442708969116  0.8525481820106506  0.45160797238349915  1.0000
  Ga  Ga1       1.0  0.8311581015586854  0.45918092131614685  0.04109126329421997  1.0000
  Ge  Ge1       1.0  0.33037519454956055  0.24947324395179749  0.5522164106369019  1.0000
  Ge  Ge2       1.0  0.32958343625068665  0.016980214044451714  0.032186754047870636  1.0000
  H   H1        1.0  0.3350357115268707  0.7344766855239868  0.24316608905792236  1.0000
  I   I1        1.0  0.32984647154808044  0.5659071207046509  0.6499946713447571  1.0000
  O   O1        1.0  0.838838815689087  0.5608967542648315  0.2204650640487671  1.0000
  Si  Si1       1.0  0.32759997248649597  0.7590926289558411  0.7558264136314392  1.0000
  Si  Si2       1.0  0.33398905396461487  0.26455870270729065  0.20052291452884677  1.0000
  Th  Th1       1.0  0.33234232664108276  0.5674901008605957  0.4203384816646576  1.0000
  U   U1        1.0  0.8337891697883607  0.2684890329837799  0.1726224571466446  1.0000
  U   U2        1.0  0.3307313024997711  0.1581929475069046  0.015671124681830406  1.0000
  U   U3        1.0  0.3312375545501709  0.6338046789169312  0.5002536177635193  1.0000
  Zn  Zn1       1.0  0.8310587406158448  0.05856747180223465  0.3319004774093628  1.0000
  Zn  Zn2       1.0  0.8304668664932252  0.8166800737380981  0.4272903800010681  1.0000
  Zr  Zr1       1.0  0.8326345682144166  0.07268772274255753  0.14338013529777527  1.0000
