data_image0
_chemical_formula_structural       Ca3F5GaNaPt2Si3VZr2
_chemical_formula_sum              "Ca3 F5 Ga1 Na1 Pt2 Si3 V1 Zr2"
_cell_length_a       7.274248308391602
_cell_length_b       7.282390711469875
_cell_length_c       8.584816932678223
_cell_angle_alpha    77.61697323112085
_cell_angle_beta     64.42504947136612
_cell_angle_gamma    62.35858093781526

_space_group_name_H-M_alt    "P 1"
_space_group_IT_number       1

loop_
  _space_group_symop_operation_xyz
  'x, y, z'

loop_
  _atom_site_type_symbol
  _atom_site_label
  _atom_site_symmetry_multiplicity
  _atom_site_fract_x
  _atom_site_fract_y
  _atom_site_fract_z
  _atom_site_occupancy
  Ca  Ca1       1.0  0.2002630978822708  0.23439745604991916  0.2768470048904419  1.0000
  Ca  Ca2       1.0  0.20071676373481745  0.7401437759399415  0.13478533923625946  1.0000
  Ca  Ca3       1.0  0.6989206075668335  0.7436945438385011  0.9383532404899597  1.0000
  F   F1        1.0  0.4291507005691528  0.9770671129226686  0.9495919346809387  1.0000
  F   F2        1.0  0.6693735122680664  0.28266802430152893  0.7100172638893127  1.0000
  F   F3        1.0  0.364467054605484  0.21695320308208468  0.6199594736099243  1.0000
  F   F4        1.0  0.6712170839309692  0.7393268942832948  0.814160168170929  1.0000
  F   F5        1.0  0.011190694756805888  0.0892297849059105  0.7001056671142578  1.0000
  Ga  Ga1       1.0  0.6944398880004883  0.19076962769031527  0.10789135098457331  1.0000
  Na  Na1       1.0  0.9197496771812439  0.9577540159225465  0.12456823140382757  1.0000
  Pt  Pt1       1.0  0.8028796911239624  0.5105559229850769  0.7861454486846924  1.0000
  Pt  Pt2       1.0  0.751636266708374  0.3991868197917939  0.19542846083641052  1.0000
  Si  Si1       1.0  0.9330893158912659  0.19204951822757724  0.6607359051704407  1.0000
  Si  Si2       1.0  0.224477156996727  0.5184628367424011  0.3668844997882843  1.0000
  Si  Si3       1.0  0.8706189393997192  0.8338541984558107  0.5456598997116089  1.0000
  V   V1        1.0  0.5347601175308226  0.9473882317543031  0.7654774188995361  1.0000
  Zr  Zr1       1.0  0.9855528473854065  0.08247154951095581  0.6738281846046448  1.0000
  Zr  Zr2       1.0  0.5406457185745239  0.44719004631042486  0.4680369794368744  1.0000
