data_image0
_chemical_formula_structural       BCdF2Ge3Na3O3Si5
_chemical_formula_sum              "B1 Cd1 F2 Ge3 Na3 O3 Si5"
_cell_length_a       6.881307441006509
_cell_length_b       6.907103243489162
_cell_length_c       7.106586456298828
_cell_angle_alpha    67.2618254071747
_cell_angle_beta     62.31375309151126
_cell_angle_gamma    62.36608434995778

_space_group_name_H-M_alt    "P 1"
_space_group_IT_number       1

loop_
  _space_group_symop_operation_xyz
  'x, y, z'

loop_
  _atom_site_type_symbol
  _atom_site_label
  _atom_site_symmetry_multiplicity
  _atom_site_fract_x
  _atom_site_fract_y
  _atom_site_fract_z
  _atom_site_occupancy
  B   B1        1.0  0.6442950963973999  0.8697966337203978  0.9339163899421691  1.0000
  Cd  Cd1       1.0  0.5271505117416382  0.8117703795433043  0.15944118797779083  1.0000
  F   F1        1.0  0.5320439338684082  0.785358428955078  0.29013070464134216  1.0000
  F   F2        1.0  0.10541657358407978  0.763936161994934  0.3937900066375732  1.0000
  Ge  Ge1       1.0  0.22917994856834412  0.3444767892360687  0.1417863517999649  1.0000
  Ge  Ge2       1.0  0.9271817207336426  0.4644824266433715  0.07353071868419647  1.0000
  Ge  Ge3       1.0  0.7731727957725525  0.0028522028587758537  0.6664461493492125  1.0000
  Na  Na1       1.0  0.5271489024162292  0.08768002688884735  0.17315879464149472  1.0000
  Na  Na2       1.0  0.7918630242347717  0.8465398550033568  0.6919084191322326  1.0000
  Na  Na3       1.0  0.11440713703632359  0.7382553815841674  0.3836506307125091  1.0000
  O   O1        1.0  0.5086843371391296  0.4743617475032806  0.4907552301883697  1.0000
  O   O2        1.0  0.016714273020625135  0.433482140302658  0.8400307297706603  1.0000
  O   O3        1.0  0.28637996315956116  0.19202604889869687  0.3722617328166961  1.0000
  Si  Si1       1.0  0.5631878972053528  0.37578010559082026  0.007742200046777724  1.0000
  Si  Si2       1.0  0.8281254172325134  0.4115797579288482  0.9583946466445922  1.0000
  Si  Si3       1.0  0.061230178922414856  0.9490864276885985  0.11364211887121199  1.0000
  Si  Si4       1.0  0.2566012740135194  0.9477260708808898  0.07204987853765488  1.0000
  Si  Si5       1.0  0.3954887688159944  0.9193238019943236  0.10215505212545394  1.0000
