data_image0
_chemical_formula_structural       Ca3Dy2EuF4GeLaOPPtSi3
_chemical_formula_sum              "Ca3 Dy2 Eu1 F4 Ge1 La1 O1 P1 Pt1 Si3"
_cell_length_a       7.1725190078723315
_cell_length_b       7.281258799442224
_cell_length_c       8.42291259765625
_cell_angle_alpha    74.79978412960149
_cell_angle_beta     65.73195531097689
_cell_angle_gamma    62.451270956247164

_space_group_name_H-M_alt    "P 1"
_space_group_IT_number       1

loop_
  _space_group_symop_operation_xyz
  'x, y, z'

loop_
  _atom_site_type_symbol
  _atom_site_label
  _atom_site_symmetry_multiplicity
  _atom_site_fract_x
  _atom_site_fract_y
  _atom_site_fract_z
  _atom_site_occupancy
  Ca  Ca1       1.0  0.11923623085021973  0.10194218158721925  0.451634019613266  1.0000
  Ca  Ca2       1.0  0.6220948100090027  0.9643216133117677  0.4228382110595703  1.0000
  Ca  Ca3       1.0  0.12394564598798752  0.5008885860443115  0.02674276940524578  1.0000
  Dy  Dy1       1.0  0.8594200611114502  0.41368833184242254  0.12116586416959763  1.0000
  Dy  Dy2       1.0  0.6157459020614624  0.1442849040031433  0.3335246741771698  1.0000
  Eu  Eu1       1.0  0.1475242972373962  0.4931847453117371  0.16241392493247986  1.0000
  F   F1        1.0  0.5969094038009642  0.9131999015808107  0.9939637184143066  1.0000
  F   F2        1.0  0.6097317934036255  0.035496633499860764  0.3198649585247039  1.0000
  F   F3        1.0  0.4371410310268402  0.6474348306655884  0.6846301555633545  1.0000
  F   F4        1.0  0.28447425365448  0.1631433516740799  0.7980057001113892  1.0000
  Ge  Ge1       1.0  0.5773519873619078  0.7554436922073365  0.13644233345985413  1.0000
  La  La1       1.0  0.1254255175590515  0.6328453421592712  0.3629331886768341  1.0000
  O   O1        1.0  0.6385003328323364  0.13445112109184265  0.9952647089958191  1.0000
  P   P1        1.0  0.14884118735790244  0.9518514871597291  0.5815976858139038  1.0000
  Pt  Pt1       1.0  0.38970643281936646  0.20390006899833682  0.42403507232666016  1.0000
  Si  Si1       1.0  0.6330685019493103  0.043995842337608344  0.9198471307754517  1.0000
  Si  Si2       1.0  0.6272776126861572  0.4495703577995301  0.5132532715797424  1.0000
  Si  Si3       1.0  0.6242085695266724  0.7900814414024354  0.7811263799667358  1.0000
