data_image0
_chemical_formula_structural       FNa5O6Si6
_chemical_formula_sum              "F1 Na5 O6 Si6"
_cell_length_a       6.359938990547678
_cell_length_b       6.621736848869506
_cell_length_c       6.821998596191406
_cell_angle_alpha    71.79806079118067
_cell_angle_beta     66.47666507779881
_cell_angle_gamma    67.96556806979959

_space_group_name_H-M_alt    "P 1"
_space_group_IT_number       1

loop_
  _space_group_symop_operation_xyz
  'x, y, z'

loop_
  _atom_site_type_symbol
  _atom_site_label
  _atom_site_symmetry_multiplicity
  _atom_site_fract_x
  _atom_site_fract_y
  _atom_site_fract_z
  _atom_site_occupancy
  F   F1        1.0  0.8690127730369569  0.326433390378952  0.11113256961107253  1.0000
  Na  Na1       1.0  0.7401612401008607  0.21888509392738342  0.7568615674972534  1.0000
  Na  Na2       1.0  0.7369179725646974  0.13825882971286774  0.9534378051757811  1.0000
  Na  Na3       1.0  0.0987413674592972  0.8663368821144104  0.15529672801494598  1.0000
  Na  Na4       1.0  0.5878273248672485  0.7553048729896545  0.16028286516666412  1.0000
  Na  Na5       1.0  0.08586755394935608  0.8407900333404541  0.6371510624885559  1.0000
  O   O1        1.0  0.3791494965553284  0.812078595161438  0.4461585879325866  1.0000
  O   O2        1.0  0.659115195274353  0.9252644181251526  0.2854374945163727  1.0000
  O   O3        1.0  0.7099132537841797  0.6465989947319031  0.5965656042098999  1.0000
  O   O4        1.0  0.4564796090126038  0.013123271986842155  0.47036296129226673  1.0000
  O   O5        1.0  0.1709858477115631  0.9291664958000183  0.8801727294921874  1.0000
  O   O6        1.0  0.7549805641174318  0.38594290614128113  0.03532610461115837  1.0000
  Si  Si1       1.0  0.5878018736839294  0.3207298815250397  0.7845101952552795  1.0000
  Si  Si2       1.0  0.6503182649612427  0.41995686292648315  0.2528912425041199  1.0000
  Si  Si3       1.0  0.5784853100776672  0.8789214491844177  0.3233332633972168  1.0000
  Si  Si4       1.0  0.13719059526920319  0.6482279300689697  0.08569760620594025  1.0000
  Si  Si5       1.0  0.6337976455688477  0.7418570518493652  0.22180877625942227  1.0000
  Si  Si6       1.0  0.10435724258422853  0.038427479565143585  0.6165812015533447  1.0000
