data_image0
_chemical_formula_structural       ErGaO6SiTi
_chemical_formula_sum              "Er1 Ga1 O6 Si1 Ti1"
_cell_length_a       4.9018681557876995
_cell_length_b       5.351384416253911
_cell_length_c       6.155054092407227
_cell_angle_alpha    116.51216733821647
_cell_angle_beta     112.91063304523749
_cell_angle_gamma    91.73770681214941

_space_group_name_H-M_alt    "P 1"
_space_group_IT_number       1

loop_
  _space_group_symop_operation_xyz
  'x, y, z'

loop_
  _atom_site_type_symbol
  _atom_site_label
  _atom_site_symmetry_multiplicity
  _atom_site_fract_x
  _atom_site_fract_y
  _atom_site_fract_z
  _atom_site_occupancy
  Er  Er1       1.0  0.30535006523132324  0.3990010619163513  0.16046924889087677  1.0000
  Ga  Ga1       1.0  0.2770785689353943  0.878576397895813  0.6438549160957336  1.0000
  O   O1        1.0  0.5054982900619507  0.5285466909408569  0.3084518313407898  1.0000
  O   O2        1.0  0.7081358432769775  0.5225861072540283  0.9721620082855225  1.0000
  O   O3        1.0  0.8234813809394836  0.14485642313957214  0.6520459651947021  1.0000
  O   O4        1.0  0.32512515783309937  0.013953332789242268  0.8941071629524231  1.0000
  O   O5        1.0  0.15861627459526062  0.1829976886510849  0.2288711667060852  1.0000
  O   O6        1.0  0.39238181710243225  0.8492022752761841  0.6352741122245787  1.0000
  Si  Si1       1.0  0.651100754737854  0.19698789715766907  0.951150119304657  1.0000
  Ti  Ti1       1.0  0.9703092575073242  0.5413191914558411  0.8434903621673584  1.0000
