data_image0
_chemical_formula_structural       Er2O6Ti2
_chemical_formula_sum              "Er2 O6 Ti2"
_cell_length_a       5.011798981534179
_cell_length_b       6.477217507808109
_cell_length_c       5.913628578186035
_cell_angle_alpha    120.44380897793211
_cell_angle_beta     87.50543143996437
_cell_angle_gamma    91.0576386787464

_space_group_name_H-M_alt    "P 1"
_space_group_IT_number       1

loop_
  _space_group_symop_operation_xyz
  'x, y, z'

loop_
  _atom_site_type_symbol
  _atom_site_label
  _atom_site_symmetry_multiplicity
  _atom_site_fract_x
  _atom_site_fract_y
  _atom_site_fract_z
  _atom_site_occupancy
  Er  Er1       1.0  0.056125689297914505  0.8801323771476746  0.7092157006263733  1.0000
  Er  Er2       1.0  0.05549490451812744  0.49572569131851196  0.20581242442131037  1.0000
  O   O1        1.0  0.032626356929540634  0.25081393122673035  0.7174455523490906  1.0000
  O   O2        1.0  0.05216115713119507  0.6236410140991211  0.5746996998786926  1.0000
  O   O3        1.0  0.652755856513977  0.6215990781784058  0.22155620157718656  1.0000
  O   O4        1.0  0.31443628668785095  0.290615439414978  0.049551270902156816  1.0000
  O   O5        1.0  0.5776844024658203  0.48397770524024963  0.3641278147697449  1.0000
  O   O6        1.0  0.17375361919403076  0.7995468974113464  0.2612715065479278  1.0000
  Ti  Ti1       1.0  0.5499306321144104  0.4962197244167328  0.7172005772590637  1.0000
  Ti  Ti2       1.0  0.5655991435050964  0.8818688988685608  0.04642252251505845  1.0000
