data_image0
_chemical_formula_structural       Er3O5SeSi
_chemical_formula_sum              "Er3 O5 Se1 Si1"
_cell_length_a       5.320790546837278
_cell_length_b       6.35752805206941
_cell_length_c       6.31176233291626
_cell_angle_alpha    120.14358173872225
_cell_angle_beta     88.8808660058696
_cell_angle_gamma    90.81151620230786

_space_group_name_H-M_alt    "P 1"
_space_group_IT_number       1

loop_
  _space_group_symop_operation_xyz
  'x, y, z'

loop_
  _atom_site_type_symbol
  _atom_site_label
  _atom_site_symmetry_multiplicity
  _atom_site_fract_x
  _atom_site_fract_y
  _atom_site_fract_z
  _atom_site_occupancy
  Er  Er1       1.0  0.7522384524345398  0.8716214299201965  0.1604164391756057  1.0000
  Er  Er2       1.0  0.2548600733280182  0.17925018072128296  0.04802080616354942  1.0000
  Er  Er3       1.0  0.74500572681427  0.42920345067977905  0.9752894639968871  1.0000
  O   O1        1.0  0.5588632822036743  0.2222454696893692  0.34879669547080994  1.0000
  O   O2        1.0  0.6764993071556091  0.7069653272628784  0.25347888469696034  1.0000
  O   O3        1.0  0.09729766100645065  0.22213967144489288  0.2522161602973938  1.0000
  O   O4        1.0  0.12562698125839233  0.6447814702987671  0.6804313063621521  1.0000
  O   O5        1.0  0.11430274695158005  0.10717891901731491  0.004255994223058224  1.0000
  Se  Se1       1.0  0.4869815409183502  0.205473855137825  0.24701610207557675  1.0000
  Si  Si1       1.0  0.16760998964309692  0.5900306701660156  0.7811712622642517  1.0000
