data_image0
_chemical_formula_structural       ErO8Re
_chemical_formula_sum              "Er1 O8 Re1"
_cell_length_a       5.249697482926604
_cell_length_b       5.239322764004374
_cell_length_c       5.181540012359619
_cell_angle_alpha    122.08961049938792
_cell_angle_beta     108.73530035236563
_cell_angle_gamma    89.1420049814831

_space_group_name_H-M_alt    "P 1"
_space_group_IT_number       1

loop_
  _space_group_symop_operation_xyz
  'x, y, z'

loop_
  _atom_site_type_symbol
  _atom_site_label
  _atom_site_symmetry_multiplicity
  _atom_site_fract_x
  _atom_site_fract_y
  _atom_site_fract_z
  _atom_site_occupancy
  Er  Er1       1.0  0.6431493163108826  0.0667300596833229  0.3428555428981781  1.0000
  O   O1        1.0  0.4250108003616333  0.19318538904190063  0.6672101616859436  1.0000
  O   O2        1.0  0.07587382942438126  0.28590667247772217  0.9708346128463745  1.0000
  O   O3        1.0  0.6495104432106018  0.31929895281791687  0.5583513975143433  1.0000
  O   O4        1.0  0.40727144479751587  0.6630133390426636  0.3810092806816101  1.0000
  O   O5        1.0  0.9223167896270752  0.8232360482215881  0.738000214099884  1.0000
  O   O6        1.0  0.42274418473243713  0.7709941864013672  0.7175372242927551  1.0000
  O   O7        1.0  0.9346601963043213  0.1564573347568512  0.050125956535339355  1.0000
  O   O8        1.0  0.41896650195121765  0.8143333196640015  0.0605122335255146  1.0000
  Re  Re1       1.0  0.6673791408538818  0.7855290770530701  0.6085453033447266  1.0000
