data_image0
_chemical_formula_structural       ErO5Re4
_chemical_formula_sum              "Er1 O5 Re4"
_cell_length_a       5.066777192269535
_cell_length_b       5.012449114679867
_cell_length_c       5.183565139770508
_cell_angle_alpha    100.74995777051504
_cell_angle_beta     100.45483681372964
_cell_angle_gamma    104.07522551869904

_space_group_name_H-M_alt    "P 1"
_space_group_IT_number       1

loop_
  _space_group_symop_operation_xyz
  'x, y, z'

loop_
  _atom_site_type_symbol
  _atom_site_label
  _atom_site_symmetry_multiplicity
  _atom_site_fract_x
  _atom_site_fract_y
  _atom_site_fract_z
  _atom_site_occupancy
  Er  Er1       1.0  0.956508219242096  0.013047197833657265  0.9460271596908569  1.0000
  O   O1        1.0  0.04396067559719086  0.7561171650886536  0.2532086968421936  1.0000
  O   O2        1.0  0.3505191206932068  0.30166447162628174  0.8656695485115051  1.0000
  O   O3        1.0  0.4753919243812561  0.9416334629058838  0.4535679221153259  1.0000
  O   O4        1.0  0.2824374735355377  0.4480011463165283  0.05250758677721026  1.0000
  O   O5        1.0  0.8422114253044128  0.7845711708068848  0.30178651213645935  1.0000
  Re  Re1       1.0  0.013553268276154995  0.23573468625545502  0.6150370836257935  1.0000
  Re  Re2       1.0  0.01762872189283371  0.10840769857168198  0.33886146545410156  1.0000
  Re  Re3       1.0  0.6821979880332947  0.2515617609024048  0.7989439368247986  1.0000
  Re  Re4       1.0  0.527143657207489  0.5945321917533875  0.39973679184913635  1.0000
