data_image0
_chemical_formula_structural       ErGaO5PSiTi
_chemical_formula_sum              "Er1 Ga1 O5 P1 Si1 Ti1"
_cell_length_a       4.619486920759095
_cell_length_b       5.896060160983018
_cell_length_c       5.5299601554870605
_cell_angle_alpha    108.79814403177683
_cell_angle_beta     96.10092166179749
_cell_angle_gamma    111.04547654317048

_space_group_name_H-M_alt    "P 1"
_space_group_IT_number       1

loop_
  _space_group_symop_operation_xyz
  'x, y, z'

loop_
  _atom_site_type_symbol
  _atom_site_label
  _atom_site_symmetry_multiplicity
  _atom_site_fract_x
  _atom_site_fract_y
  _atom_site_fract_z
  _atom_site_occupancy
  Er  Er1       1.0  0.4235345423221588  0.585983395576477  0.3078573942184448  1.0000
  Ga  Ga1       1.0  0.9840860366821289  0.48834162950515747  0.04785321652889252  1.0000
  O   O1        1.0  0.05871829017996788  0.7409178018569946  0.2689746022224426  1.0000
  O   O2        1.0  0.39989209175109863  0.44871973991394043  0.7424771189689636  1.0000
  O   O3        1.0  0.1739242523908615  0.22437608242034912  0.8939194083213806  1.0000
  O   O4        1.0  0.7339096665382385  0.29110586643218994  0.8053297400474548  1.0000
  O   O5        1.0  0.0440073236823082  0.09670552611351013  0.8664838671684265  1.0000
  P   P1        1.0  0.47339603304862976  0.9070567488670349  0.06585951149463654  1.0000
  Si  Si1       1.0  0.28714901208877563  0.8415291905403137  0.7563192248344421  1.0000
  Ti  Ti1       1.0  0.7982189655303955  0.9836931824684143  0.5434067845344543  1.0000
