data_image0
_chemical_formula_structural       AsCoCsGaSb6Ta
_chemical_formula_sum              "As1 Co1 Cs1 Ga1 Sb6 Ta1"
_cell_length_a       5.433150875900973
_cell_length_b       6.596734642712772
_cell_length_c       11.941967010498047
_cell_angle_alpha    103.40848388934259
_cell_angle_beta     89.91957269880562
_cell_angle_gamma    89.9951211448091

_space_group_name_H-M_alt    "P 1"
_space_group_IT_number       1

loop_
  _space_group_symop_operation_xyz
  'x, y, z'

loop_
  _atom_site_type_symbol
  _atom_site_label
  _atom_site_symmetry_multiplicity
  _atom_site_fract_x
  _atom_site_fract_y
  _atom_site_fract_z
  _atom_site_occupancy
  As  As1       1.0  0.5905693173408508  0.2084065079689026  0.43003731966018677  1.0000
  Co  Co1       1.0  0.0856768935918808  0.20989476144313812  0.1688195914030075  1.0000
  Cs  Cs1       1.0  0.5893821716308594  0.4801165759563446  0.6047853827476501  1.0000
  Ga  Ga1       1.0  0.2625139355659485  0.8116347193717957  0.9205893278121948  1.0000
  Sb  Sb1       1.0  0.2632397413253784  0.6831963062286377  0.6646571755409241  1.0000
  Sb  Sb2       1.0  0.10202604532241821  0.3070886433124542  0.4241771101951599  1.0000
  Sb  Sb3       1.0  0.9201840162277222  0.8184291124343872  0.6979155540466309  1.0000
  Sb  Sb4       1.0  0.24613721668720245  0.9408629536628723  0.002024377230554819  1.0000
  Sb  Sb5       1.0  0.7273046970367432  0.8085120916366577  0.9299328327178955  1.0000
  Sb  Sb6       1.0  0.9325787425041199  0.17608323693275452  0.9245994091033936  1.0000
  Ta  Ta1       1.0  0.7682014107704163  0.6831599473953247  0.4322248101234436  1.0000
