data_image0
_chemical_formula_structural       ClGaSb6Ta2Ti
_chemical_formula_sum              "Cl1 Ga1 Sb6 Ta2 Ti1"
_cell_length_a       7.024297636958272
_cell_length_b       7.888568179511643
_cell_length_c       8.903629302978516
_cell_angle_alpha    109.55181961795626
_cell_angle_beta     100.00778152808506
_cell_angle_gamma    106.9160320910419

_space_group_name_H-M_alt    "P 1"
_space_group_IT_number       1

loop_
  _space_group_symop_operation_xyz
  'x, y, z'

loop_
  _atom_site_type_symbol
  _atom_site_label
  _atom_site_symmetry_multiplicity
  _atom_site_fract_x
  _atom_site_fract_y
  _atom_site_fract_z
  _atom_site_occupancy
  Cl  Cl1       1.0  0.8374798893928528  0.1901276111602783  0.47836244106292725  1.0000
  Ga  Ga1       1.0  0.45824381709098816  0.14498242735862732  0.6541368365287781  1.0000
  Sb  Sb1       1.0  0.3117228150367737  0.4155150353908538  0.39621856808662415  1.0000
  Sb  Sb2       1.0  0.038937456905841765  0.9072324037551879  0.1607329249382019  1.0000
  Sb  Sb3       1.0  0.5487060546875  0.4208806157112121  0.32751789689064026  1.0000
  Sb  Sb4       1.0  0.5436376333236693  0.9172018170356749  0.7976465821266174  1.0000
  Sb  Sb5       1.0  0.3179565072059631  0.9132813811302184  0.3143603801727295  1.0000
  Sb  Sb6       1.0  0.8135399222373962  0.43171206116676325  0.36303654313087463  1.0000
  Ta  Ta1       1.0  0.3116872310638428  0.06284929066896439  0.4919479787349701  1.0000
  Ta  Ta2       1.0  0.32179132103919983  0.08040130138397217  0.8141863942146301  1.0000
  Ti  Ti1       1.0  0.8095543384552002  0.4230100810527801  0.064694844186306  1.0000
