data_image0
_chemical_formula_structural       As2CoCs3Sb5
_chemical_formula_sum              "As2 Co1 Cs3 Sb5"
_cell_length_a       5.797114740943756
_cell_length_b       5.929817801698123
_cell_length_c       11.497964859008789
_cell_angle_alpha    92.22084594976415
_cell_angle_beta     89.15064926493176
_cell_angle_gamma    90.87662900909437

_space_group_name_H-M_alt    "P 1"
_space_group_IT_number       1

loop_
  _space_group_symop_operation_xyz
  'x, y, z'

loop_
  _atom_site_type_symbol
  _atom_site_label
  _atom_site_symmetry_multiplicity
  _atom_site_fract_x
  _atom_site_fract_y
  _atom_site_fract_z
  _atom_site_occupancy
  As  As1       1.0  0.6289344429969788  0.1781395524740219  0.6927903294563293  1.0000
  As  As2       1.0  0.2895263135433197  0.20311185717582703  0.559037446975708  1.0000
  Co  Co1       1.0  0.01564048044383526  0.7389247417449951  0.048991408199071884  1.0000
  Cs  Cs1       1.0  0.28252363204956055  0.6038302779197693  0.2405156046152115  1.0000
  Cs  Cs2       1.0  0.7819926738739014  0.8032208681106567  0.06017915531992912  1.0000
  Cs  Cs3       1.0  0.3155759871006012  0.19464971125125885  0.9115065932273865  1.0000
  Sb  Sb1       1.0  0.8889629244804382  0.650210976600647  0.8917180895805359  1.0000
  Sb  Sb2       1.0  0.8856409192085266  0.14999152719974518  0.4009038209915161  1.0000
  Sb  Sb3       1.0  0.8545993566513062  0.15648531913757324  0.40830132365226746  1.0000
  Sb  Sb4       1.0  0.8196505904197693  0.5993903279304504  0.38718312978744507  1.0000
  Sb  Sb5       1.0  0.5452627539634705  0.677682638168335  0.729494571685791  1.0000
