data_image0
_chemical_formula_structural       As3BiCoCs2RuSb3
_chemical_formula_sum              "As3 Bi1 Co1 Cs2 Ru1 Sb3"
_cell_length_a       5.378604831019612
_cell_length_b       5.723114773065244
_cell_length_c       11.034401893615723
_cell_angle_alpha    92.65676099838934
_cell_angle_beta     89.25877689018493
_cell_angle_gamma    90.85275210719414

_space_group_name_H-M_alt    "P 1"
_space_group_IT_number       1

loop_
  _space_group_symop_operation_xyz
  'x, y, z'

loop_
  _atom_site_type_symbol
  _atom_site_label
  _atom_site_symmetry_multiplicity
  _atom_site_fract_x
  _atom_site_fract_y
  _atom_site_fract_z
  _atom_site_occupancy
  As  As1       1.0  0.8736011385917664  0.08777139335870743  0.18697021901607513  1.0000
  As  As2       1.0  0.3830164074897766  0.09686098992824554  0.19818398356437683  1.0000
  As  As3       1.0  0.1591569185256958  0.09487464278936386  0.43594393134117126  1.0000
  Bi  Bi1       1.0  0.8941245675086975  0.841342568397522  0.4883817136287689  1.0000
  Co  Co1       1.0  0.8901040554046631  0.10040704905986786  0.5093209147453308  1.0000
  Cs  Cs1       1.0  0.6312342882156372  0.3462510108947754  0.45090147852897644  1.0000
  Cs  Cs2       1.0  0.14120152592658997  0.3772583305835724  0.9361104965209961  1.0000
  Ru  Ru1       1.0  0.6183302402496338  0.09434190392494202  0.9568924903869629  1.0000
  Sb  Sb1       1.0  0.6180735230445862  0.5906429886817932  0.6902692914009094  1.0000
  Sb  Sb2       1.0  0.623357355594635  0.5967448949813843  0.9472781419754028  1.0000
  Sb  Sb3       1.0  0.12432128190994263  0.5917451977729797  0.9059489965438843  1.0000
