data_image0
_chemical_formula_structural       AlAsBa2BiClCsGaSb2Sc
_chemical_formula_sum              "Al1 As1 Ba2 Bi1 Cl1 Cs1 Ga1 Sb2 Sc1"
_cell_length_a       5.678320378033598
_cell_length_b       8.258937883975763
_cell_length_c       11.078502655029297
_cell_angle_alpha    119.75201579252258
_cell_angle_beta     89.29208276308702
_cell_angle_gamma    89.64258234774202

_space_group_name_H-M_alt    "P 1"
_space_group_IT_number       1

loop_
  _space_group_symop_operation_xyz
  'x, y, z'

loop_
  _atom_site_type_symbol
  _atom_site_label
  _atom_site_symmetry_multiplicity
  _atom_site_fract_x
  _atom_site_fract_y
  _atom_site_fract_z
  _atom_site_occupancy
  Al  Al1       1.0  0.2005171775817871  0.3923892080783844  0.6120307445526123  1.0000
  As  As1       1.0  0.002849338110536337  0.14350616931915283  0.297947496175766  1.0000
  Ba  Ba1       1.0  0.00945348758250475  0.8484131097793579  0.41053295135498047  1.0000
  Ba  Ba2       1.0  0.5139533877372742  0.6308384537696838  0.6328282952308655  1.0000
  Bi  Bi1       1.0  0.002622598549351096  0.1228540688753128  0.1161470115184784  1.0000
  Cl  Cl1       1.0  0.5024965405464172  0.20078690350055695  0.1018550768494606  1.0000
  Cs  Cs1       1.0  0.5163537859916687  0.6358836889266968  0.6148659586906433  1.0000
  Ga  Ga1       1.0  0.0025916099548339844  0.6467559933662415  0.10152024775743489  1.0000
  Sb  Sb1       1.0  0.0037585096433758736  0.1480337679386139  0.416010320186615  1.0000
  Sb  Sb2       1.0  0.49795252084732056  0.14277887344360352  0.8406493067741394  1.0000
  Sc  Sc1       1.0  0.5002744197845459  0.13754160702228546  0.05415533110499383  1.0000
