data_image0
_chemical_formula_structural       AsGa3RuSSb4Ta
_chemical_formula_sum              "As1 Ga3 Ru1 S1 Sb4 Ta1"
_cell_length_a       5.191566695055041
_cell_length_b       6.889647004517092
_cell_length_c       8.855546951293945
_cell_angle_alpha    77.35297069871135
_cell_angle_beta     74.03227809506654
_cell_angle_gamma    67.71818596581036

_space_group_name_H-M_alt    "P 1"
_space_group_IT_number       1

loop_
  _space_group_symop_operation_xyz
  'x, y, z'

loop_
  _atom_site_type_symbol
  _atom_site_label
  _atom_site_symmetry_multiplicity
  _atom_site_fract_x
  _atom_site_fract_y
  _atom_site_fract_z
  _atom_site_occupancy
  As  As1       1.0  0.6251310706138611  0.8328595757484436  0.17998187243938446  1.0000
  Ga  Ga1       1.0  0.9635264873504639  0.09917999804019928  0.22698161005973816  1.0000
  Ga  Ga2       1.0  0.6088758111000061  0.8442049622535706  0.21498361229896545  1.0000
  Ga  Ga3       1.0  0.3087511360645294  0.4658016264438629  0.9217264652252197  1.0000
  Ru  Ru1       1.0  0.7336254715919495  0.12813587486743927  0.3336082994937897  1.0000
  S   S1        1.0  0.9378004670143127  0.9755867719650269  0.7265903353691101  1.0000
  Sb  Sb1       1.0  0.08848471194505692  0.6305009722709656  0.356109082698822  1.0000
  Sb  Sb2       1.0  0.18752256035804749  0.129815936088562  0.108267642557621  1.0000
  Sb  Sb3       1.0  0.37714651226997375  0.13888069987297058  0.5430955290794373  1.0000
  Sb  Sb4       1.0  0.7653689384460449  0.2960298955440521  0.024785451591014862  1.0000
  Ta  Ta1       1.0  0.35064470767974854  0.6354048252105713  0.6318829655647278  1.0000
