data_image0
_chemical_formula_structural       Co3O3
_chemical_formula_sum              "Co3 O3"
_cell_length_a       4.041469476832891
_cell_length_b       4.157867229926366
_cell_length_c       4.719474792480469
_cell_angle_alpha    99.76957678504682
_cell_angle_beta     100.05372659691737
_cell_angle_gamma    121.97772359640375

_space_group_name_H-M_alt    "P 1"
_space_group_IT_number       1

loop_
  _space_group_symop_operation_xyz
  'x, y, z'

loop_
  _atom_site_type_symbol
  _atom_site_label
  _atom_site_symmetry_multiplicity
  _atom_site_fract_x
  _atom_site_fract_y
  _atom_site_fract_z
  _atom_site_occupancy
  Co  Co1       1.0  0.18617962300777435  0.0292328130453825  0.6440879702568054  1.0000
  Co  Co2       1.0  0.8492130637168884  0.2971327304840088  0.13748744130134583  1.0000
  Co  Co3       1.0  0.8499776721000672  0.9627080559730531  0.8949615955352783  1.0000
  O   O1        1.0  0.5937830805778503  0.041415661573410034  0.654752790927887  1.0000
  O   O2        1.0  0.8332302570343018  0.6179184317588806  0.14016756415367126  1.0000
  O   O3        1.0  0.23509389162063604  0.4853429794311524  0.8711140751838684  1.0000
