data_image0
_chemical_formula_structural       Co3O3
_chemical_formula_sum              "Co3 O3"
_cell_length_a       4.3795752992541495
_cell_length_b       4.540692664602751
_cell_length_c       4.840419292449951
_cell_angle_alpha    64.42377837743332
_cell_angle_beta     61.986649387316504
_cell_angle_gamma    64.07123998557574

_space_group_name_H-M_alt    "P 1"
_space_group_IT_number       1

loop_
  _space_group_symop_operation_xyz
  'x, y, z'

loop_
  _atom_site_type_symbol
  _atom_site_label
  _atom_site_symmetry_multiplicity
  _atom_site_fract_x
  _atom_site_fract_y
  _atom_site_fract_z
  _atom_site_occupancy
  Co  Co1       1.0  0.413573145866394  0.975970447063446  0.4927048087120056  1.0000
  Co  Co2       1.0  0.8448106050491332  0.2710995078086853  0.2624256908893585  1.0000
  Co  Co3       1.0  0.8998588323593139  0.4695465564727783  0.9984903335571289  1.0000
  O   O1        1.0  0.17794378101825714  0.4868355989456177  0.20773142576217649  1.0000
  O   O2        1.0  0.6566100120544434  0.9734394550323486  0.7294685244560242  1.0000
  O   O3        1.0  0.17245101928710938  0.43909284472465515  0.7910124063491821  1.0000
