data_image0
_chemical_formula_structural       Co3O3
_chemical_formula_sum              "Co3 O3"
_cell_length_a       4.496681213093664
_cell_length_b       5.045021288871714
_cell_length_c       4.951751708984375
_cell_angle_alpha    110.78602469291573
_cell_angle_beta     93.30442568051188
_cell_angle_gamma    116.38588406832451

_space_group_name_H-M_alt    "P 1"
_space_group_IT_number       1

loop_
  _space_group_symop_operation_xyz
  'x, y, z'

loop_
  _atom_site_type_symbol
  _atom_site_label
  _atom_site_symmetry_multiplicity
  _atom_site_fract_x
  _atom_site_fract_y
  _atom_site_fract_z
  _atom_site_occupancy
  Co  Co1       1.0  0.0770803689956665  0.8015731573104858  0.30959591269493103  1.0000
  Co  Co2       1.0  0.5830362439155579  0.809185802936554  0.17081895470619202  1.0000
  Co  Co3       1.0  0.5810522437095642  0.30555635690689087  0.9227375984191896  1.0000
  O   O1        1.0  0.07736975699663162  0.29095232486724854  0.5658485293388367  1.0000
  O   O2        1.0  0.8219980597496033  0.009047188796103  0.1841483861207962  1.0000
  O   O3        1.0  0.09330569207668304  0.8010942935943604  0.6564623713493347  1.0000
