data_image0
_chemical_formula_structural       BaBiCoMn2SbSc2TaTbZn
_chemical_formula_sum              "Ba1 Bi1 Co1 Mn2 Sb1 Sc2 Ta1 Tb1 Zn1"
_cell_length_a       5.434240179992107
_cell_length_b       6.131011839838732
_cell_length_c       8.818556785583496
_cell_angle_alpha    75.10199890832591
_cell_angle_beta     71.67034128764064
_cell_angle_gamma    64.20600040010946

_space_group_name_H-M_alt    "P 1"
_space_group_IT_number       1

loop_
  _space_group_symop_operation_xyz
  'x, y, z'

loop_
  _atom_site_type_symbol
  _atom_site_label
  _atom_site_symmetry_multiplicity
  _atom_site_fract_x
  _atom_site_fract_y
  _atom_site_fract_z
  _atom_site_occupancy
  Ba  Ba1       1.0  0.032777830958366394  0.7905653119087219  0.49658077955245966  1.0000
  Bi  Bi1       1.0  0.5800482034683228  0.183060884475708  0.5367231965065002  1.0000
  Co  Co1       1.0  0.21489451825618744  0.043894942849874496  0.17961964011192322  1.0000
  Mn  Mn1       1.0  0.9274779558181763  0.14345304667949677  0.017009777948260307  1.0000
  Mn  Mn2       1.0  0.7428501844406128  0.5238465070724487  0.6720407605171204  1.0000
  Sb  Sb1       1.0  0.2033136636018753  0.6896013617515564  0.15244285762310028  1.0000
  Sc  Sc1       1.0  0.2418540716171265  0.498511254787445  0.6991662979125977  1.0000
  Sc  Sc2       1.0  0.9173784852027893  0.5144712924957275  0.08545400202274323  1.0000
  Ta  Ta1       1.0  0.7189874053001404  0.14341065287590027  0.18086738884449005  1.0000
  Tb  Tb1       1.0  0.24014684557914734  0.037188295274972916  0.547051191329956  1.0000
  Zn  Zn1       1.0  0.5931912064552307  0.5389832258224487  0.18059787154197693  1.0000
