data_image0
_chemical_formula_structural       B2Bi3Mn3ScTbZn
_chemical_formula_sum              "B2 Bi3 Mn3 Sc1 Tb1 Zn1"
_cell_length_a       4.542895861398049
_cell_length_b       5.126622723220691
_cell_length_c       10.059189796447754
_cell_angle_alpha    96.66768505256938
_cell_angle_beta     89.3932825525357
_cell_angle_gamma    115.28615634483187

_space_group_name_H-M_alt    "P 1"
_space_group_IT_number       1

loop_
  _space_group_symop_operation_xyz
  'x, y, z'

loop_
  _atom_site_type_symbol
  _atom_site_label
  _atom_site_symmetry_multiplicity
  _atom_site_fract_x
  _atom_site_fract_y
  _atom_site_fract_z
  _atom_site_occupancy
  B   B1        1.0  0.2850419878959656  0.7430287599563599  0.26674821972846985  1.0000
  B   B2        1.0  0.5644785165786743  0.529975414276123  0.018824707716703415  1.0000
  Bi  Bi1       1.0  0.8926339745521545  0.7502429485321045  0.02397755905985832  1.0000
  Bi  Bi2       1.0  0.9916880726814269  0.5682083368301392  0.7377951145172119  1.0000
  Bi  Bi3       1.0  0.8889281153678894  0.6908276677131653  0.02533937618136406  1.0000
  Mn  Mn1       1.0  0.3114536702632904  0.2259574681520462  0.43817776441574097  1.0000
  Mn  Mn2       1.0  0.26014602184295654  0.7351780533790588  0.27116823196411133  1.0000
  Mn  Mn3       1.0  0.5176764726638794  0.2612650692462921  0.7639297842979431  1.0000
  Sc  Sc1       1.0  0.9202917814254761  0.24864087998867035  0.7725452184677124  1.0000
  Tb  Tb1       1.0  0.2910003960132599  0.03462811931967735  0.4607527554035187  1.0000
  Zn  Zn1       1.0  0.5641239881515503  0.4956287443637848  0.18482576310634613  1.0000
