data_image0
_chemical_formula_structural       Bi4Ca4Mn2Tb
_chemical_formula_sum              "Bi4 Ca4 Mn2 Tb1"
_cell_length_a       5.779214040017099
_cell_length_b       6.073287988658642
_cell_length_c       8.749011039733887
_cell_angle_alpha    92.45600653328293
_cell_angle_beta     89.9416618271133
_cell_angle_gamma    119.14986067801574

_space_group_name_H-M_alt    "P 1"
_space_group_IT_number       1

loop_
  _space_group_symop_operation_xyz
  'x, y, z'

loop_
  _atom_site_type_symbol
  _atom_site_label
  _atom_site_symmetry_multiplicity
  _atom_site_fract_x
  _atom_site_fract_y
  _atom_site_fract_z
  _atom_site_occupancy
  Bi  Bi1       1.0  0.661702573299408  0.8680689930915833  0.2850825786590576  1.0000
  Bi  Bi2       1.0  0.14022088050842285  0.3864036202430725  0.5070873498916626  1.0000
  Bi  Bi3       1.0  0.7444356083869934  0.9077949523925781  0.8154836297035217  1.0000
  Bi  Bi4       1.0  0.9862053394317627  0.22214029729366302  0.3036506474018097  1.0000
  Ca  Ca1       1.0  0.9385133385658264  0.7428741455078125  0.5081990957260132  1.0000
  Ca  Ca2       1.0  0.582233726978302  0.36309701204299927  0.17902615666389465  1.0000
  Ca  Ca3       1.0  0.27643176913261414  0.9022727608680725  0.3137485682964325  1.0000
  Ca  Ca4       1.0  0.5750073194503784  0.3715514540672302  0.3064008057117462  1.0000
  Mn  Mn1       1.0  0.25505444407463074  0.8911344408988953  0.8007023334503174  1.0000
  Mn  Mn2       1.0  0.299694299697876  0.6322914361953735  0.22077855467796326  1.0000
  Tb  Tb1       1.0  0.03594750165939331  0.14304961264133453  0.6687896847724915  1.0000
