data_image0
_chemical_formula_structural       BBiCaMn4SScTbZn
_chemical_formula_sum              "B1 Bi1 Ca1 Mn4 S1 Sc1 Tb1 Zn1"
_cell_length_a       4.350204379513478
_cell_length_b       6.441890473638043
_cell_length_c       8.374091148376465
_cell_angle_alpha    113.57812111555029
_cell_angle_beta     89.4744303404582
_cell_angle_gamma    89.4097081499611

_space_group_name_H-M_alt    "P 1"
_space_group_IT_number       1

loop_
  _space_group_symop_operation_xyz
  'x, y, z'

loop_
  _atom_site_type_symbol
  _atom_site_label
  _atom_site_symmetry_multiplicity
  _atom_site_fract_x
  _atom_site_fract_y
  _atom_site_fract_z
  _atom_site_occupancy
  B   B1        1.0  0.7383942008018494  0.10068090260028839  0.9006012678146362  1.0000
  Bi  Bi1       1.0  0.7328218221664429  0.6080926656723022  0.7306378483772278  1.0000
  Ca  Ca1       1.0  0.2522556185722351  0.7665831446647644  0.166479155421257  1.0000
  Mn  Mn1       1.0  0.7394392490386963  0.5949002504348755  0.18482810258865356  1.0000
  Mn  Mn2       1.0  0.25538283586502075  0.0952150896191597  0.3559800088405609  1.0000
  Mn  Mn3       1.0  0.751369833946228  0.5836165547370911  0.8484089374542236  1.0000
  Mn  Mn4       1.0  0.24547572433948517  0.9985798597335815  0.28367358446121216  1.0000
  S   S1        1.0  0.2435624748468399  0.635004460811615  0.5857881307601929  1.0000
  Sc  Sc1       1.0  0.7489508390426636  0.27617159485816956  0.4768866300582886  1.0000
  Tb  Tb1       1.0  0.24819859862327576  0.7315085530281067  0.5828039050102234  1.0000
  Zn  Zn1       1.0  0.2631033957004547  0.3567734360694885  0.010800265707075596  1.0000
