data_image0
_chemical_formula_structural       LaMn4SbSc2Zn3
_chemical_formula_sum              "La1 Mn4 Sb1 Sc2 Zn3"
_cell_length_a       4.5698876494873275
_cell_length_b       7.008194563092054
_cell_length_c       8.499246597290039
_cell_angle_alpha    112.32298775067997
_cell_angle_beta     90.49938585466717
_cell_angle_gamma    95.24708170557801

_space_group_name_H-M_alt    "P 1"
_space_group_IT_number       1

loop_
  _space_group_symop_operation_xyz
  'x, y, z'

loop_
  _atom_site_type_symbol
  _atom_site_label
  _atom_site_symmetry_multiplicity
  _atom_site_fract_x
  _atom_site_fract_y
  _atom_site_fract_z
  _atom_site_occupancy
  La  La1       1.0  0.5940802097320557  0.6220547556877136  0.2852254807949066  1.0000
  Mn  Mn1       1.0  0.0780683308839798  0.12286568433046341  0.4270261526107788  1.0000
  Mn  Mn2       1.0  0.5674636363983154  0.13503789901733398  0.05449254810810089  1.0000
  Mn  Mn3       1.0  0.08230696618556976  0.3729538023471832  0.11691012233495712  1.0000
  Mn  Mn4       1.0  0.33397018909454346  0.8457365036010742  0.6859339475631714  1.0000
  Sb  Sb1       1.0  0.08290497213602066  0.3015455901622772  0.426825612783432  1.0000
  Sc  Sc1       1.0  0.08213429152965546  0.37353038787841797  0.8635849356651306  1.0000
  Sc  Sc2       1.0  0.5845210552215576  0.6308322548866272  0.32238534092903137  1.0000
  Zn  Zn1       1.0  0.5948908925056458  0.3306698203086853  0.741600751876831  1.0000
  Zn  Zn2       1.0  0.8237406015396118  0.8649305701255798  0.8612464666366577  1.0000
  Zn  Zn3       1.0  0.0873166173696518  0.1291256994009018  0.37092727422714233  1.0000
