data_image0
_chemical_formula_structural       Bi2Ca2FeMn2Tb3Zn
_chemical_formula_sum              "Bi2 Ca2 Fe1 Mn2 Tb3 Zn1"
_cell_length_a       5.781679183953297
_cell_length_b       6.127383010407524
_cell_length_c       10.33116340637207
_cell_angle_alpha    89.28331783241568
_cell_angle_beta     88.55946605779994
_cell_angle_gamma    116.6553138275648

_space_group_name_H-M_alt    "P 1"
_space_group_IT_number       1

loop_
  _space_group_symop_operation_xyz
  'x, y, z'

loop_
  _atom_site_type_symbol
  _atom_site_label
  _atom_site_symmetry_multiplicity
  _atom_site_fract_x
  _atom_site_fract_y
  _atom_site_fract_z
  _atom_site_occupancy
  Bi  Bi1       1.0  0.45939353108406067  0.9921582937240601  0.8719816207885744  1.0000
  Bi  Bi2       1.0  0.4375976622104645  0.7219721078872681  0.15220224857330322  1.0000
  Ca  Ca1       1.0  0.8223562836647034  0.024405157193541527  0.6592130064964294  1.0000
  Ca  Ca2       1.0  0.1717669665813446  0.01597176492214203  0.5503540635108948  1.0000
  Fe  Fe1       1.0  0.045326706022024155  0.6912837028503418  0.8825696706771851  1.0000
  Mn  Mn1       1.0  0.9940700531005859  0.7103999257087708  0.3912893235683441  1.0000
  Mn  Mn2       1.0  0.2271876037120819  0.4876374304294586  0.8818072080612183  1.0000
  Tb  Tb1       1.0  0.7985897660255432  0.5024508833885193  0.21376998722553253  1.0000
  Tb  Tb2       1.0  0.7960709929466248  0.3466152548789978  0.8839641809463501  1.0000
  Tb  Tb3       1.0  0.526290774345398  0.17702503502368927  0.3706141412258148  1.0000
  Zn  Zn1       1.0  0.7967628240585327  0.6689841151237488  0.06796883791685104  1.0000
