data_image0
_chemical_formula_structural       AsGa4GeLiNiPPtSc
_chemical_formula_sum              "As1 Ga4 Ge1 Li1 Ni1 P1 Pt1 Sc1"
_cell_length_a       5.488472114907034
_cell_length_b       5.2320900590466435
_cell_length_c       6.925980567932129
_cell_angle_alpha    92.74216842976911
_cell_angle_beta     97.57839294220214
_cell_angle_gamma    124.49242518239859

_space_group_name_H-M_alt    "P 1"
_space_group_IT_number       1

loop_
  _space_group_symop_operation_xyz
  'x, y, z'

loop_
  _atom_site_type_symbol
  _atom_site_label
  _atom_site_symmetry_multiplicity
  _atom_site_fract_x
  _atom_site_fract_y
  _atom_site_fract_z
  _atom_site_occupancy
  As  As1       1.0  0.15469485521316528  0.7977052927017212  0.10220266133546828  1.0000
  Ga  Ga1       1.0  0.7358232736587524  0.6681947112083435  0.04659941419959068  1.0000
  Ga  Ga2       1.0  0.0733184814453125  0.15712273120880127  0.2944115698337555  1.0000
  Ga  Ga3       1.0  0.2681873142719269  0.32067179679870605  0.7837156653404236  1.0000
  Ga  Ga4       1.0  0.8308390378952026  0.6453487873077393  0.727138340473175  1.0000
  Ge  Ge1       1.0  0.3173779547214508  0.9280751347541809  0.43650370836257935  1.0000
  Li  Li1       1.0  0.35125985741615295  0.03944997116923332  0.5290228128433228  1.0000
  Ni  Ni1       1.0  0.1501816064119339  0.6846271753311157  0.9697885513305664  1.0000
  P   P1        1.0  0.5461808443069458  0.29588520526885986  0.5779253840446472  1.0000
  Pt  Pt1       1.0  0.6560927033424377  0.7982597947120667  0.7297996282577515  1.0000
  Sc  Sc1       1.0  0.6571117043495178  0.6113889217376709  0.5355310440063477  1.0000
