data_image0
_chemical_formula_structural       Ga5Ge2HNiPtZn
_chemical_formula_sum              "Ga5 Ge2 H1 Ni1 Pt1 Zn1"
_cell_length_a       5.578273034945287
_cell_length_b       5.5503741479923185
_cell_length_c       6.354732990264893
_cell_angle_alpha    89.84695723917487
_cell_angle_beta     88.7984153486317
_cell_angle_gamma    102.33167453106554

_space_group_name_H-M_alt    "P 1"
_space_group_IT_number       1

loop_
  _space_group_symop_operation_xyz
  'x, y, z'

loop_
  _atom_site_type_symbol
  _atom_site_label
  _atom_site_symmetry_multiplicity
  _atom_site_fract_x
  _atom_site_fract_y
  _atom_site_fract_z
  _atom_site_occupancy
  Ga  Ga1       1.0  0.47552976012229914  0.10053053498268127  0.5638910531997681  1.0000
  Ga  Ga2       1.0  0.47465443611145014  0.7246990203857422  0.15860280394554138  1.0000
  Ga  Ga3       1.0  0.9686384797096251  0.0794483870267868  0.9032770991325377  1.0000
  Ga  Ga4       1.0  0.9732093214988707  0.3726624548435211  0.15559381246566772  1.0000
  Ga  Ga5       1.0  0.46845936775207514  0.8649556040763855  0.3913856446743011  1.0000
  Ge  Ge1       1.0  0.23782384395599362  0.8089658617973328  0.4745821058750152  1.0000
  Ge  Ge2       1.0  0.913862645626068  0.07021486014127731  0.5956171154975891  1.0000
  H   H1        1.0  0.9262232184410094  0.5943766832351685  0.5118557810783386  1.0000
  Ni  Ni1       1.0  0.44742065668106074  0.27434197068214417  0.5858709812164307  1.0000
  Pt  Pt1       1.0  0.479849100112915  0.9192265272140503  0.1212053745985031  1.0000
  Zn  Zn1       1.0  0.4693674445152282  0.34101036190986633  0.31290632486343384  1.0000
