data_image0
_chemical_formula_structural       Ga3Ge2Ni5Np
_chemical_formula_sum              "Ga3 Ge2 Ni5 Np1"
_cell_length_a       5.586158210084491
_cell_length_b       5.572909304282606
_cell_length_c       5.778064727783203
_cell_angle_alpha    89.37376144830056
_cell_angle_beta     89.33297642721521
_cell_angle_gamma    91.09997774999566

_space_group_name_H-M_alt    "P 1"
_space_group_IT_number       1

loop_
  _space_group_symop_operation_xyz
  'x, y, z'

loop_
  _atom_site_type_symbol
  _atom_site_label
  _atom_site_symmetry_multiplicity
  _atom_site_fract_x
  _atom_site_fract_y
  _atom_site_fract_z
  _atom_site_occupancy
  Ga  Ga1       1.0  0.9534690976142883  0.30763480067253113  0.818336009979248  1.0000
  Ga  Ga2       1.0  0.4812929332256317  0.5313735008239746  0.7328475713729858  1.0000
  Ga  Ga3       1.0  0.41010504961013794  0.9261441826820374  0.3547179102897644  1.0000
  Ge  Ge1       1.0  0.38403812050819397  0.5590991973876953  0.3036728501319885  1.0000
  Ge  Ge2       1.0  0.9437529444694519  0.0375361330807209  0.10859087109565735  1.0000
  Ni  Ni1       1.0  0.44569188356399536  0.2808311879634857  0.2495577186346054  1.0000
  Ni  Ni2       1.0  0.9337254166603088  0.3735258877277374  0.030546920374035835  1.0000
  Ni  Ni3       1.0  0.7316335439682007  0.5957826375961304  0.967460036277771  1.0000
  Ni  Ni4       1.0  0.9253160953521729  0.7634866833686829  0.9734963178634644  1.0000
  Ni  Ni5       1.0  0.2942267656326294  0.601324200630188  0.8465489149093628  1.0000
  Np  Np1       1.0  0.9493243098258972  0.8338544368743896  0.8197649121284485  1.0000
