data_image0
_chemical_formula_structural       Ga5GeNiScV2Zn
_chemical_formula_sum              "Ga5 Ge1 Ni1 Sc1 V2 Zn1"
_cell_length_a       4.917807017624202
_cell_length_b       5.133693230018577
_cell_length_c       7.048810005187988
_cell_angle_alpha    90.26930457091096
_cell_angle_beta     87.90086638607224
_cell_angle_gamma    120.60280857291527

_space_group_name_H-M_alt    "P 1"
_space_group_IT_number       1

loop_
  _space_group_symop_operation_xyz
  'x, y, z'

loop_
  _atom_site_type_symbol
  _atom_site_label
  _atom_site_symmetry_multiplicity
  _atom_site_fract_x
  _atom_site_fract_y
  _atom_site_fract_z
  _atom_site_occupancy
  Ga  Ga1       1.0  0.29951781034469604  0.4687146842479706  0.7898724079132079  1.0000
  Ga  Ga2       1.0  0.8975375294685364  0.7985901832580566  0.8421988487243651  1.0000
  Ga  Ga3       1.0  0.29158297181129456  0.16835883259773254  0.5174314975738525  1.0000
  Ga  Ga4       1.0  0.7971029281616211  0.34074994921684265  0.14329777657985687  1.0000
  Ga  Ga5       1.0  0.28272125124931335  0.4961042106151581  0.692274272441864  1.0000
  Ge  Ge1       1.0  0.7805454134941101  0.39491239190101624  0.4636526703834533  1.0000
  Ni  Ni1       1.0  0.3826005160808563  0.5657616257667542  0.23621727526187894  1.0000
  Sc  Sc1       1.0  0.4454707205295563  0.834550142288208  0.2613586187362671  1.0000
  V   V1        1.0  0.8165698647499084  0.6381474733352661  0.43650770187377924  1.0000
  V   V2        1.0  0.30758753418922424  0.5074893832206726  0.6013752222061157  1.0000
  Zn  Zn1       1.0  0.8021056652069092  0.018486522138118744  0.45356118679046636  1.0000
