data_image0
_chemical_formula_structural       Ga4NdNi6
_chemical_formula_sum              "Ga4 Nd1 Ni6"
_cell_length_a       5.382809464394598
_cell_length_b       5.588302401870749
_cell_length_c       5.958164691925049
_cell_angle_alpha    75.60977045810074
_cell_angle_beta     75.48923868571484
_cell_angle_gamma    78.497948131177

_space_group_name_H-M_alt    "P 1"
_space_group_IT_number       1

loop_
  _space_group_symop_operation_xyz
  'x, y, z'

loop_
  _atom_site_type_symbol
  _atom_site_label
  _atom_site_symmetry_multiplicity
  _atom_site_fract_x
  _atom_site_fract_y
  _atom_site_fract_z
  _atom_site_occupancy
  Ga  Ga1       1.0  0.27199506759643555  0.8911237120628357  0.648045003414154  1.0000
  Ga  Ga2       1.0  0.7648279666900635  0.4146293103694916  0.455983966588974  1.0000
  Ga  Ga3       1.0  0.24984967708587646  0.3660997450351715  0.16017001867294312  1.0000
  Ga  Ga4       1.0  0.7720729112625122  0.9406817555427551  0.03324638307094574  1.0000
  Nd  Nd1       1.0  0.26999685168266296  0.5776820778846741  0.28431594371795654  1.0000
  Ni  Ni1       1.0  0.2653296887874603  0.8499400615692139  0.8348853588104248  1.0000
  Ni  Ni2       1.0  0.7715180516242981  0.5660642981529236  0.6392847895622253  1.0000
  Ni  Ni3       1.0  0.7724267244338989  0.05413906276226044  0.018543370068073235  1.0000
  Ni  Ni4       1.0  0.7688897848129272  0.12614794075489044  0.6509968042373657  1.0000
  Ni  Ni5       1.0  0.7699979543685913  0.6158769130706787  0.43410807847976685  1.0000
  Ni  Ni6       1.0  0.27078667283058167  0.2443433552980423  0.3686918318271637  1.0000
