data_image0
_chemical_formula_structural       Ga5GeLuNiPtVZn
_chemical_formula_sum              "Ga5 Ge1 Lu1 Ni1 Pt1 V1 Zn1"
_cell_length_a       5.9187264142777885
_cell_length_b       5.6993060066243615
_cell_length_c       6.555351734161377
_cell_angle_alpha    104.82580080892302
_cell_angle_beta     106.51291874496822
_cell_angle_gamma    111.62635352389808

_space_group_name_H-M_alt    "P 1"
_space_group_IT_number       1

loop_
  _space_group_symop_operation_xyz
  'x, y, z'

loop_
  _atom_site_type_symbol
  _atom_site_label
  _atom_site_symmetry_multiplicity
  _atom_site_fract_x
  _atom_site_fract_y
  _atom_site_fract_z
  _atom_site_occupancy
  Ga  Ga1       1.0  0.31840047240257263  0.28839078545570374  0.7610640525817872  1.0000
  Ga  Ga2       1.0  0.7785769701004028  0.6042143702507019  0.003800956299528497  1.0000
  Ga  Ga3       1.0  0.8047558069229126  0.8681814074516296  0.15869520604610446  1.0000
  Ga  Ga4       1.0  0.20905300974845886  0.18719710409641266  0.8492190241813661  1.0000
  Ga  Ga5       1.0  0.5993066430091858  0.7355835437774658  0.5171533226966858  1.0000
  Ge  Ge1       1.0  0.8124486804008484  0.42706191539764404  0.42623883485794073  1.0000
  Lu  Lu1       1.0  0.8189358711242676  0.6244663596153259  0.5497248768806458  1.0000
  Ni  Ni1       1.0  0.27535706758499146  0.5497148036956787  0.9660246372222902  1.0000
  Pt  Pt1       1.0  0.8107028007507324  0.43922746181488037  0.2673356831073761  1.0000
  V   V1        1.0  0.30694085359573364  0.32793527841567993  0.2634757459163666  1.0000
  Zn  Zn1       1.0  0.8072338700294495  0.36669573187828064  0.10548608750104906  1.0000
