data_image0
_chemical_formula_structural       MoSi7U2
_chemical_formula_sum              "Mo1 Si7 U2"
_cell_length_a       5.714900994028778
_cell_length_b       5.675551596970875
_cell_length_c       5.6501288414001465
_cell_angle_alpha    113.84793750192408
_cell_angle_beta     112.71031463968409
_cell_angle_gamma    96.7761133550421

_space_group_name_H-M_alt    "P 1"
_space_group_IT_number       1

loop_
  _space_group_symop_operation_xyz
  'x, y, z'

loop_
  _atom_site_type_symbol
  _atom_site_label
  _atom_site_symmetry_multiplicity
  _atom_site_fract_x
  _atom_site_fract_y
  _atom_site_fract_z
  _atom_site_occupancy
  Mo  Mo1       1.0  0.36951956152915955  0.2590879201889038  0.074309341609478  1.0000
  Si  Si1       1.0  0.9256868362426758  0.5322377681732178  0.7047867774963379  1.0000
  Si  Si2       1.0  0.5979447364807129  0.05300961062312126  0.19041867554187777  1.0000
  Si  Si3       1.0  0.41997191309928894  0.7127267718315125  0.8730849027633668  1.0000
  Si  Si4       1.0  0.6132429838180542  0.21354064345359802  0.8850199580192567  1.0000
  Si  Si5       1.0  0.09022656083106995  0.8224343061447144  0.6944587826728821  1.0000
  Si  Si6       1.0  0.03459986299276352  0.1291019171476364  0.619491696357727  1.0000
  Si  Si7       1.0  0.6593824028968811  0.3721829652786255  0.4822827577590943  1.0000
  U   U1        1.0  0.9509032368659973  0.3862471580505371  0.20725472271442416  1.0000
  U   U2        1.0  0.36325377225875854  0.35260286927223206  0.3942371010780335  1.0000
