data_image0
_chemical_formula_structural       Si6U4
_chemical_formula_sum              "Si6 U4"
_cell_length_a       5.830494832933415
_cell_length_b       5.4586200139925785
_cell_length_c       6.0542521476745605
_cell_angle_alpha    68.7307382369655
_cell_angle_beta     66.85820329084763
_cell_angle_gamma    65.63268809221563

_space_group_name_H-M_alt    "P 1"
_space_group_IT_number       1

loop_
  _space_group_symop_operation_xyz
  'x, y, z'

loop_
  _atom_site_type_symbol
  _atom_site_label
  _atom_site_symmetry_multiplicity
  _atom_site_fract_x
  _atom_site_fract_y
  _atom_site_fract_z
  _atom_site_occupancy
  Si  Si1       1.0  0.8759037256240845  0.9824516773223877  0.5860337615013123  1.0000
  Si  Si2       1.0  0.7615521550178528  0.28817006945610046  0.9205180406570433  1.0000
  Si  Si3       1.0  0.7338269352912903  0.3179667890071869  0.2856054902076721  1.0000
  Si  Si4       1.0  0.7102228403091431  0.7767693996429443  0.43256336450576777  1.0000
  Si  Si5       1.0  0.7784262895584106  0.2942872941493988  0.8453679680824279  1.0000
  Si  Si6       1.0  0.24084794521331787  0.8804419636726379  0.5533765554428101  1.0000
  U   U1        1.0  0.09539368748664856  0.04378155246376991  0.9449932575225829  1.0000
  U   U2        1.0  0.8236844539642334  0.7350412011146545  0.4003536403179168  1.0000
  U   U3        1.0  0.3657592535018921  0.5129775404930115  0.7572383880615233  1.0000
  U   U4        1.0  0.41600239276885986  0.9752414226531982  0.1459912806749344  1.0000
