data_image0
_chemical_formula_structural       Mo2OsSi6U
_chemical_formula_sum              "Mo2 Os1 Si6 U1"
_cell_length_a       3.6598074577055173
_cell_length_b       6.548672124832682
_cell_length_c       6.55386209487915
_cell_angle_alpha    123.46010669417402
_cell_angle_beta     92.11610067187945
_cell_angle_gamma    89.24137861366646

_space_group_name_H-M_alt    "P 1"
_space_group_IT_number       1

loop_
  _space_group_symop_operation_xyz
  'x, y, z'

loop_
  _atom_site_type_symbol
  _atom_site_label
  _atom_site_symmetry_multiplicity
  _atom_site_fract_x
  _atom_site_fract_y
  _atom_site_fract_z
  _atom_site_occupancy
  Mo  Mo1       1.0  0.47868701815605164  0.6034545302391052  0.028395863249897957  1.0000
  Mo  Mo2       1.0  0.9805243611335754  0.06127481162548065  0.8856109976768494  1.0000
  Os  Os1       1.0  0.4875866174697876  0.23323212563991547  0.032748255878686905  1.0000
  Si  Si1       1.0  0.44331327080726624  0.2247953563928604  0.6159951090812683  1.0000
  Si  Si2       1.0  0.4695643484592438  0.6942774057388306  0.749993085861206  1.0000
  Si  Si3       1.0  0.4780767261981964  0.6686024069786072  0.32404452562332153  1.0000
  Si  Si4       1.0  0.9703447818756104  0.5551602840423584  0.9647171497344971  1.0000
  Si  Si5       1.0  0.48004505038261414  0.05024825036525726  0.2511410415172577  1.0000
  Si  Si6       1.0  0.9700592756271362  0.20238664746284485  0.2572247385978699  1.0000
  U   U1        1.0  0.9756351709365845  0.7186006903648376  0.5484904050827026  1.0000
