data_image0
_chemical_formula_structural       BaMo2Si6U
_chemical_formula_sum              "Ba1 Mo2 Si6 U1"
_cell_length_a       4.10962581495067
_cell_length_b       6.24147678864474
_cell_length_c       6.4140625
_cell_angle_alpha    120.10936673412212
_cell_angle_beta     89.55154156000849
_cell_angle_gamma    90.97726532456349

_space_group_name_H-M_alt    "P 1"
_space_group_IT_number       1

loop_
  _space_group_symop_operation_xyz
  'x, y, z'

loop_
  _atom_site_type_symbol
  _atom_site_label
  _atom_site_symmetry_multiplicity
  _atom_site_fract_x
  _atom_site_fract_y
  _atom_site_fract_z
  _atom_site_occupancy
  Ba  Ba1       1.0  0.42696675658226013  0.009910846129059792  0.2756814956665039  1.0000
  Mo  Mo1       1.0  0.9278538823127747  0.13437950611114502  0.7211554646492004  1.0000
  Mo  Mo2       1.0  0.42428964376449585  0.2568775415420532  0.7830657958984373  1.0000
  Si  Si1       1.0  0.9240907430648804  0.39400625228881836  0.3474595248699188  1.0000
  Si  Si2       1.0  0.937053084373474  0.49556937813758845  0.8675876259803772  1.0000
  Si  Si3       1.0  0.945762276649475  0.21899762749671933  0.8240395188331604  1.0000
  Si  Si4       1.0  0.4299960136413574  0.6464602947235107  0.10860873013734818  1.0000
  Si  Si5       1.0  0.9270614385604858  0.6597159504890442  0.3047504127025603  1.0000
  Si  Si6       1.0  0.426514595746994  0.38883674144744873  0.13354739546775812  1.0000
  U   U1        1.0  0.9117411375045776  0.8783293366432189  0.525549292564392  1.0000
