data_image0
_chemical_formula_structural       Mo2Si7U
_chemical_formula_sum              "Mo2 Si7 U1"
_cell_length_a       5.407037214270445
_cell_length_b       5.643426804218346
_cell_length_c       6.189399719238281
_cell_angle_alpha    119.03392295844637
_cell_angle_beta     107.619810669882
_cell_angle_gamma    90.0288826264673

_space_group_name_H-M_alt    "P 1"
_space_group_IT_number       1

loop_
  _space_group_symop_operation_xyz
  'x, y, z'

loop_
  _atom_site_type_symbol
  _atom_site_label
  _atom_site_symmetry_multiplicity
  _atom_site_fract_x
  _atom_site_fract_y
  _atom_site_fract_z
  _atom_site_occupancy
  Mo  Mo1       1.0  0.70848548412323  0.039150964468717575  0.5265950560569763  1.0000
  Mo  Mo2       1.0  0.30123430490493774  0.26314789056777954  0.5224797129631042  1.0000
  Si  Si1       1.0  0.7959439158439636  0.2925673723220825  0.039562586694955826  1.0000
  Si  Si2       1.0  0.5593386888504028  0.5433306694030762  0.03580399602651596  1.0000
  Si  Si3       1.0  0.31329330801963806  0.7951269745826721  0.9478638172149658  1.0000
  Si  Si4       1.0  0.5370068550109863  0.7767322063446045  0.36206045746803284  1.0000
  Si  Si5       1.0  0.32056427001953125  0.6894336342811584  0.32132965326309204  1.0000
  Si  Si6       1.0  0.00797995924949646  0.2640056610107422  0.8593831062316895  1.0000
  Si  Si7       1.0  0.997564971446991  0.6309546232223511  0.7998085618019104  1.0000
  U   U1        1.0  0.024344172328710556  0.353119820356369  0.7965666651725769  1.0000
