data_image0
_chemical_formula_structural       MoSi7U2
_chemical_formula_sum              "Mo1 Si7 U2"
_cell_length_a       5.61975777668766
_cell_length_b       6.205712020470284
_cell_length_c       6.576290607452393
_cell_angle_alpha    119.63859892224428
_cell_angle_beta     107.26154487230585
_cell_angle_gamma    88.31896566376392

_space_group_name_H-M_alt    "P 1"
_space_group_IT_number       1

loop_
  _space_group_symop_operation_xyz
  'x, y, z'

loop_
  _atom_site_type_symbol
  _atom_site_label
  _atom_site_symmetry_multiplicity
  _atom_site_fract_x
  _atom_site_fract_y
  _atom_site_fract_z
  _atom_site_occupancy
  Mo  Mo1       1.0  0.5725027918815613  0.08708823472261429  0.6857887506484985  1.0000
  Si  Si1       1.0  0.09802079945802689  0.35504135489463806  0.18784163892269132  1.0000
  Si  Si2       1.0  0.32421132922172546  0.6927482485771179  0.6646556854248047  1.0000
  Si  Si3       1.0  0.5704434514045715  0.45816764235496515  0.10492757707834244  1.0000
  Si  Si4       1.0  0.0808417871594429  0.6001831293106079  0.17526198923587796  1.0000
  Si  Si5       1.0  0.5716415643692017  0.1713079810142517  0.3816577196121216  1.0000
  Si  Si6       1.0  0.5991635918617249  0.20499178767204285  0.3723471760749817  1.0000
  Si  Si7       1.0  0.07612419128417966  0.9756316542625426  0.9369370341300964  1.0000
  U   U1        1.0  0.577631950378418  0.8519123196601868  0.18478772044181824  1.0000
  U   U2        1.0  0.09935568273067474  0.8598679304122925  0.9952980279922485  1.0000
