data_image0
_chemical_formula_structural       Cl5HIr3
_chemical_formula_sum              "Cl5 H1 Ir3"
_cell_length_a       5.174643044225353
_cell_length_b       7.486323589754214
_cell_length_c       7.792008876800537
_cell_angle_alpha    120.29414073647797
_cell_angle_beta     90.32259619948634
_cell_angle_gamma    89.09052863000555

_space_group_name_H-M_alt    "P 1"
_space_group_IT_number       1

loop_
  _space_group_symop_operation_xyz
  'x, y, z'

loop_
  _atom_site_type_symbol
  _atom_site_label
  _atom_site_symmetry_multiplicity
  _atom_site_fract_x
  _atom_site_fract_y
  _atom_site_fract_z
  _atom_site_occupancy
  Cl  Cl1       1.0  0.10372680425643921  0.05703704431653023  0.020014017820358273  1.0000
  Cl  Cl2       1.0  0.5951776504516602  0.7181525826454163  0.9732965230941774  1.0000
  Cl  Cl3       1.0  0.6037999391555786  0.3518138527870178  0.5503721237182617  1.0000
  Cl  Cl4       1.0  0.10120370239019394  0.8522170186042786  0.3550544381141662  1.0000
  Cl  Cl5       1.0  0.10048279911279678  0.6601992249488831  0.13047286868095398  1.0000
  H   H1        1.0  0.5946252942085266  0.4852660596370697  0.6236085891723633  1.0000
  Ir  Ir1       1.0  0.8828773498535156  0.23199152946472168  0.6299782991409302  1.0000
  Ir  Ir2       1.0  0.09545901417732239  0.7222245931625366  0.4835996329784394  1.0000
  Ir  Ir3       1.0  0.5760028958320618  0.8813663721084595  0.630776047706604  1.0000
