data_image0
_chemical_formula_structural       Cl4HgIr4
_chemical_formula_sum              "Cl4 Hg1 Ir4"
_cell_length_a       4.79199689663233
_cell_length_b       6.988676539506398
_cell_length_c       7.266733169555664
_cell_angle_alpha    119.17190055144569
_cell_angle_beta     90.16736726281358
_cell_angle_gamma    99.04543592477484

_space_group_name_H-M_alt    "P 1"
_space_group_IT_number       1

loop_
  _space_group_symop_operation_xyz
  'x, y, z'

loop_
  _atom_site_type_symbol
  _atom_site_label
  _atom_site_symmetry_multiplicity
  _atom_site_fract_x
  _atom_site_fract_y
  _atom_site_fract_z
  _atom_site_occupancy
  Cl  Cl1       1.0  0.6608404517173767  0.9350470900535585  0.20816777646541598  1.0000
  Cl  Cl2       1.0  0.14245787262916565  0.7695611119270325  0.19268752634525294  1.0000
  Cl  Cl3       1.0  0.22973252832889557  0.3139541745185852  0.5346115231513977  1.0000
  Cl  Cl4       1.0  0.3139003813266754  0.6174816489219666  0.04082904756069187  1.0000
  Hg  Hg1       1.0  0.019379373639822006  0.7820495367050171  0.8427475690841676  1.0000
  Ir  Ir1       1.0  0.5254386067390442  0.025760479271411896  0.5362223982810974  1.0000
  Ir  Ir2       1.0  0.5206730961799622  0.5306201577186584  0.04262859374284744  1.0000
  Ir  Ir3       1.0  0.009115023538470272  0.11149709671735765  0.32405245304107666  1.0000
  Ir  Ir4       1.0  0.033081188797950745  0.31254249811172485  0.7081078886985779  1.0000
