data_image0
_chemical_formula_structural       Cl4CrHgIr3
_chemical_formula_sum              "Cl4 Cr1 Hg1 Ir3"
_cell_length_a       4.512289004301392
_cell_length_b       6.297378493343172
_cell_length_c       6.584007263183594
_cell_angle_alpha    110.29280729982389
_cell_angle_beta     91.65278750278263
_cell_angle_gamma    89.98909035487476

_space_group_name_H-M_alt    "P 1"
_space_group_IT_number       1

loop_
  _space_group_symop_operation_xyz
  'x, y, z'

loop_
  _atom_site_type_symbol
  _atom_site_label
  _atom_site_symmetry_multiplicity
  _atom_site_fract_x
  _atom_site_fract_y
  _atom_site_fract_z
  _atom_site_occupancy
  Cl  Cl1       1.0  0.3829953372478485  0.6802465915679932  0.009281734935939277  1.0000
  Cl  Cl2       1.0  0.3606865108013153  0.5992951393127441  0.6544029116630554  1.0000
  Cl  Cl3       1.0  0.13838808238506317  0.42660820484161377  0.9223999381065369  1.0000
  Cl  Cl4       1.0  0.8711480498313904  0.946000874042511  0.26829549670219416  1.0000
  Cr  Cr1       1.0  0.8643248677253723  0.16297942399978638  0.4393189251422882  1.0000
  Hg  Hg1       1.0  0.3730548918247223  0.7895696759223938  0.25544711947441096  1.0000
  Ir  Ir1       1.0  0.8598020672798157  0.16352637112140656  0.5192393064498901  1.0000
  Ir  Ir2       1.0  0.8598254323005676  0.151943638920784  0.925334632396698  1.0000
  Ir  Ir3       1.0  0.3689998686313629  0.7449124455451965  0.19598928093910215  1.0000
