data_image0
_chemical_formula_structural       Cl5IrRhSn2
_chemical_formula_sum              "Cl5 Ir1 Rh1 Sn2"
_cell_length_a       4.690255307706961
_cell_length_b       6.1924601245933255
_cell_length_c       9.053495407104492
_cell_angle_alpha    103.9551664137878
_cell_angle_beta     92.53862083053149
_cell_angle_gamma    90.72284563635878

_space_group_name_H-M_alt    "P 1"
_space_group_IT_number       1

loop_
  _space_group_symop_operation_xyz
  'x, y, z'

loop_
  _atom_site_type_symbol
  _atom_site_label
  _atom_site_symmetry_multiplicity
  _atom_site_fract_x
  _atom_site_fract_y
  _atom_site_fract_z
  _atom_site_occupancy
  Cl  Cl1       1.0  0.835824191570282  0.35966476798057556  0.5770518183708191  1.0000
  Cl  Cl2       1.0  0.8274055123329163  0.6501287221908569  0.7575048208236694  1.0000
  Cl  Cl3       1.0  0.37334176898002625  0.010591747239232063  0.31581389904022217  1.0000
  Cl  Cl4       1.0  0.8018985986709595  0.8658323287963867  0.06007169559597969  1.0000
  Cl  Cl5       1.0  0.29394078254699707  0.3644210398197174  0.9924125671386719  1.0000
  Ir  Ir1       1.0  0.04343418404459953  0.15854664146900177  0.9730598330497742  1.0000
  Rh  Rh1       1.0  0.12483668327331542  0.434343546628952  0.2806902527809143  1.0000
  Sn  Sn1       1.0  0.40819332003593445  0.8680459260940552  0.7974873781204224  1.0000
  Sn  Sn2       1.0  0.4044835567474365  0.8660703301429749  0.05763164907693866  1.0000
