data_image0
_chemical_formula_structural       Cl4HgIr3Sn
_chemical_formula_sum              "Cl4 Hg1 Ir3 Sn1"
_cell_length_a       5.649057372638173
_cell_length_b       7.28151202562343
_cell_length_c       7.341774940490723
_cell_angle_alpha    121.31726707372853
_cell_angle_beta     90.46009641886937
_cell_angle_gamma    89.38984908041047

_space_group_name_H-M_alt    "P 1"
_space_group_IT_number       1

loop_
  _space_group_symop_operation_xyz
  'x, y, z'

loop_
  _atom_site_type_symbol
  _atom_site_label
  _atom_site_symmetry_multiplicity
  _atom_site_fract_x
  _atom_site_fract_y
  _atom_site_fract_z
  _atom_site_occupancy
  Cl  Cl1       1.0  0.2756916284561157  0.295917809009552  0.697092592716217  1.0000
  Cl  Cl2       1.0  0.7670607566833496  0.6942647099494934  0.8755587339401244  1.0000
  Cl  Cl3       1.0  0.7759734988212585  0.23896971344947815  0.7181764245033264  1.0000
  Cl  Cl4       1.0  0.7744755148887634  0.38617733120918274  0.0022422987967729868  1.0000
  Hg  Hg1       1.0  0.7711002230644226  0.8485962152481079  0.49392959475517284  1.0000
  Ir  Ir1       1.0  0.7721481919288635  0.7132699489593506  0.24962998926639554  1.0000
  Ir  Ir2       1.0  0.018837450072169304  0.225547656416893  0.3564970791339874  1.0000
  Ir  Ir3       1.0  0.27537134289741516  0.21905578672885895  0.6283201575279236  1.0000
  Sn  Sn1       1.0  0.2707543671131134  0.6819015741348267  0.7029907703399658  1.0000
