data_image0
_chemical_formula_structural       Ca4O4ScSe
_chemical_formula_sum              "Ca4 O4 Sc1 Se1"
_cell_length_a       4.414547435313849
_cell_length_b       5.6150204482364945
_cell_length_c       8.538358688354492
_cell_angle_alpha    110.90422592984119
_cell_angle_beta     97.84001357526068
_cell_angle_gamma    93.74234871133284

_space_group_name_H-M_alt    "P 1"
_space_group_IT_number       1

loop_
  _space_group_symop_operation_xyz
  'x, y, z'

loop_
  _atom_site_type_symbol
  _atom_site_label
  _atom_site_symmetry_multiplicity
  _atom_site_fract_x
  _atom_site_fract_y
  _atom_site_fract_z
  _atom_site_occupancy
  Ca  Ca1       1.0  0.9004931449890137  0.15001924335956573  0.2348882406949997  1.0000
  Ca  Ca2       1.0  0.3326282501220703  0.5172595381736755  0.5973173975944519  1.0000
  Ca  Ca3       1.0  0.9712675809860231  0.15575382113456726  0.5804659724235535  1.0000
  Ca  Ca4       1.0  0.916210174560547  0.6221910119056702  0.8083341717720032  1.0000
  O   O1        1.0  0.6888455748558044  0.8031639456748962  0.8131482601165771  1.0000
  O   O2        1.0  0.10441656410694122  0.14028094708919525  0.15493373572826385  1.0000
  O   O3        1.0  0.7097939848899841  0.5940964221954346  0.5783514380455017  1.0000
  O   O4        1.0  0.18050524592399597  0.33065977692604065  0.24031250178813934  1.0000
  Sc  Sc1       1.0  0.8644608855247498  0.027876783162355423  0.4188304543495178  1.0000
  Se  Se1       1.0  0.535950243473053  0.84359210729599  0.095671147108078  1.0000
