data_image0
_chemical_formula_structural       Ca5CoMnO3
_chemical_formula_sum              "Ca5 Co1 Mn1 O3"
_cell_length_a       4.750101681482634
_cell_length_b       5.2471484591447375
_cell_length_c       11.222326278686523
_cell_angle_alpha    101.94470201675809
_cell_angle_beta     97.22182834951157
_cell_angle_gamma    92.18876788462472

_space_group_name_H-M_alt    "P 1"
_space_group_IT_number       1

loop_
  _space_group_symop_operation_xyz
  'x, y, z'

loop_
  _atom_site_type_symbol
  _atom_site_label
  _atom_site_symmetry_multiplicity
  _atom_site_fract_x
  _atom_site_fract_y
  _atom_site_fract_z
  _atom_site_occupancy
  Ca  Ca1       1.0  0.2186184972524643  0.9906774163246155  0.87748122215271  1.0000
  Ca  Ca2       1.0  0.5700095891952515  0.7949955463409424  0.2590506076812744  1.0000
  Ca  Ca3       1.0  0.2170581966638565  0.01477176696062088  0.44637441635131836  1.0000
  Ca  Ca4       1.0  0.21188168227672577  0.04038785770535469  0.7596873641014098  1.0000
  Ca  Ca5       1.0  0.19809797406196594  0.726747453212738  0.8115792870521545  1.0000
  Co  Co1       1.0  0.8902812600135803  0.24510660767555237  0.1344141662120819  1.0000
  Mn  Mn1       1.0  0.2583656311035156  0.5222674012184143  0.2760027348995209  1.0000
  O   O1        1.0  0.10615292191505432  0.8145831227302551  0.7268791794776917  1.0000
  O   O2        1.0  0.7429019212722778  0.24807187914848328  0.5569921731948853  1.0000
  O   O3        1.0  0.8045030832290649  0.6638080477714539  0.8849473595619202  1.0000
