data_image0
_chemical_formula_structural       Ca4MnO5
_chemical_formula_sum              "Ca4 Mn1 O5"
_cell_length_a       5.178087670282339
_cell_length_b       6.230230400857951
_cell_length_c       6.662553787231445
_cell_angle_alpha    108.39075943644714
_cell_angle_beta     103.88704115474529
_cell_angle_gamma    110.18834258417074

_space_group_name_H-M_alt    "P 1"
_space_group_IT_number       1

loop_
  _space_group_symop_operation_xyz
  'x, y, z'

loop_
  _atom_site_type_symbol
  _atom_site_label
  _atom_site_symmetry_multiplicity
  _atom_site_fract_x
  _atom_site_fract_y
  _atom_site_fract_z
  _atom_site_occupancy
  Ca  Ca1       1.0  0.48721444606781006  0.5435635447502136  0.07380737364292145  1.0000
  Ca  Ca2       1.0  0.11873741447925568  0.21967099606990814  0.6801928877830506  1.0000
  Ca  Ca3       1.0  0.031852543354034424  0.7196613550186157  0.017401231452822685  1.0000
  Ca  Ca4       1.0  0.4666910469532013  0.6110786199569702  0.21570329368114474  1.0000
  Mn  Mn1       1.0  0.06799587607383728  0.21253424882888794  0.2332086265087128  1.0000
  O   O1        1.0  0.3873305320739746  0.18792378902435303  0.7424329519271852  1.0000
  O   O2        1.0  0.840460479259491  0.8596736192703247  0.7963011860847474  1.0000
  O   O3        1.0  0.04385409131646156  0.7130759954452515  0.4941189885139466  1.0000
  O   O4        1.0  0.5244600772857666  0.38553115725517273  0.2146975100040436  1.0000
  O   O5        1.0  0.697577178478241  0.9228929281234741  0.6979846954345704  1.0000
