data_image0
_chemical_formula_structural       Ca3Mn3O4
_chemical_formula_sum              "Ca3 Mn3 O4"
_cell_length_a       4.398767718110176
_cell_length_b       4.427064442335586
_cell_length_c       8.095019340515137
_cell_angle_alpha    102.76532146238351
_cell_angle_beta     103.92189337724632
_cell_angle_gamma    90.71312898606722

_space_group_name_H-M_alt    "P 1"
_space_group_IT_number       1

loop_
  _space_group_symop_operation_xyz
  'x, y, z'

loop_
  _atom_site_type_symbol
  _atom_site_label
  _atom_site_symmetry_multiplicity
  _atom_site_fract_x
  _atom_site_fract_y
  _atom_site_fract_z
  _atom_site_occupancy
  Ca  Ca1       1.0  0.9814254641532898  0.43667107820510864  0.10243494063615799  1.0000
  Ca  Ca2       1.0  0.6946390867233276  0.01699209399521351  0.24429792165756226  1.0000
  Ca  Ca3       1.0  0.4386410713195801  0.46047163009643555  0.12710335850715637  1.0000
  Mn  Mn1       1.0  0.46810969710350037  0.947862982749939  0.8028421998023987  1.0000
  Mn  Mn2       1.0  0.6555041074752808  0.9460113644599915  0.42315903306007385  1.0000
  Mn  Mn3       1.0  0.9421145915985107  0.44763264060020447  0.10236800462007523  1.0000
  O   O1        1.0  0.9334771037101746  0.4118380546569824  0.8664673566818237  1.0000
  O   O2        1.0  0.3459630012512207  0.5428705215454102  0.9270592331886292  1.0000
  O   O3        1.0  0.9230943322181702  0.9273228645324707  0.7739774584770203  1.0000
  O   O4        1.0  0.1736355572938919  0.16297100484371185  0.5944899916648865  1.0000
