data_image0
_chemical_formula_structural       Ca3Mn3O4
_chemical_formula_sum              "Ca3 Mn3 O4"
_cell_length_a       3.876556884308626
_cell_length_b       4.529115649686178
_cell_length_c       9.30868148803711
_cell_angle_alpha    105.1530230689549
_cell_angle_beta     104.43146928660693
_cell_angle_gamma    88.04812082580457

_space_group_name_H-M_alt    "P 1"
_space_group_IT_number       1

loop_
  _space_group_symop_operation_xyz
  'x, y, z'

loop_
  _atom_site_type_symbol
  _atom_site_label
  _atom_site_symmetry_multiplicity
  _atom_site_fract_x
  _atom_site_fract_y
  _atom_site_fract_z
  _atom_site_occupancy
  Ca  Ca1       1.0  0.4771552979946137  0.7631247639656067  0.0796051099896431  1.0000
  Ca  Ca2       1.0  0.4807999134063721  0.2968944013118744  0.598448634147644  1.0000
  Ca  Ca3       1.0  0.1576105207204819  0.13795390725135803  0.8159037828445435  1.0000
  Mn  Mn1       1.0  0.005652845837175847  0.610443115234375  0.1459255963563919  1.0000
  Mn  Mn2       1.0  0.14943768084049228  0.6227344870567322  0.8499603271484375  1.0000
  Mn  Mn3       1.0  0.8498977422714235  0.2712157666683197  0.34952351450920105  1.0000
  O   O1        1.0  0.03909897431731225  0.8742498159408569  0.07906731218099597  1.0000
  O   O2        1.0  0.9359567761421205  0.029834646731615067  0.6067306995391846  1.0000
  O   O3        1.0  0.5097553730010986  0.7334027886390686  0.17273105680942535  1.0000
  O   O4        1.0  0.6801825761795045  0.5865464210510254  0.7831661701202393  1.0000
