data_image0
_chemical_formula_structural       Ca4IMn2O3
_chemical_formula_sum              "Ca4 I1 Mn2 O3"
_cell_length_a       6.094240523824669
_cell_length_b       5.812980507250575
_cell_length_c       8.076069831848145
_cell_angle_alpha    104.5982231160943
_cell_angle_beta     104.98742083633641
_cell_angle_gamma    90.29382862844938

_space_group_name_H-M_alt    "P 1"
_space_group_IT_number       1

loop_
  _space_group_symop_operation_xyz
  'x, y, z'

loop_
  _atom_site_type_symbol
  _atom_site_label
  _atom_site_symmetry_multiplicity
  _atom_site_fract_x
  _atom_site_fract_y
  _atom_site_fract_z
  _atom_site_occupancy
  Ca  Ca1       1.0  0.6858106255531311  0.8233720660209656  0.323783814907074  1.0000
  Ca  Ca2       1.0  0.41769272089004517  0.4996357560157776  0.035858675837516785  1.0000
  Ca  Ca3       1.0  0.012133141048252583  0.07913732528686523  0.40347859263420105  1.0000
  Ca  Ca4       1.0  0.6915993690490723  0.3156970739364624  0.5521946549415588  1.0000
  I   I1        1.0  0.3561428189277649  0.3267784118652344  0.743145763874054  1.0000
  Mn  Mn1       1.0  0.3348884582519531  0.8158948421478271  0.5434653759002686  1.0000
  Mn  Mn2       1.0  0.41527849435806274  0.3927723169326782  0.049612972885370255  1.0000
  O   O1        1.0  0.05916253477334976  0.538360595703125  0.6793854236602783  1.0000
  O   O2        1.0  0.8049508333206177  0.8249467015266418  0.6075260639190674  1.0000
  O   O3        1.0  0.22822123765945435  0.8722218871116638  0.3654516041278839  1.0000
