data_image0
_chemical_formula_structural       CuF3O5V3
_chemical_formula_sum              "Cu1 F3 O5 V3"
_cell_length_a       4.308580390317476
_cell_length_b       6.3910649533929975
_cell_length_c       7.243116855621338
_cell_angle_alpha    104.9311265811642
_cell_angle_beta     90.28269506972917
_cell_angle_gamma    107.43569526046596

_space_group_name_H-M_alt    "P 1"
_space_group_IT_number       1

loop_
  _space_group_symop_operation_xyz
  'x, y, z'

loop_
  _atom_site_type_symbol
  _atom_site_label
  _atom_site_symmetry_multiplicity
  _atom_site_fract_x
  _atom_site_fract_y
  _atom_site_fract_z
  _atom_site_occupancy
  Cu  Cu1       1.0  0.1380520462989807  0.609026312828064  0.1796389818191528  1.0000
  F   F1        1.0  0.17260757088661194  0.7701123356819153  0.2359298914670944  1.0000
  F   F2        1.0  0.7680935859680176  0.7595899105072021  0.6805384755134581  1.0000
  F   F3        1.0  0.008600449189543698  0.4626187980175018  0.6739872694015502  1.0000
  O   O1        1.0  0.838921308517456  0.4436823427677154  0.6387003064155578  1.0000
  O   O2        1.0  0.12132368981838221  0.9725258946418761  0.3690133094787597  1.0000
  O   O3        1.0  0.8457232117652893  0.6668581962585449  0.5025891661643982  1.0000
  O   O4        1.0  0.3563787341117859  0.46321520209312433  0.6827672719955443  1.0000
  O   O5        1.0  0.8661425709724426  0.9690322279930114  0.005302842706441878  1.0000
  V   V1        1.0  0.2686898410320282  0.2555690109729767  0.001979261403903365  1.0000
  V   V2        1.0  0.5245041847229004  0.4838262796401977  0.9683499336242675  1.0000
  V   V3        1.0  0.8299926519393921  0.9187906980514525  0.5232366919517517  1.0000
