data_image0
_chemical_formula_structural       BaF2O6Pt2V
_chemical_formula_sum              "Ba1 F2 O6 Pt2 V1"
_cell_length_a       4.070576973953702
_cell_length_b       5.860803995064097
_cell_length_c       6.78288459777832
_cell_angle_alpha    101.4996781919447
_cell_angle_beta     101.77909442630552
_cell_angle_gamma    100.11055378744447

_space_group_name_H-M_alt    "P 1"
_space_group_IT_number       1

loop_
  _space_group_symop_operation_xyz
  'x, y, z'

loop_
  _atom_site_type_symbol
  _atom_site_label
  _atom_site_symmetry_multiplicity
  _atom_site_fract_x
  _atom_site_fract_y
  _atom_site_fract_z
  _atom_site_occupancy
  Ba  Ba1       1.0  0.1992839574813843  0.5145587921142578  0.27785077691078186  1.0000
  F   F1        1.0  0.8345635533332826  0.0769319087266922  0.2759205996990204  1.0000
  F   F2        1.0  0.3778772354125977  0.684657633304596  0.022591089829802548  1.0000
  O   O1        1.0  0.5250317454338075  0.5005915760993958  0.46729129552841187  1.0000
  O   O2        1.0  0.025891344994306568  0.012390274554491043  0.11835285276174545  1.0000
  O   O3        1.0  0.5024838447570801  0.06077244505286217  0.3331283926963806  1.0000
  O   O4        1.0  0.868769943714142  0.37679123878479004  0.6771917939186096  1.0000
  O   O5        1.0  0.984878182411194  0.18370214104652405  0.30271485447883606  1.0000
  O   O6        1.0  0.1477570086717606  0.011872000992298126  0.6511756777763367  1.0000
  Pt  Pt1       1.0  0.6810103654861451  0.6833296418190002  0.749925434589386  1.0000
  Pt  Pt2       1.0  0.6092757582664491  0.9559498429298401  0.9606706500053406  1.0000
  V   V1        1.0  0.6541804671287538  0.199860617518425  0.18934132158756256  1.0000
