data_image0
_chemical_formula_structural       F3O3P2PbPtRhV
_chemical_formula_sum              "F3 O3 P2 Pb1 Pt1 Rh1 V1"
_cell_length_a       4.550148627513949
_cell_length_b       6.837160250295009
_cell_length_c       6.609713077545166
_cell_angle_alpha    117.42298731053654
_cell_angle_beta     92.94848503021143
_cell_angle_gamma    90.40953563156022

_space_group_name_H-M_alt    "P 1"
_space_group_IT_number       1

loop_
  _space_group_symop_operation_xyz
  'x, y, z'

loop_
  _atom_site_type_symbol
  _atom_site_label
  _atom_site_symmetry_multiplicity
  _atom_site_fract_x
  _atom_site_fract_y
  _atom_site_fract_z
  _atom_site_occupancy
  F   F1        1.0  0.8247737288475037  0.802612841129303  0.915591299533844  1.0000
  F   F2        1.0  0.3287891149520874  0.777848482131958  0.7644886374473572  1.0000
  F   F3        1.0  0.8364549279212952  0.031099796295166016  0.5948275923728943  1.0000
  O   O1        1.0  0.8150774240493774  0.5261143445968628  0.1486568748950958  1.0000
  O   O2        1.0  0.309932678937912  0.23373937606811523  0.32423141598701477  1.0000
  O   O3        1.0  0.33676040172576904  0.15044939517974854  0.7695541977882385  1.0000
  P   P1        1.0  0.8290719985961914  0.9455578327178955  0.7770180702209473  1.0000
  P   P2        1.0  0.3205966353416443  0.6634531021118164  0.613957941532135  1.0000
  Pb  Pb1       1.0  0.8217015862464905  0.29527634382247925  0.054876986891031265  1.0000
  Pt  Pt1       1.0  0.3196042478084564  0.7767695784568787  0.7795776724815369  1.0000
  Rh  Rh1       1.0  0.8029202222824097  0.9114859700202942  0.7739483118057251  1.0000
  V   V1        1.0  0.32341596484184265  0.5309673547744751  0.3013505935668945  1.0000
