data_image0
_chemical_formula_structural       Ag10FPt
_chemical_formula_sum              "Ag10 F1 Pt1"
_cell_length_a       5.179077893737194
_cell_length_b       5.541028288077904
_cell_length_c       5.006650447845459
_cell_angle_alpha    62.94049599063229
_cell_angle_beta     65.07343326657686
_cell_angle_gamma    63.03658874569097

_space_group_name_H-M_alt    "P 1"
_space_group_IT_number       1

loop_
  _space_group_symop_operation_xyz
  'x, y, z'

loop_
  _atom_site_type_symbol
  _atom_site_label
  _atom_site_symmetry_multiplicity
  _atom_site_fract_x
  _atom_site_fract_y
  _atom_site_fract_z
  _atom_site_occupancy
  Ag  Ag1       1.0  0.8639743328094482  0.2981127202510834  0.7925131916999817  1.0000
  Ag  Ag2       1.0  0.3448103964328766  0.13089442253112793  0.4308323562145233  1.0000
  Ag  Ag3       1.0  0.14420710504055023  0.2447085827589035  0.4098462760448456  1.0000
  Ag  Ag4       1.0  0.6171087026596069  0.5857595801353455  0.32863137125968933  1.0000
  Ag  Ag5       1.0  0.09210474789142609  0.6113647818565369  0.949384331703186  1.0000
  Ag  Ag6       1.0  0.013963750563561916  0.41430193185806274  0.183156818151474  1.0000
  Ag  Ag7       1.0  0.10866213589906693  0.5431735515594482  0.27374425530433655  1.0000
  Ag  Ag8       1.0  0.8332090973854065  0.1380884200334549  0.9534218311309814  1.0000
  Ag  Ag9       1.0  0.554768443107605  0.5287506580352783  0.13532283902168274  1.0000
  Ag  Ag10      1.0  0.4836075007915497  0.9370255470275879  0.5017240047454834  1.0000
  F   F1        1.0  0.9999378323554993  0.9428412914276123  0.5250049829483032  1.0000
  Pt  Pt1       1.0  0.5901926755905151  0.1304897516965866  0.2988795042037964  1.0000
