data_image0
_chemical_formula_structural       Ag6CaF3O2
_chemical_formula_sum              "Ag6 Ca1 F3 O2"
_cell_length_a       4.316710944839475
_cell_length_b       4.612914716119978
_cell_length_c       5.278953552246094
_cell_angle_alpha    125.96778232636866
_cell_angle_beta     98.07828309712454
_cell_angle_gamma    130.0517925793147

_space_group_name_H-M_alt    "P 1"
_space_group_IT_number       1

loop_
  _space_group_symop_operation_xyz
  'x, y, z'

loop_
  _atom_site_type_symbol
  _atom_site_label
  _atom_site_symmetry_multiplicity
  _atom_site_fract_x
  _atom_site_fract_y
  _atom_site_fract_z
  _atom_site_occupancy
  Ag  Ag1       1.0  0.5948564410209656  0.8462123870849609  0.4345555901527404  1.0000
  Ag  Ag2       1.0  0.8553299307823181  0.31052586436271673  0.3567369878292084  1.0000
  Ag  Ag3       1.0  0.3174982964992523  0.35528361797332764  0.07050844281911849  1.0000
  Ag  Ag4       1.0  0.42030563950538635  0.05040386691689494  0.6033990383148193  1.0000
  Ag  Ag5       1.0  0.8895882964134216  0.5143482685089111  0.005156654398888323  1.0000
  Ag  Ag6       1.0  0.8753950595855714  0.03444685414433488  0.7356451749801636  1.0000
  Ca  Ca1       1.0  0.49080437421798706  0.4724440276622772  0.02150435931980607  1.0000
  F   F1        1.0  0.09779385477304461  0.004226700402796306  0.3136729001998902  1.0000
  F   F2        1.0  0.5389396548271179  0.6531931161880493  0.6072919368743896  1.0000
  F   F3        1.0  0.4865638017654421  0.2560576498508456  0.7952957153320314  1.0000
  O   O1        1.0  0.1264270097017287  0.7789407372474669  0.41995090246200556  1.0000
  O   O2        1.0  0.14814081788063052  0.1343578398227692  0.2122621089220047  1.0000
