data_image0
_chemical_formula_structural       BaF3GeO2PtRhV3
_chemical_formula_sum              "Ba1 F3 Ge1 O2 Pt1 Rh1 V3"
_cell_length_a       4.850231202633636
_cell_length_b       6.431571598242032
_cell_length_c       6.764022350311279
_cell_angle_alpha    120.45081781000212
_cell_angle_beta     94.12353244680101
_cell_angle_gamma    89.33675678252457

_space_group_name_H-M_alt    "P 1"
_space_group_IT_number       1

loop_
  _space_group_symop_operation_xyz
  'x, y, z'

loop_
  _atom_site_type_symbol
  _atom_site_label
  _atom_site_symmetry_multiplicity
  _atom_site_fract_x
  _atom_site_fract_y
  _atom_site_fract_z
  _atom_site_occupancy
  Ba  Ba1       1.0  0.40298599004745483  0.7116003036499023  0.5505703091621399  1.0000
  F   F1        1.0  0.4046429395675659  0.2904351055622101  0.058809794485569  1.0000
  F   F2        1.0  0.9148495793342591  0.4970706105232239  0.04600286111235622  1.0000
  F   F3        1.0  0.9018195271492006  0.0428701750934124  0.5369493961334229  1.0000
  Ge  Ge1       1.0  0.42144584655761724  0.8929858803749084  0.9264124631881714  1.0000
  O   O1        1.0  0.24522057175636294  0.5220203995704651  0.9849810004234315  1.0000
  O   O2        1.0  0.7836229205131531  0.7968624830245972  0.9642921686172486  1.0000
  Pt  Pt1       1.0  0.39281338453292847  0.7094206213951111  0.49181079864501964  1.0000
  Rh  Rh1       1.0  0.9143322706222535  0.6175198554992676  0.10935904830694206  1.0000
  V   V1        1.0  0.40508630871772766  0.39091065526008606  0.4169982671737671  1.0000
  V   V2        1.0  0.9100163578987123  0.8296409249305725  0.8274878263473511  1.0000
  V   V3        1.0  0.9156975150108339  0.1169852614402771  0.04585190489888191  1.0000
