data_image0
_chemical_formula_structural       GaN2Nb6Zn
_chemical_formula_sum              "Ga1 N2 Nb6 Zn1"
_cell_length_a       5.66339967486658
_cell_length_b       5.713570734737936
_cell_length_c       7.231650352478027
_cell_angle_alpha    101.29142746229208
_cell_angle_beta     106.7014152423458
_cell_angle_gamma    109.8462093567439

_space_group_name_H-M_alt    "P 1"
_space_group_IT_number       1

loop_
  _space_group_symop_operation_xyz
  'x, y, z'

loop_
  _atom_site_type_symbol
  _atom_site_label
  _atom_site_symmetry_multiplicity
  _atom_site_fract_x
  _atom_site_fract_y
  _atom_site_fract_z
  _atom_site_occupancy
  Ga  Ga1       1.0  0.5202520489692688  0.9542717933654785  0.278704434633255  1.0000
  N   N1        1.0  0.19118212163448334  0.96067875623703  0.47032603621482844  1.0000
  N   N2        1.0  0.19600480794906616  0.1660236120223999  0.4726569056510925  1.0000
  Nb  Nb1       1.0  0.4225645363330841  0.551722526550293  0.6714412569999695  1.0000
  Nb  Nb2       1.0  0.7091511487960815  0.9728302359580994  0.8427401781082152  1.0000
  Nb  Nb3       1.0  0.18930569291114807  0.9310999512672424  0.9923341274261473  1.0000
  Nb  Nb4       1.0  0.7120956778526306  0.9650427103042603  0.48848491907119745  1.0000
  Nb  Nb5       1.0  0.6827230453491211  0.19345881044864655  0.4996535778045654  1.0000
  Nb  Nb6       1.0  0.938218891620636  0.5306017398834229  0.34157902002334595  1.0000
  Zn  Zn1       1.0  0.5387893915176392  0.2649705111980438  0.248023048043251  1.0000
