data_image0
_chemical_formula_structural       MnNb6NiZn2
_chemical_formula_sum              "Mn1 Nb6 Ni1 Zn2"
_cell_length_a       6.044984172921062
_cell_length_b       6.049841366374742
_cell_length_c       6.492397785186768
_cell_angle_alpha    109.2919460559912
_cell_angle_beta     107.08063188437664
_cell_angle_gamma    115.00445748427613

_space_group_name_H-M_alt    "P 1"
_space_group_IT_number       1

loop_
  _space_group_symop_operation_xyz
  'x, y, z'

loop_
  _atom_site_type_symbol
  _atom_site_label
  _atom_site_symmetry_multiplicity
  _atom_site_fract_x
  _atom_site_fract_y
  _atom_site_fract_z
  _atom_site_occupancy
  Mn  Mn1       1.0  0.97233909368515  0.46316027641296387  0.12065245211124422  1.0000
  Nb  Nb1       1.0  0.6359288096427917  0.45759645104408264  0.18778677284717563  1.0000
  Nb  Nb2       1.0  0.6446412205696106  0.9752861261367798  0.5740956664085388  1.0000
  Nb  Nb3       1.0  0.1781471073627472  0.4505753517150879  0.2381888777017594  1.0000
  Nb  Nb4       1.0  0.014961292967200278  0.9602175951004028  0.43519172072410595  1.0000
  Nb  Nb5       1.0  0.3079560101032257  0.9601256251335144  0.5008034706115724  1.0000
  Nb  Nb6       1.0  0.6437482237815857  0.9521926641464233  0.49943733215332037  1.0000
  Ni  Ni1       1.0  0.2773124575614929  0.9681387543678284  0.23468829691410067  1.0000
  Zn  Zn1       1.0  0.6402103900909424  0.44141119718551636  0.2679658830165863  1.0000
  Zn  Zn2       1.0  0.6496790647506714  0.9533725380897522  0.06687203049659729  1.0000
