data_image0
_chemical_formula_structural       NNb7Zn2
_chemical_formula_sum              "N1 Nb7 Zn2"
_cell_length_a       5.262360492046414
_cell_length_b       5.867477061055952
_cell_length_c       6.317516326904297
_cell_angle_alpha    115.77286713107027
_cell_angle_beta     110.30779489197438
_cell_angle_gamma    97.51120722390327

_space_group_name_H-M_alt    "P 1"
_space_group_IT_number       1

loop_
  _space_group_symop_operation_xyz
  'x, y, z'

loop_
  _atom_site_type_symbol
  _atom_site_label
  _atom_site_symmetry_multiplicity
  _atom_site_fract_x
  _atom_site_fract_y
  _atom_site_fract_z
  _atom_site_occupancy
  N   N1        1.0  0.6440222859382629  0.6550048589706421  0.9626639485359192  1.0000
  Nb  Nb1       1.0  0.31786975264549255  0.913127601146698  0.22015620768070215  1.0000
  Nb  Nb2       1.0  0.647783637046814  0.696724534034729  0.6869447231292725  1.0000
  Nb  Nb3       1.0  0.153374582529068  0.41824832558631897  0.13797396421432492  1.0000
  Nb  Nb4       1.0  0.9448900818824768  0.2519225478172302  0.6105882525444031  1.0000
  Nb  Nb5       1.0  0.14886702597141266  0.6457318067550659  0.37980177998542786  1.0000
  Nb  Nb6       1.0  0.6531252264976501  0.6607885360717773  0.04182325676083565  1.0000
  Nb  Nb7       1.0  0.64664626121521  0.14519694447517395  0.14450180530548096  1.0000
  Zn  Zn1       1.0  0.9764568209648132  0.4165768027305603  0.2547191381454468  1.0000
  Zn  Zn2       1.0  0.9238201975822449  0.9923154711723328  0.7850854992866516  1.0000
