data_image0
_chemical_formula_structural       CsNb6Zn3
_chemical_formula_sum              "Cs1 Nb6 Zn3"
_cell_length_a       5.935997695082084
_cell_length_b       6.226320669220404
_cell_length_c       6.260697841644287
_cell_angle_alpha    64.23768216903495
_cell_angle_beta     61.730235248716745
_cell_angle_gamma    61.559936280808415

_space_group_name_H-M_alt    "P 1"
_space_group_IT_number       1

loop_
  _space_group_symop_operation_xyz
  'x, y, z'

loop_
  _atom_site_type_symbol
  _atom_site_label
  _atom_site_symmetry_multiplicity
  _atom_site_fract_x
  _atom_site_fract_y
  _atom_site_fract_z
  _atom_site_occupancy
  Cs  Cs1       1.0  0.6095847487449646  0.13031840324401855  0.13230298459529877  1.0000
  Nb  Nb1       1.0  0.9009142518043518  0.48615846037864685  0.5006719231605531  1.0000
  Nb  Nb2       1.0  0.37978413701057434  0.24700717628002167  0.23936986923217776  1.0000
  Nb  Nb3       1.0  0.12455028295516968  0.7598705887794495  0.3431174755096436  1.0000
  Nb  Nb4       1.0  0.11747706681489944  0.7765405178070068  0.2512274980545044  1.0000
  Nb  Nb5       1.0  0.9063393473625183  0.7557162046432495  0.5010614991188049  1.0000
  Nb  Nb6       1.0  0.6222910284996033  0.2892617881298065  0.33340391516685486  1.0000
  Zn  Zn1       1.0  0.36675095558166504  0.26668453216552734  0.9996618032455445  1.0000
  Zn  Zn2       1.0  0.3762432932853699  0.9884171485900879  0.49455747008323675  1.0000
  Zn  Zn3       1.0  0.9124459624290466  0.44175198674201965  0.8507824540138246  1.0000
