data_image0
_chemical_formula_structural       Nb7Zn3
_chemical_formula_sum              "Nb7 Zn3"
_cell_length_a       5.727780556885644
_cell_length_b       6.092234308968203
_cell_length_c       6.616298198699951
_cell_angle_alpha    115.9801389470786
_cell_angle_beta     115.29898988270595
_cell_angle_gamma    92.81043851576207

_space_group_name_H-M_alt    "P 1"
_space_group_IT_number       1

loop_
  _space_group_symop_operation_xyz
  'x, y, z'

loop_
  _atom_site_type_symbol
  _atom_site_label
  _atom_site_symmetry_multiplicity
  _atom_site_fract_x
  _atom_site_fract_y
  _atom_site_fract_z
  _atom_site_occupancy
  Nb  Nb1       1.0  0.6055455207824707  0.07724819332361221  0.788108229637146  1.0000
  Nb  Nb2       1.0  0.6863222718238831  0.795095682144165  0.41895824670791626  1.0000
  Nb  Nb3       1.0  0.07152330875396729  0.554088830947876  0.1409778594970703  1.0000
  Nb  Nb4       1.0  0.8780443668365479  0.5503993630409241  0.6253377199172974  1.0000
  Nb  Nb5       1.0  0.12712395191192627  0.5516921877861023  0.46412086486816406  1.0000
  Nb  Nb6       1.0  0.28894805908203125  0.04845719411969185  0.618798017501831  1.0000
  Nb  Nb7       1.0  0.5728102326393127  0.5517275929450989  0.6212343573570251  1.0000
  Zn  Zn1       1.0  0.10609021782875061  0.4983815848827362  0.9017962217330933  1.0000
  Zn  Zn2       1.0  0.38126835227012634  0.1564386934041977  0.3748723864555359  1.0000
  Zn  Zn3       1.0  0.4324799180030823  0.14428643882274628  0.2651565968990326  1.0000
