data_image0
_chemical_formula_structural       ClNb8Zn
_chemical_formula_sum              "Cl1 Nb8 Zn1"
_cell_length_a       5.783493988083259
_cell_length_b       5.769114881681696
_cell_length_c       6.188091278076172
_cell_angle_alpha    111.64107616885306
_cell_angle_beta     110.36627765764383
_cell_angle_gamma    103.18279734333024

_space_group_name_H-M_alt    "P 1"
_space_group_IT_number       1

loop_
  _space_group_symop_operation_xyz
  'x, y, z'

loop_
  _atom_site_type_symbol
  _atom_site_label
  _atom_site_symmetry_multiplicity
  _atom_site_fract_x
  _atom_site_fract_y
  _atom_site_fract_z
  _atom_site_occupancy
  Cl  Cl1       1.0  0.43001148104667664  0.8054941296577454  0.6787455677986145  1.0000
  Nb  Nb1       1.0  0.8898206353187561  0.7926544547080994  0.866864264011383  1.0000
  Nb  Nb2       1.0  0.17398221790790558  0.38689231872558594  0.16792947053909302  1.0000
  Nb  Nb3       1.0  0.14918519556522378  0.9540013670921327  0.22625127434730527  1.0000
  Nb  Nb4       1.0  0.41896456480026245  0.8002321720123291  0.5672717094421387  1.0000
  Nb  Nb5       1.0  0.8908078670501709  0.4295917749404907  0.6620994806289673  1.0000
  Nb  Nb6       1.0  0.9009595513343811  0.8429309725761414  0.1770215928554535  1.0000
  Nb  Nb7       1.0  0.9148637652397156  0.41268390417099  0.6811381578445435  1.0000
  Nb  Nb8       1.0  0.39853087067604065  0.1653221845626831  0.6472043395042419  1.0000
  Zn  Zn1       1.0  0.6298689842224121  0.49133905768394476  0.2144642174243927  1.0000
