data_image0
_chemical_formula_structural       GeLa5O7
_chemical_formula_sum              "Ge1 La5 O7"
_cell_length_a       6.410469809130289
_cell_length_b       7.018873923904999
_cell_length_c       7.763611316680908
_cell_angle_alpha    113.08604957132657
_cell_angle_beta     114.26536697789409
_cell_angle_gamma    89.9113153733828

_space_group_name_H-M_alt    "P 1"
_space_group_IT_number       1

loop_
  _space_group_symop_operation_xyz
  'x, y, z'

loop_
  _atom_site_type_symbol
  _atom_site_label
  _atom_site_symmetry_multiplicity
  _atom_site_fract_x
  _atom_site_fract_y
  _atom_site_fract_z
  _atom_site_occupancy
  Ge  Ge1       1.0  0.13740256428718567  0.059386663138866425  0.023285795003175735  1.0000
  La  La1       1.0  0.3679012954235077  0.05892127752304077  0.02407199516892433  1.0000
  La  La2       1.0  0.8550236821174622  0.5524075627326965  0.024330662563443184  1.0000
  La  La3       1.0  0.04582015052437782  0.05127819627523422  0.45654022693634033  1.0000
  La  La4       1.0  0.11632148176431656  0.7766900062561035  0.029177645221352633  1.0000
  La  La5       1.0  0.8806046843528748  0.5478515625  0.6796132326126099  1.0000
  O   O1        1.0  0.0214203093200922  0.1123274490237236  0.2764067053794861  1.0000
  O   O2        1.0  0.36300715804100037  0.5722412467002869  0.055833637714385986  1.0000
  O   O3        1.0  0.6790747046470642  0.2513650357723236  0.19736525416374207  1.0000
  O   O4        1.0  0.8710464239120483  0.8676665425300598  0.4577205777168274  1.0000
  O   O5        1.0  0.40973520278930664  0.8634380102157593  0.9540954828262329  1.0000
  O   O6        1.0  0.5095701813697815  0.8642692565917969  0.20078565180301666  1.0000
  O   O7        1.0  0.9922651052474976  0.08257400244474411  0.2101750522851944  1.0000
