data_image0
_chemical_formula_structural       GeLa4O7Tl
_chemical_formula_sum              "Ge1 La4 O7 Tl1"
_cell_length_a       5.371041124654511
_cell_length_b       6.386480175073395
_cell_length_c       7.481009006500244
_cell_angle_alpha    110.00125504363048
_cell_angle_beta     109.46592460078953
_cell_angle_gamma    89.81664100795629

_space_group_name_H-M_alt    "P 1"
_space_group_IT_number       1

loop_
  _space_group_symop_operation_xyz
  'x, y, z'

loop_
  _atom_site_type_symbol
  _atom_site_label
  _atom_site_symmetry_multiplicity
  _atom_site_fract_x
  _atom_site_fract_y
  _atom_site_fract_z
  _atom_site_occupancy
  Ge  Ge1       1.0  0.6054121255874634  0.38711708784103394  0.2751612663269043  1.0000
  La  La1       1.0  0.48699331283569336  0.7331307530403137  0.586050570011139  1.0000
  La  La2       1.0  0.9858426451683046  0.2323903888463974  0.5984444618225099  1.0000
  La  La3       1.0  0.5027181506156921  0.7291517853736877  0.07425464689731599  1.0000
  La  La4       1.0  0.8137508630752563  0.9713309407234192  0.41190347075462347  1.0000
  O   O1        1.0  0.45001596212387085  0.027841750532388687  0.09950394928455354  1.0000
  O   O2        1.0  0.010012520477175713  0.4445859491825104  0.9314056038856507  1.0000
  O   O3        1.0  0.7442563772201538  0.04439133405685425  0.8046221733093263  1.0000
  O   O4        1.0  0.23603779077529907  0.05451412871479988  0.5782346725463868  1.0000
  O   O5        1.0  0.35187792778015137  0.7010779976844788  0.15810453891754153  1.0000
  O   O6        1.0  0.9667435884475708  0.5239468812942505  0.5687474608421326  1.0000
  O   O7        1.0  0.23104959726333618  0.531679630279541  0.6170330047607423  1.0000
  Tl  Tl1       1.0  0.9691271781921387  0.5124820470809937  0.16335649788379672  1.0000
