data_image0
_chemical_formula_structural       B2Ge2La3O5Se
_chemical_formula_sum              "B2 Ge2 La3 O5 Se1"
_cell_length_a       6.085176790710255
_cell_length_b       6.279581436326934
_cell_length_c       7.097200393676758
_cell_angle_alpha    108.39475970875922
_cell_angle_beta     106.30304349172472
_cell_angle_gamma    90.30549605467004

_space_group_name_H-M_alt    "P 1"
_space_group_IT_number       1

loop_
  _space_group_symop_operation_xyz
  'x, y, z'

loop_
  _atom_site_type_symbol
  _atom_site_label
  _atom_site_symmetry_multiplicity
  _atom_site_fract_x
  _atom_site_fract_y
  _atom_site_fract_z
  _atom_site_occupancy
  B   B1        1.0  0.9527210593223572  0.3169143497943878  0.6045762300491333  1.0000
  B   B2        1.0  0.13822129368782043  0.7950162887573242  0.9230973720550536  1.0000
  Ge  Ge1       1.0  0.9960464239120483  0.08324332535266876  0.46005827188491816  1.0000
  Ge  Ge2       1.0  0.5192297101020813  0.5657795667648315  0.6104313135147095  1.0000
  La  La1       1.0  0.24536657333374023  0.010810199193656445  0.11554695665836333  1.0000
  La  La2       1.0  0.8168240189552307  0.6052875518798828  0.47170680761337275  1.0000
  La  La3       1.0  0.2984377145767212  0.3876483142375946  0.3606768250465393  1.0000
  O   O1        1.0  0.7355679869651794  0.11065329611301422  0.9901107549667357  1.0000
  O   O2        1.0  0.5308852791786194  0.7110676169395447  0.8692719936370848  1.0000
  O   O3        1.0  0.08581237494945526  0.06435004621744156  0.9712218642234801  1.0000
  O   O4        1.0  0.5751018524169922  0.5888826251029968  0.4969187378883361  1.0000
  O   O5        1.0  0.3028843104839325  0.9437420964241028  0.45082503557205195  1.0000
  Se  Se1       1.0  0.2912614941596985  0.37215057015419006  0.6651537418365479  1.0000
