data_image0
_chemical_formula_structural       BGe3La3O6
_chemical_formula_sum              "B1 Ge3 La3 O6"
_cell_length_a       6.474200362029215
_cell_length_b       6.616576698549119
_cell_length_c       6.739696025848389
_cell_angle_alpha    109.74770661570862
_cell_angle_beta     107.94703283679426
_cell_angle_gamma    100.68409314695114

_space_group_name_H-M_alt    "P 1"
_space_group_IT_number       1

loop_
  _space_group_symop_operation_xyz
  'x, y, z'

loop_
  _atom_site_type_symbol
  _atom_site_label
  _atom_site_symmetry_multiplicity
  _atom_site_fract_x
  _atom_site_fract_y
  _atom_site_fract_z
  _atom_site_occupancy
  B   B1        1.0  0.40920117497444153  0.06284508854150772  0.8014805316925049  1.0000
  Ge  Ge1       1.0  0.8462647199630737  0.6091599464416504  0.6458607316017151  1.0000
  Ge  Ge2       1.0  0.8048911094665527  0.6557118892669678  0.6493995189666748  1.0000
  Ge  Ge3       1.0  0.25314679741859436  0.166847825050354  0.5350082516670227  1.0000
  La  La1       1.0  0.1375298053026199  0.8342106342315673  0.07487872242927544  1.0000
  La  La2       1.0  0.18345463275909424  0.36258053779602045  0.513494610786438  1.0000
  La  La3       1.0  0.6772748231887817  0.38576054573059076  0.2202776074409485  1.0000
  O   O1        1.0  0.47579240798950195  0.7920988798141478  0.10565866529941552  1.0000
  O   O2        1.0  0.859503984451294  0.9162604808807372  0.38518473505973816  1.0000
  O   O3        1.0  0.588090181350708  0.8611184358596801  0.3885501027107239  1.0000
  O   O4        1.0  0.11141151934862137  0.007236748002469539  0.9252378344535828  1.0000
  O   O5        1.0  0.4695320725440979  0.34554323554038996  0.8763560056686401  1.0000
  O   O6        1.0  0.1945689618587494  0.3756848573684692  0.4635273516178131  1.0000
