data_image0
_chemical_formula_structural       Ge3La3LuO5P
_chemical_formula_sum              "Ge3 La3 Lu1 O5 P1"
_cell_length_a       5.511990067350797
_cell_length_b       6.273671858704901
_cell_length_c       6.377967834472656
_cell_angle_alpha    73.02731292251839
_cell_angle_beta     69.05460089763874
_cell_angle_gamma    64.348040817477

_space_group_name_H-M_alt    "P 1"
_space_group_IT_number       1

loop_
  _space_group_symop_operation_xyz
  'x, y, z'

loop_
  _atom_site_type_symbol
  _atom_site_label
  _atom_site_symmetry_multiplicity
  _atom_site_fract_x
  _atom_site_fract_y
  _atom_site_fract_z
  _atom_site_occupancy
  Ge  Ge1       1.0  0.769960343837738  0.130668506026268  0.062365587800741196  1.0000
  Ge  Ge2       1.0  0.505172848701477  0.2694282531738281  0.2000018209218979  1.0000
  Ge  Ge3       1.0  0.001684212009422481  0.9459948539733887  0.5779041051864624  1.0000
  La  La1       1.0  0.6851688027381897  0.7867036461830139  0.3410232663154602  1.0000
  La  La2       1.0  0.6724734306335449  0.4012506902217865  0.8316206932067871  1.0000
  La  La3       1.0  0.1938484162092209  0.8253781199455261  0.011986419558525085  1.0000
  Lu  Lu1       1.0  0.15285004675388336  0.8911798596382141  0.7170614004135132  1.0000
  O   O1        1.0  0.17823627591133118  0.4691540598869324  0.47909238934516907  1.0000
  O   O2        1.0  0.32138845324516296  0.19935880601406097  0.5569321513175964  1.0000
  O   O3        1.0  0.8398798704147339  0.26003971695899963  0.23839817941188812  1.0000
  O   O4        1.0  0.5526458621025085  0.46156546473503113  0.6930786371231079  1.0000
  O   O5        1.0  0.9302940368652344  0.055560402572155  0.35895785689353943  1.0000
  P   P1        1.0  0.15819278359413147  0.3902615010738373  0.8775634169578552  1.0000
