data_image0
_chemical_formula_structural       BGe2La4O6
_chemical_formula_sum              "B1 Ge2 La4 O6"
_cell_length_a       6.436568795310704
_cell_length_b       6.8311290254457155
_cell_length_c       6.757206916809082
_cell_angle_alpha    109.02130525998335
_cell_angle_beta     108.89938838218062
_cell_angle_gamma    103.70110769238181

_space_group_name_H-M_alt    "P 1"
_space_group_IT_number       1

loop_
  _space_group_symop_operation_xyz
  'x, y, z'

loop_
  _atom_site_type_symbol
  _atom_site_label
  _atom_site_symmetry_multiplicity
  _atom_site_fract_x
  _atom_site_fract_y
  _atom_site_fract_z
  _atom_site_occupancy
  B   B1        1.0  0.3038915693759918  0.6406404972076416  0.7830484509468079  1.0000
  Ge  Ge1       1.0  0.690090537071228  0.05736813694238663  0.532619059085846  1.0000
  Ge  Ge2       1.0  0.4407846927642822  0.7789510488510132  0.9980869889259338  1.0000
  La  La1       1.0  0.4010672867298126  0.27409330010414124  0.3378354609012604  1.0000
  La  La2       1.0  0.35675856471061707  0.3330431878566742  0.2553802728652954  1.0000
  La  La3       1.0  0.8280786275863647  0.9800365567207336  0.7021568417549133  1.0000
  La  La4       1.0  0.025418896228075027  0.15080611407756805  0.7568581700325012  1.0000
  O   O1        1.0  0.7184345126152039  0.28974685072898865  0.02889987640082836  1.0000
  O   O2        1.0  0.6565576195716858  0.3125155568122864  0.011146391741931438  1.0000
  O   O3        1.0  0.8347398042678833  0.8460163474082947  0.3948352336883545  1.0000
  O   O4        1.0  0.40421533584594727  0.5183519721031189  0.2625357508659362  1.0000
  O   O5        1.0  0.06341759115457535  0.20506064593791962  0.4938417673110962  1.0000
  O   O6        1.0  0.10557528585195541  0.6889326572418213  0.8886226415634155  1.0000
