data_image0
_chemical_formula_structural       HPRh2V2
_chemical_formula_sum              "H1 P1 Rh2 V2"
_cell_length_a       2.800223372227308
_cell_length_b       3.6766343002533195
_cell_length_c       5.182435035705566
_cell_angle_alpha    100.8666481131597
_cell_angle_beta     124.28823913653127
_cell_angle_gamma    69.87199093221047

_space_group_name_H-M_alt    "P 1"
_space_group_IT_number       1

loop_
  _space_group_symop_operation_xyz
  'x, y, z'

loop_
  _atom_site_type_symbol
  _atom_site_label
  _atom_site_symmetry_multiplicity
  _atom_site_fract_x
  _atom_site_fract_y
  _atom_site_fract_z
  _atom_site_occupancy
  H   H1        1.0  0.4887509346008301  0.5261235237121582  0.11083227396011347  1.0000
  P   P1        1.0  0.9288395643234253  0.5296592712402344  0.6392301917076111  1.0000
  Rh  Rh1       1.0  0.6547342538833618  0.05936753377318382  0.302903264760971  1.0000
  Rh  Rh2       1.0  0.16900257766246796  0.5636152625083923  0.4980883598327636  1.0000
  V   V1        1.0  0.2401808202266693  0.7945330142974854  0.25450611114501953  1.0000
  V   V2        1.0  0.584568440914154  0.24772396683692932  0.7623420357704163  1.0000
