data_image0
_chemical_formula_structural       AgFRh3Se
_chemical_formula_sum              "Ag1 F1 Rh3 Se1"
_cell_length_a       3.1465229334901417
_cell_length_b       3.3595761055448667
_cell_length_c       3.907726287841797
_cell_angle_alpha    98.27940590412958
_cell_angle_beta     110.61487744422062
_cell_angle_gamma    88.21945488752479

_space_group_name_H-M_alt    "P 1"
_space_group_IT_number       1

loop_
  _space_group_symop_operation_xyz
  'x, y, z'

loop_
  _atom_site_type_symbol
  _atom_site_label
  _atom_site_symmetry_multiplicity
  _atom_site_fract_x
  _atom_site_fract_y
  _atom_site_fract_z
  _atom_site_occupancy
  Ag  Ag1       1.0  0.8357621431350708  0.019417738541960716  0.012454651296138793  1.0000
  F   F1        1.0  0.08022700995206833  0.4183203279972076  0.6734154224395753  1.0000
  Rh  Rh1       1.0  0.9222342371940614  0.06606779247522354  0.497913807630539  1.0000
  Rh  Rh2       1.0  0.5601723194122314  0.42832127213478083  0.24779388308525088  1.0000
  Rh  Rh3       1.0  0.4849050641059876  0.9162138104438781  0.7167874574661256  1.0000
  Se  Se1       1.0  0.6548219919204712  0.4879848957061767  0.4999512732028962  1.0000
