data_image0
_chemical_formula_structural       B3Mn2Ru3
_chemical_formula_sum              "B3 Mn2 Ru3"
_cell_length_a       2.988435223650578
_cell_length_b       5.473093805167461
_cell_length_c       5.452700614929199
_cell_angle_alpha    108.02895231722603
_cell_angle_beta     90.08808399940649
_cell_angle_gamma    89.9786223079681

_space_group_name_H-M_alt    "P 1"
_space_group_IT_number       1

loop_
  _space_group_symop_operation_xyz
  'x, y, z'

loop_
  _atom_site_type_symbol
  _atom_site_label
  _atom_site_symmetry_multiplicity
  _atom_site_fract_x
  _atom_site_fract_y
  _atom_site_fract_z
  _atom_site_occupancy
  B   B1        1.0  0.7336146235466003  0.4110102951526642  0.3609969913959504  1.0000
  B   B2        1.0  0.23381410539150238  0.006093834061175585  0.6924043297767639  1.0000
  B   B3        1.0  0.7339010238647461  0.7267207503318787  0.9641661047935486  1.0000
  Mn  Mn1       1.0  0.7337827682495117  0.8900638818740845  0.4261777400970459  1.0000
  Mn  Mn2       1.0  0.23486366868019104  0.6185406446456909  0.6525077223777771  1.0000
  Ru  Ru1       1.0  0.23279228806495667  0.050251200795173645  0.09783029556274414  1.0000
  Ru  Ru2       1.0  0.7353142499923706  0.29353949427604675  0.7869600057601929  1.0000
  Ru  Ru3       1.0  0.2340073585510254  0.5555267930030823  0.1513001471757889  1.0000
