data_image0
_chemical_formula_structural       B2ClCuEuPTeZr
_chemical_formula_sum              "B2 Cl1 Cu1 Eu1 P1 Te1 Zr1"
_cell_length_a       5.579811475380961
_cell_length_b       5.593016939486941
_cell_length_c       5.997072219848633
_cell_angle_alpha    90.1316432786579
_cell_angle_beta     90.06174682556205
_cell_angle_gamma    119.63154742591433

_space_group_name_H-M_alt    "P 1"
_space_group_IT_number       1

loop_
  _space_group_symop_operation_xyz
  'x, y, z'

loop_
  _atom_site_type_symbol
  _atom_site_label
  _atom_site_symmetry_multiplicity
  _atom_site_fract_x
  _atom_site_fract_y
  _atom_site_fract_z
  _atom_site_occupancy
  B   B1        1.0  0.4463863968849182  0.792113721370697  0.38085639476776123  1.0000
  B   B2        1.0  0.12352582812309265  0.5804486870765686  0.38071045279502863  1.0000
  Cl  Cl1       1.0  0.5312997698783875  0.5618765354156494  0.9777584671974182  1.0000
  Cu  Cu1       1.0  0.8272193670272827  0.7833588719367981  0.37955844402313227  1.0000
  Eu  Eu1       1.0  0.861774206161499  0.2429349571466446  0.8946491479873657  1.0000
  P   P1        1.0  0.8500489592552185  0.2271386981010437  0.37865006923675537  1.0000
  Te  Te1       1.0  0.17867065966129303  0.9034630656242371  0.7388382554054261  1.0000
  Zr  Zr1       1.0  0.3738122582435608  0.2726099491119385  0.38029772043228155  1.0000
