data_image0
_chemical_formula_structural       O9Sr4Tb
_chemical_formula_sum              "O9 Sr4 Tb1"
_cell_length_a       6.132282316386596
_cell_length_b       5.705028036265808
_cell_length_c       6.201704502105713
_cell_angle_alpha    45.33520498432745
_cell_angle_beta     60.5908578551435
_cell_angle_gamma    52.8502873678888

_space_group_name_H-M_alt    "P 1"
_space_group_IT_number       1

loop_
  _space_group_symop_operation_xyz
  'x, y, z'

loop_
  _atom_site_type_symbol
  _atom_site_label
  _atom_site_symmetry_multiplicity
  _atom_site_fract_x
  _atom_site_fract_y
  _atom_site_fract_z
  _atom_site_occupancy
  O   O1        1.0  0.6482430100440979  0.8401698470115663  0.5366439819335938  1.0000
  O   O2        1.0  0.31516194343566895  0.3905664682388306  0.03315221890807152  1.0000
  O   O3        1.0  0.6795485615730286  0.9711753129959108  0.40501856803894043  1.0000
  O   O4        1.0  0.9217228293418884  0.9633899331092836  0.7405126094818115  1.0000
  O   O5        1.0  0.9759247303009033  0.8764579296112062  0.5248854756355286  1.0000
  O   O6        1.0  0.9364514946937561  0.11892760545015336  0.7719150185585022  1.0000
  O   O7        1.0  0.774273157119751  0.2286888808012009  0.1887863278388977  1.0000
  O   O8        1.0  0.20152583718299866  0.2790425419807434  0.5061293244361877  1.0000
  O   O9        1.0  0.34362828731536865  0.10812580585479738  0.11226321011781691  1.0000
  Sr  Sr1       1.0  0.1878227442502975  0.8235883116722108  0.09823532402515411  1.0000
  Sr  Sr2       1.0  0.39215755462646484  0.03476046770811081  0.017260432243347168  1.0000
  Sr  Sr3       1.0  0.617007315158844  0.7421069741249086  0.4004676043987274  1.0000
  Sr  Sr4       1.0  0.08145764470100403  0.5974759459495544  0.5216251015663147  1.0000
  Tb  Tb1       1.0  0.905298113822937  0.10377623885869981  0.10406260937452316  1.0000
