data_image0
_chemical_formula_structural       O7PSr4ZnZr
_chemical_formula_sum              "O7 P1 Sr4 Zn1 Zr1"
_cell_length_a       5.849699655934057
_cell_length_b       6.690260598306577
_cell_length_c       7.791844367980957
_cell_angle_alpha    89.62726328145932
_cell_angle_beta     90.89669222533708
_cell_angle_gamma    91.3668839129012

_space_group_name_H-M_alt    "P 1"
_space_group_IT_number       1

loop_
  _space_group_symop_operation_xyz
  'x, y, z'

loop_
  _atom_site_type_symbol
  _atom_site_label
  _atom_site_symmetry_multiplicity
  _atom_site_fract_x
  _atom_site_fract_y
  _atom_site_fract_z
  _atom_site_occupancy
  O   O1        1.0  0.34961023926734924  0.24182002246379852  0.9705672264099121  1.0000
  O   O2        1.0  0.34689533710479736  0.8154537677764893  0.5742602348327637  1.0000
  O   O3        1.0  0.8600311279296875  0.6962752938270569  0.9299525618553162  1.0000
  O   O4        1.0  0.847510576248169  0.6483389735221863  0.22578930854797363  1.0000
  O   O5        1.0  0.35121870040893555  0.2252783179283142  0.7136844396591187  1.0000
  O   O6        1.0  0.6427393555641174  0.9570714831352234  0.2434840351343155  1.0000
  O   O7        1.0  0.843784511089325  0.3069262206554413  0.6160951256752014  1.0000
  P   P1        1.0  0.17037461698055267  0.01219109445810318  0.17145033180713654  1.0000
  Sr  Sr1       1.0  0.8663520812988281  0.9308130145072937  0.7951417565345764  1.0000
  Sr  Sr2       1.0  0.8748016357421875  0.6079176068305969  0.5316012501716614  1.0000
  Sr  Sr3       1.0  0.3654981553554535  0.8453196287155151  0.23039337992668152  1.0000
  Sr  Sr4       1.0  0.017299342900514603  0.3801104426383972  0.8746380805969238  1.0000
  Zn  Zn1       1.0  0.5256505608558655  0.24799364805221558  0.8825123906135559  1.0000
  Zr  Zr1       1.0  0.3654749393463135  0.8922558426856995  0.33566081523895264  1.0000
