data_image0
_chemical_formula_structural       IO7Sr6
_chemical_formula_sum              "I1 O7 Sr6"
_cell_length_a       5.913652479086697
_cell_length_b       6.072611733385406
_cell_length_c       6.316005229949951
_cell_angle_alpha    109.91270063062845
_cell_angle_beta     111.65027177257818
_cell_angle_gamma    110.43967806645452

_space_group_name_H-M_alt    "P 1"
_space_group_IT_number       1

loop_
  _space_group_symop_operation_xyz
  'x, y, z'

loop_
  _atom_site_type_symbol
  _atom_site_label
  _atom_site_symmetry_multiplicity
  _atom_site_fract_x
  _atom_site_fract_y
  _atom_site_fract_z
  _atom_site_occupancy
  I   I1        1.0  0.7361150979995728  0.9889125823974609  0.004622460808604921  1.0000
  O   O1        1.0  0.3110142648220062  0.08302375674247742  0.15925563871860504  1.0000
  O   O2        1.0  0.01509229838848114  0.44290053844451904  0.20724400877952576  1.0000
  O   O3        1.0  0.04366505518555641  0.9746143817901611  0.9543240666389466  1.0000
  O   O4        1.0  0.677332878112793  0.19229094684123993  0.5248053073883057  1.0000
  O   O5        1.0  0.3216334283351898  0.8511492013931274  0.30314451456069946  1.0000
  O   O6        1.0  0.569837749004364  0.576583743095398  0.43105435371398926  1.0000
  O   O7        1.0  0.676002562046051  0.10319232940673828  0.42905497550964355  1.0000
  Sr  Sr1       1.0  0.34774914383888245  0.11679085344076157  0.638525664806366  1.0000
  Sr  Sr2       1.0  0.8859061598777771  0.3955106735229492  0.6381652355194092  1.0000
  Sr  Sr3       1.0  0.25981658697128296  0.721785306930542  0.322460412979126  1.0000
  Sr  Sr4       1.0  0.018217604607343674  0.749047577381134  0.24413578212261203  1.0000
  Sr  Sr5       1.0  0.313269704580307  0.05453560873866081  0.08247120678424835  1.0000
  Sr  Sr6       1.0  0.6588000655174255  0.8030627369880676  0.16837255656719208  1.0000
