data_image0
_chemical_formula_structural       CaO7Sr6
_chemical_formula_sum              "Ca1 O7 Sr6"
_cell_length_a       6.823848078736556
_cell_length_b       6.406108060958178
_cell_length_c       6.6719207763671875
_cell_angle_alpha    65.45047903662643
_cell_angle_beta     64.48181474286692
_cell_angle_gamma    63.379833646563924

_space_group_name_H-M_alt    "P 1"
_space_group_IT_number       1

loop_
  _space_group_symop_operation_xyz
  'x, y, z'

loop_
  _atom_site_type_symbol
  _atom_site_label
  _atom_site_symmetry_multiplicity
  _atom_site_fract_x
  _atom_site_fract_y
  _atom_site_fract_z
  _atom_site_occupancy
  Ca  Ca1       1.0  0.962916612625122  0.9045416116714478  0.15801672637462616  1.0000
  O   O1        1.0  0.6455326676368713  0.9002413153648376  0.003303026780486107  1.0000
  O   O2        1.0  0.16084958612918854  0.20940926671028137  0.17278552055358887  1.0000
  O   O3        1.0  0.4386660158634186  0.6305172443389893  0.1366894543170929  1.0000
  O   O4        1.0  0.6893771886825562  0.16703122854232788  0.19263283908367157  1.0000
  O   O5        1.0  0.6087043285369873  0.900363564491272  0.5475946664810181  1.0000
  O   O6        1.0  0.7145063877105713  0.3933011591434479  0.321782797574997  1.0000
  O   O7        1.0  0.039178505539894104  0.8712983131408691  0.8494243025779724  1.0000
  Sr  Sr1       1.0  0.02263176068663597  0.8970518708229065  0.6906948685646057  1.0000
  Sr  Sr2       1.0  0.005521681159734726  0.35786139965057373  0.6125208139419556  1.0000
  Sr  Sr3       1.0  0.4592432081699371  0.44388702511787415  0.867965042591095  1.0000
  Sr  Sr4       1.0  0.02072208561003208  0.27584829926490784  0.8445202708244324  1.0000
  Sr  Sr5       1.0  0.4691059291362762  0.24252571165561676  0.3872649669647217  1.0000
  Sr  Sr6       1.0  0.4902141988277435  0.18427707254886627  0.9676423072814941  1.0000
