data_image0
_chemical_formula_structural       Ca2IInIrNbO4PbSr2Zr
_chemical_formula_sum              "Ca2 I1 In1 Ir1 Nb1 O4 Pb1 Sr2 Zr1"
_cell_length_a       6.355580858838453
_cell_length_b       6.114718685843815
_cell_length_c       8.366710662841797
_cell_angle_alpha    89.68089571794211
_cell_angle_beta     89.68998369289062
_cell_angle_gamma    90.20146182978934

_space_group_name_H-M_alt    "P 1"
_space_group_IT_number       1

loop_
  _space_group_symop_operation_xyz
  'x, y, z'

loop_
  _atom_site_type_symbol
  _atom_site_label
  _atom_site_symmetry_multiplicity
  _atom_site_fract_x
  _atom_site_fract_y
  _atom_site_fract_z
  _atom_site_occupancy
  Ca  Ca1       1.0  0.7886576652526855  0.6042731404304504  0.8428398966789246  1.0000
  Ca  Ca2       1.0  0.7900508046150208  0.2100636065006256  0.369201123714447  1.0000
  I   I1        1.0  0.2864966094493866  0.7527980804443359  0.78093421459198  1.0000
  In  In1       1.0  0.28377068042755127  0.39196470379829407  0.9414464831352234  1.0000
  Ir  Ir1       1.0  0.7870316505432129  0.8734697103500366  0.41434717178344727  1.0000
  Nb  Nb1       1.0  0.288892537355423  0.3796996772289276  0.4905766248703003  1.0000
  O   O1        1.0  0.4128078818321228  0.8368110060691833  0.26883369684219355  1.0000
  O   O2        1.0  0.9687373042106628  0.8141030669212341  0.8235769271850586  1.0000
  O   O3        1.0  0.15430471301078796  0.6571930646896362  0.07275094091892242  1.0000
  O   O4        1.0  0.41428640484809875  0.06798043847084045  0.26855921745300293  1.0000
  Pb  Pb1       1.0  0.29734769463539124  0.4440770745277405  0.8422390818595886  1.0000
  Sr  Sr1       1.0  0.4831390678882599  0.0820363461971283  0.8501538634300232  1.0000
  Sr  Sr2       1.0  0.7758234739303589  0.6240482926368713  0.07179030030965805  1.0000
  Zr  Zr1       1.0  0.7942366600036621  0.11653635650873184  0.3036438524723053  1.0000
