data_image0
_chemical_formula_structural       Ca2O8Sr4
_chemical_formula_sum              "Ca2 O8 Sr4"
_cell_length_a       5.10304682844611
_cell_length_b       4.448494727408085
_cell_length_c       4.838913440704346
_cell_angle_alpha    91.24694357231826
_cell_angle_beta     91.6293300713942
_cell_angle_gamma    93.2476820024651

_space_group_name_H-M_alt    "P 1"
_space_group_IT_number       1

loop_
  _space_group_symop_operation_xyz
  'x, y, z'

loop_
  _atom_site_type_symbol
  _atom_site_label
  _atom_site_symmetry_multiplicity
  _atom_site_fract_x
  _atom_site_fract_y
  _atom_site_fract_z
  _atom_site_occupancy
  Ca  Ca1       1.0  0.57892906665802  0.005024201236665249  0.04316994547843933  1.0000
  Ca  Ca2       1.0  0.07682865858078003  0.3426338732242584  0.3468480408191681  1.0000
  O   O1        1.0  0.605277955532074  0.15448229014873505  0.036981020122766495  1.0000
  O   O2        1.0  0.5781731605529785  0.7938038110733032  0.9021660685539246  1.0000
  O   O3        1.0  0.571421205997467  0.9998431205749512  0.1575428992509842  1.0000
  O   O4        1.0  0.08087954670190811  0.03671972453594208  0.5943402647972107  1.0000
  O   O5        1.0  0.5725775361061096  0.06267702579498291  0.15938548743724823  1.0000
  O   O6        1.0  0.5850146412849426  0.32027536630630493  0.2846645712852478  1.0000
  O   O7        1.0  0.09195058047771454  0.23288743197917938  0.6489697694778442  1.0000
  O   O8        1.0  0.14048711955547333  0.14681968092918396  0.034717950969934464  1.0000
  Sr  Sr1       1.0  0.06832018494606018  0.8367149829864502  0.13813908398151398  1.0000
  Sr  Sr2       1.0  0.5094699859619141  0.7832307815551758  0.2923665940761566  1.0000
  Sr  Sr3       1.0  0.07055170089006424  0.5506502985954285  0.4970008134841919  1.0000
  Sr  Sr4       1.0  0.15043064951896667  0.12959973514080048  0.13924896717071533  1.0000
