data_image0
_chemical_formula_structural       GaILi5PPtSc
_chemical_formula_sum              "Ga1 I1 Li5 P1 Pt1 Sc1"
_cell_length_a       6.131662182671991
_cell_length_b       5.711320577051872
_cell_length_c       6.907118797302246
_cell_angle_alpha    91.42920987943953
_cell_angle_beta     90.45000398129136
_cell_angle_gamma    81.10593267104339

_space_group_name_H-M_alt    "P 1"
_space_group_IT_number       1

loop_
  _space_group_symop_operation_xyz
  'x, y, z'

loop_
  _atom_site_type_symbol
  _atom_site_label
  _atom_site_symmetry_multiplicity
  _atom_site_fract_x
  _atom_site_fract_y
  _atom_site_fract_z
  _atom_site_occupancy
  Ga  Ga1       1.0  0.8513292670249938  0.581731915473938  0.6370375156402588  1.0000
  I   I1        1.0  0.23479917645454404  0.9374414682388306  0.30587640404701233  1.0000
  Li  Li1       1.0  0.5414053201675415  0.12287712842226028  0.48317086696624756  1.0000
  Li  Li2       1.0  0.03168195113539696  0.4974801242351532  0.23481446504592896  1.0000
  Li  Li3       1.0  0.5388337969779968  0.20200704038143158  0.5264737010002136  1.0000
  Li  Li4       1.0  0.013100715354084967  0.14618894457817078  0.46369099617004395  1.0000
  Li  Li5       1.0  0.5433750748634338  0.25306668877601624  0.3557407855987549  1.0000
  P   P1        1.0  0.25040096044540405  0.8758739233016968  0.4921954572200775  1.0000
  Pt  Pt1       1.0  0.8390274643898009  0.8474023342132568  0.7847328782081604  1.0000
  Sc  Sc1       1.0  0.5337679386138916  0.5636677145957947  0.3419857621192932  1.0000
