data_image0
_chemical_formula_structural       Cl2Li8
_chemical_formula_sum              "Cl2 Li8"
_cell_length_a       5.783445913864213
_cell_length_b       5.0162305443836726
_cell_length_c       4.917367458343506
_cell_angle_alpha    76.44097138187843
_cell_angle_beta     83.1667881099607
_cell_angle_gamma    82.55341995735276

_space_group_name_H-M_alt    "P 1"
_space_group_IT_number       1

loop_
  _space_group_symop_operation_xyz
  'x, y, z'

loop_
  _atom_site_type_symbol
  _atom_site_label
  _atom_site_symmetry_multiplicity
  _atom_site_fract_x
  _atom_site_fract_y
  _atom_site_fract_z
  _atom_site_occupancy
  Cl  Cl1       1.0  0.9528983235359191  0.5012049078941345  0.6314729452133179  1.0000
  Cl  Cl2       1.0  0.41097658872604365  0.8179366588592529  0.4182843565940857  1.0000
  Li  Li1       1.0  0.9312665462493895  0.6646170020103455  0.08858402073383331  1.0000
  Li  Li2       1.0  0.5330367088317871  0.23548340797424316  0.21668016910552979  1.0000
  Li  Li3       1.0  0.05658209696412086  0.482514888048172  0.12739171087741852  1.0000
  Li  Li4       1.0  0.7150104641914368  0.21608518064022064  0.04600761830806732  1.0000
  Li  Li5       1.0  0.37366625666618347  0.299299418926239  0.5770643353462219  1.0000
  Li  Li6       1.0  0.016750825569033623  0.05615517124533653  0.6665475368499756  1.0000
  Li  Li7       1.0  0.7474480271339417  0.9784436821937561  0.15523387491703033  1.0000
  Li  Li8       1.0  0.30258089303970337  0.036424167454242706  0.03742998093366623  1.0000
