data_image0
_chemical_formula_structural       ClLi7PZr
_chemical_formula_sum              "Cl1 Li7 P1 Zr1"
_cell_length_a       4.923699613531059
_cell_length_b       5.144727672070341
_cell_length_c       5.295806407928467
_cell_angle_alpha    88.17498961207372
_cell_angle_beta     84.15596601861034
_cell_angle_gamma    91.78520028728691

_space_group_name_H-M_alt    "P 1"
_space_group_IT_number       1

loop_
  _space_group_symop_operation_xyz
  'x, y, z'

loop_
  _atom_site_type_symbol
  _atom_site_label
  _atom_site_symmetry_multiplicity
  _atom_site_fract_x
  _atom_site_fract_y
  _atom_site_fract_z
  _atom_site_occupancy
  Cl  Cl1       1.0  0.16265778243541718  0.3083916902542114  0.4766341745853424  1.0000
  Li  Li1       1.0  0.8732725977897644  0.009741726331412792  0.508927047252655  1.0000
  Li  Li2       1.0  0.3511245846748352  0.8171607255935669  0.7328231334686279  1.0000
  Li  Li3       1.0  0.15859514474868774  0.2649768888950348  0.5647608637809753  1.0000
  Li  Li4       1.0  0.1421201527118683  0.27991658449172974  0.8669171333312988  1.0000
  Li  Li5       1.0  0.1208530440926552  0.794898509979248  0.9320195913314819  1.0000
  Li  Li6       1.0  0.8416734933853149  0.7660792469978333  0.13134795427322388  1.0000
  Li  Li7       1.0  0.6820860505104065  0.20409473776817322  0.8043221831321716  1.0000
  P   P1        1.0  0.14361900091171265  0.8560162782669067  0.5659391283988953  1.0000
  Zr  Zr1       1.0  0.6513245105743408  0.6533123254776001  0.24720007181167603  1.0000
