data_image0
_chemical_formula_structural       Cl3Li7
_chemical_formula_sum              "Cl3 Li7"
_cell_length_a       6.12684229798837
_cell_length_b       6.200205862599532
_cell_length_c       5.190838813781738
_cell_angle_alpha    58.04732041508982
_cell_angle_beta     52.4837468255118
_cell_angle_gamma    62.66808026731469

_space_group_name_H-M_alt    "P 1"
_space_group_IT_number       1

loop_
  _space_group_symop_operation_xyz
  'x, y, z'

loop_
  _atom_site_type_symbol
  _atom_site_label
  _atom_site_symmetry_multiplicity
  _atom_site_fract_x
  _atom_site_fract_y
  _atom_site_fract_z
  _atom_site_occupancy
  Cl  Cl1       1.0  0.31418853998184204  0.014498547650873661  0.3491514325141907  1.0000
  Cl  Cl2       1.0  0.8546980023384094  0.014100796543061733  0.32011300325393677  1.0000
  Cl  Cl3       1.0  0.8147242665290833  0.10426238179206848  0.398346483707428  1.0000
  Li  Li1       1.0  0.21715760231018066  0.7638844847679138  0.21801340579986572  1.0000
  Li  Li2       1.0  0.8608391880989075  0.949769914150238  0.44779789447784424  1.0000
  Li  Li3       1.0  0.9000467658042908  0.6148065328598022  0.2640643417835237  1.0000
  Li  Li4       1.0  0.21112805604934692  0.721669614315033  0.3557884097099304  1.0000
  Li  Li5       1.0  0.38637617230415344  0.1969403326511383  0.6390994787216187  1.0000
  Li  Li6       1.0  0.7197006344795227  0.34593501687049866  0.7656014561653137  1.0000
  Li  Li7       1.0  0.3712422549724579  0.5120667815208435  0.19936753809452057  1.0000
