data_image0
_chemical_formula_structural       ClGa2Li7
_chemical_formula_sum              "Cl1 Ga2 Li7"
_cell_length_a       5.852080165015047
_cell_length_b       5.875659796073326
_cell_length_c       6.138657093048096
_cell_angle_alpha    92.65122273164901
_cell_angle_beta     103.32343780296593
_cell_angle_gamma    92.71296443899122

_space_group_name_H-M_alt    "P 1"
_space_group_IT_number       1

loop_
  _space_group_symop_operation_xyz
  'x, y, z'

loop_
  _atom_site_type_symbol
  _atom_site_label
  _atom_site_symmetry_multiplicity
  _atom_site_fract_x
  _atom_site_fract_y
  _atom_site_fract_z
  _atom_site_occupancy
  Cl  Cl1       1.0  0.7127423286437989  0.6566989421844482  0.4082736074924469  1.0000
  Ga  Ga1       1.0  0.958406686782837  0.9898845553398133  0.0739038810133934  1.0000
  Ga  Ga2       1.0  0.7198716402053834  0.10620296746492387  0.6872822046279907  1.0000
  Li  Li1       1.0  0.9498054981231691  0.667629063129425  0.7501430511474609  1.0000
  Li  Li2       1.0  0.9129986763000489  0.08530675619840622  0.45104265213012695  1.0000
  Li  Li3       1.0  0.5414395332336426  0.24842055141925815  0.1210571900010109  1.0000
  Li  Li4       1.0  0.4609388709068299  0.49230444431304937  0.4176728427410126  1.0000
  Li  Li5       1.0  0.9669388532638551  0.5372021198272705  0.49195799231529236  1.0000
  Li  Li6       1.0  0.40359178185462957  0.022366851568222046  0.35795217752456665  1.0000
  Li  Li7       1.0  0.4561319053173066  0.49999687075614935  0.9493390321731567  1.0000
