data_image0
_chemical_formula_structural       Cu3FNiO2Ru5Zn3
_chemical_formula_sum              "Cu3 F1 Ni1 O2 Ru5 Zn3"
_cell_length_a       5.9324732781284215
_cell_length_b       6.741690618066573
_cell_length_c       6.819383144378662
_cell_angle_alpha    65.17189611219763
_cell_angle_beta     62.2727464788484
_cell_angle_gamma    62.099566318307005

_space_group_name_H-M_alt    "P 1"
_space_group_IT_number       1

loop_
  _space_group_symop_operation_xyz
  'x, y, z'

loop_
  _atom_site_type_symbol
  _atom_site_label
  _atom_site_symmetry_multiplicity
  _atom_site_fract_x
  _atom_site_fract_y
  _atom_site_fract_z
  _atom_site_occupancy
  Cu  Cu1       1.0  0.9623585939407349  0.6794403791427612  0.7149611711502075  1.0000
  Cu  Cu2       1.0  0.19834651052951804  0.9660094380378724  0.15127544105052948  1.0000
  Cu  Cu3       1.0  0.664309024810791  0.14227443933486938  0.12898892164230347  1.0000
  F   F1        1.0  0.44835352897644043  0.526700496673584  0.7502481341362  1.0000
  Ni  Ni1       1.0  0.2711082100868225  0.5513226985931396  0.43105047941207886  1.0000
  O   O1        1.0  0.11641928553581238  0.19595114886760714  0.9250113368034363  1.0000
  O   O2        1.0  0.46126866340637207  0.04290841892361641  0.777179479598999  1.0000
  Ru  Ru1       1.0  0.5961863994598389  0.3457912802696228  0.4094196856021881  1.0000
  Ru  Ru2       1.0  0.05360422283411022  0.7138556838035585  0.44850954413414  1.0000
  Ru  Ru3       1.0  0.5960922241210938  0.35766389966011053  0.920948326587677  1.0000
  Ru  Ru4       1.0  0.06544114649295807  0.2802245020866394  0.43138203024864197  1.0000
  Ru  Ru5       1.0  0.5898797512054443  0.8655861020088197  0.9224179983139038  1.0000
  Zn  Zn1       1.0  0.8268074989318848  0.8053336739540101  0.1653362214565277  1.0000
  Zn  Zn2       1.0  0.7665840983390808  0.6146899461746216  0.434737354516983  1.0000
  Zn  Zn3       1.0  0.6121804714202881  0.6438831090927124  0.9812955856323242  1.0000
