data_image0
_chemical_formula_structural       CsO2Ru3U6Zn3
_chemical_formula_sum              "Cs1 O2 Ru3 U6 Zn3"
_cell_length_a       6.3121108777811665
_cell_length_b       6.879880525717471
_cell_length_c       6.829930305480957
_cell_angle_alpha    64.41786204766984
_cell_angle_beta     61.42380781381999
_cell_angle_gamma    61.89895749336407

_space_group_name_H-M_alt    "P 1"
_space_group_IT_number       1

loop_
  _space_group_symop_operation_xyz
  'x, y, z'

loop_
  _atom_site_type_symbol
  _atom_site_label
  _atom_site_symmetry_multiplicity
  _atom_site_fract_x
  _atom_site_fract_y
  _atom_site_fract_z
  _atom_site_occupancy
  Cs  Cs1       1.0  0.6395434141159058  0.45659011602401733  0.7204484343528746  1.0000
  O   O1        1.0  0.40433019399642944  0.025100937113165855  0.2718549370765686  1.0000
  O   O2        1.0  0.48870745301246643  0.7215427756309509  0.4242673516273498  1.0000
  Ru  Ru1       1.0  0.18589866161346436  0.48470330238342285  0.7707902193069457  1.0000
  Ru  Ru2       1.0  0.7385396957397461  0.07203453779220581  0.033491287380456924  1.0000
  Ru  Ru3       1.0  0.7758813500404358  0.9557461142539978  0.2674897611141205  1.0000
  U   U1        1.0  0.23588703572750092  0.7242993116378784  0.935092270374298  1.0000
  U   U2        1.0  0.17131270468235016  0.9483591914176941  0.9847431182861327  1.0000
  U   U3        1.0  0.2605859637260437  0.4633805751800537  0.48656880855560297  1.0000
  U   U4        1.0  0.7374163269996643  0.3170267641544342  0.9545999169349669  1.0000
  U   U5        1.0  0.1906585693359375  0.4636448621749878  0.2795266807079315  1.0000
  U   U6        1.0  0.8056302070617676  0.07150880992412567  0.24740287661552426  1.0000
  Zn  Zn1       1.0  0.06176997721195221  0.3346252143383026  0.21901114284992215  1.0000
  Zn  Zn2       1.0  0.1517261415719986  0.9761223196983337  0.48982241749763483  1.0000
  Zn  Zn3       1.0  0.8036719560623169  0.6282287836074829  0.26890072226524353  1.0000
