data_image0
_chemical_formula_structural       Cu2FHO2Ru5TlZn3
_chemical_formula_sum              "Cu2 F1 H1 O2 Ru5 Tl1 Zn3"
_cell_length_a       5.9628829100322465
_cell_length_b       6.4955294663117735
_cell_length_c       6.7020111083984375
_cell_angle_alpha    63.00411020837245
_cell_angle_beta     61.71640936778404
_cell_angle_gamma    59.802860611062904

_space_group_name_H-M_alt    "P 1"
_space_group_IT_number       1

loop_
  _space_group_symop_operation_xyz
  'x, y, z'

loop_
  _atom_site_type_symbol
  _atom_site_label
  _atom_site_symmetry_multiplicity
  _atom_site_fract_x
  _atom_site_fract_y
  _atom_site_fract_z
  _atom_site_occupancy
  Cu  Cu1       1.0  0.9774574041366577  0.974208414554596  0.4291277825832367  1.0000
  Cu  Cu2       1.0  0.21599537134170532  0.6783979535102844  0.035985734313726425  1.0000
  F   F1        1.0  0.058958638459444046  0.35327017307281494  0.6421917676925659  1.0000
  H   H1        1.0  0.26010677218437195  0.6729697585105896  0.9362691044807434  1.0000
  O   O1        1.0  0.08313258737325668  0.5441397428512573  0.2348012626171112  1.0000
  O   O2        1.0  0.5904438495635986  0.011082712560892105  0.38741758465766907  1.0000
  Ru  Ru1       1.0  0.5960779190063477  0.5581440329551697  0.6757953763008118  1.0000
  Ru  Ru2       1.0  0.5985063314437866  0.6386500000953674  0.16320735216140747  1.0000
  Ru  Ru3       1.0  0.5993872284889221  0.09448684751987457  0.17485985159873962  1.0000
  Ru  Ru4       1.0  0.8517542481422424  0.659014880657196  0.8780125975608826  1.0000
  Ru  Ru5       1.0  0.08444266021251678  0.0537201352417469  0.13875360786914825  1.0000
  Tl  Tl1       1.0  0.9731225967407227  0.009978143498301506  0.43635061383247364  1.0000
  Zn  Zn1       1.0  0.5658463835716248  0.32894980907440186  0.43239647150039673  1.0000
  Zn  Zn2       1.0  0.9637632369995117  0.014598014764487743  0.9344442486762998  1.0000
  Zn  Zn3       1.0  0.32822275161743164  0.07717489451169968  0.6842994689941406  1.0000
