data_image0
_chemical_formula_structural       Cu2NbNd3O4Ru4S
_chemical_formula_sum              "Cu2 Nb1 Nd3 O4 Ru4 S1"
_cell_length_a       5.467377551941665
_cell_length_b       4.903062638679142
_cell_length_c       6.350663661956787
_cell_angle_alpha    58.879298782160795
_cell_angle_beta     62.48416272058359
_cell_angle_gamma    38.83626563037857

_space_group_name_H-M_alt    "P 1"
_space_group_IT_number       1

loop_
  _space_group_symop_operation_xyz
  'x, y, z'

loop_
  _atom_site_type_symbol
  _atom_site_label
  _atom_site_symmetry_multiplicity
  _atom_site_fract_x
  _atom_site_fract_y
  _atom_site_fract_z
  _atom_site_occupancy
  Cu  Cu1       1.0  0.7123777866363525  0.014646527357399465  0.48053491115570074  1.0000
  Cu  Cu2       1.0  0.7897378206253052  0.3973092138767243  0.7165886759757996  1.0000
  Nb  Nb1       1.0  0.9915447235107422  0.5319364070892334  0.6927928328514099  1.0000
  Nd  Nd1       1.0  0.5812951326370238  0.9339855313301088  0.7501477003097534  1.0000
  Nd  Nd2       1.0  0.9977662563323975  0.24473255872726443  0.8107900023460389  1.0000
  Nd  Nd3       1.0  0.36338996887207026  0.43780305981636053  0.9378811717033387  1.0000
  O   O1        1.0  0.31419259309768677  0.5063753724098206  0.13995309174060822  1.0000
  O   O2        1.0  0.9818064570426941  0.8779950737953187  0.6190215349197388  1.0000
  O   O3        1.0  0.46816858649253845  0.011099548079073429  0.31663623452186584  1.0000
  O   O4        1.0  0.6359463930130005  0.3749934136867524  0.9553832411766053  1.0000
  Ru  Ru1       1.0  0.3775574862957001  0.3663831353187561  0.7657025456428528  1.0000
  Ru  Ru2       1.0  0.9061636924743652  0.622225821018219  0.24172602593898776  1.0000
  Ru  Ru3       1.0  0.9505638480186462  0.566024124622345  0.17061762511730194  1.0000
  Ru  Ru4       1.0  0.3010398745536804  0.222422331571579  0.24934583902359014  1.0000
  S   S1        1.0  0.5259901285171508  0.7833489179611207  0.6138254404067993  1.0000
