data_image0
_chemical_formula_structural       Cu2FGaHO3Ru4Zn3
_chemical_formula_sum              "Cu2 F1 Ga1 H1 O3 Ru4 Zn3"
_cell_length_a       5.581885970797329
_cell_length_b       6.375507619221652
_cell_length_c       6.448432922363281
_cell_angle_alpha    61.67269051396048
_cell_angle_beta     62.13992659553374
_cell_angle_gamma    64.69503893955518

_space_group_name_H-M_alt    "P 1"
_space_group_IT_number       1

loop_
  _space_group_symop_operation_xyz
  'x, y, z'

loop_
  _atom_site_type_symbol
  _atom_site_label
  _atom_site_symmetry_multiplicity
  _atom_site_fract_x
  _atom_site_fract_y
  _atom_site_fract_z
  _atom_site_occupancy
  Cu  Cu1       1.0  0.046126678586006165  0.5247219204902649  0.3389047086238861  1.0000
  Cu  Cu2       1.0  0.8651787638664246  0.8289006948471069  0.9243590235710144  1.0000
  F   F1        1.0  0.5657549500465393  0.5591623187065125  0.6218028664588928  1.0000
  Ga  Ga1       1.0  0.847678542137146  0.8870407342910767  0.32213059067726135  1.0000
  H   H1        1.0  0.20663632452487946  0.36270543932914734  0.34155428409576416  1.0000
  O   O1        1.0  0.39646202325820923  0.8438062071800232  0.6620667576789856  1.0000
  O   O2        1.0  0.39475518465042114  0.3528986871242523  0.4837385416030884  1.0000
  O   O3        1.0  0.8752214908599854  0.3370089530944824  0.9835960268974304  1.0000
  Ru  Ru1       1.0  0.39819398522377014  0.8524999022483826  0.007131218910217285  1.0000
  Ru  Ru2       1.0  0.7233823537826538  0.1736752986907959  0.17744044959545135  1.0000
  Ru  Ru3       1.0  0.3950663208961487  0.3461715877056122  0.7180702090263367  1.0000
  Ru  Ru4       1.0  0.9219717979431152  0.8515403270721436  0.5322006344795227  1.0000
  Zn  Zn1       1.0  0.34818217158317566  0.8501163125038147  0.1261078268289566  1.0000
  Zn  Zn2       1.0  0.04713759198784828  0.618202805519104  0.6369156241416931  1.0000
  Zn  Zn3       1.0  0.5272114872932434  0.5062534213066101  0.8848099112510681  1.0000
