data_image0
_chemical_formula_structural       CuNbO6Ru6S
_chemical_formula_sum              "Cu1 Nb1 O6 Ru6 S1"
_cell_length_a       6.180527989355437
_cell_length_b       6.871552364286699
_cell_length_c       6.914882183074951
_cell_angle_alpha    69.64155357905389
_cell_angle_beta     64.09641652273628
_cell_angle_gamma    63.03095641365578

_space_group_name_H-M_alt    "P 1"
_space_group_IT_number       1

loop_
  _space_group_symop_operation_xyz
  'x, y, z'

loop_
  _atom_site_type_symbol
  _atom_site_label
  _atom_site_symmetry_multiplicity
  _atom_site_fract_x
  _atom_site_fract_y
  _atom_site_fract_z
  _atom_site_occupancy
  Cu  Cu1       1.0  0.21463510394096377  0.04691167175769805  0.9927645921707153  1.0000
  Nb  Nb1       1.0  0.4451780319213868  0.586710512638092  0.25226259231567383  1.0000
  O   O1        1.0  0.5281326174736024  0.9837189316749572  0.49760642647743225  1.0000
  O   O2        1.0  0.8661543130874635  0.868837535381317  0.2424296736717224  1.0000
  O   O3        1.0  0.9797351956367494  0.8665780425071715  0.0356099009513855  1.0000
  O   O4        1.0  0.9777302145957948  0.8536106944084166  0.5418018698692322  1.0000
  O   O5        1.0  0.8260464072227479  0.5585348010063171  0.05270282179117203  1.0000
  O   O6        1.0  0.28491389751434326  0.08578525483608244  0.245509073138237  1.0000
  Ru  Ru1       1.0  0.4699740409851075  0.8650411367416381  0.19698630273342133  1.0000
  Ru  Ru2       1.0  0.023464240133762443  0.8729942440986632  0.03577849641442299  1.0000
  Ru  Ru3       1.0  0.1104771122336388  0.45910814404487604  0.765479564666748  1.0000
  Ru  Ru4       1.0  0.46334028244018566  0.9388623237609862  0.7515174746513367  1.0000
  Ru  Ru5       1.0  0.8219079971313478  0.36955186724662775  0.03465690091252327  1.0000
  Ru  Ru6       1.0  0.8166630268096925  0.31954339146614075  0.2471967339515686  1.0000
  S   S1        1.0  0.19491404294967654  0.5055641531944275  0.5495383143424988  1.0000
