data_image0
_chemical_formula_structural       Al6HNd3Zn
_chemical_formula_sum              "Al6 H1 Nd3 Zn1"
_cell_length_a       4.874797923835181
_cell_length_b       5.8851326589972235
_cell_length_c       6.256666660308838
_cell_angle_alpha    76.50214634308414
_cell_angle_beta     67.48260717237356
_cell_angle_gamma    69.64435593912384

_space_group_name_H-M_alt    "P 1"
_space_group_IT_number       1

loop_
  _space_group_symop_operation_xyz
  'x, y, z'

loop_
  _atom_site_type_symbol
  _atom_site_label
  _atom_site_symmetry_multiplicity
  _atom_site_fract_x
  _atom_site_fract_y
  _atom_site_fract_z
  _atom_site_occupancy
  Al  Al1       1.0  0.8197851777076721  0.042881838977336884  0.7445675134658813  1.0000
  Al  Al2       1.0  0.1192144826054573  0.22515951097011566  0.7105393409729004  1.0000
  Al  Al3       1.0  0.11981689184904099  0.5107471346855164  0.6446752548217773  1.0000
  Al  Al4       1.0  0.8356084227561951  0.37330347299575806  0.1985408067703247  1.0000
  Al  Al5       1.0  0.0035038841888308525  0.27526742219924927  0.32356229424476624  1.0000
  Al  Al6       1.0  0.4065117835998535  0.2863340675830841  0.5745951533317566  1.0000
  H   H1        1.0  0.08345087617635727  0.4272617697715759  0.8123250603675842  1.0000
  Nd  Nd1       1.0  0.7151535749435425  0.593748152256012  0.17185549437999725  1.0000
  Nd  Nd2       1.0  0.2597407102584839  0.11279883235692978  0.4440499246120453  1.0000
  Nd  Nd3       1.0  0.49075326323509216  0.7382516860961914  0.8525913953781128  1.0000
  Zn  Zn1       1.0  0.9805570244789124  0.7880120873451233  0.4413274824619293  1.0000
