data_image0
_chemical_formula_structural       Al6FeLuNd2Zn
_chemical_formula_sum              "Al6 Fe1 Lu1 Nd2 Zn1"
_cell_length_a       5.155674806441124
_cell_length_b       6.197916992297051
_cell_length_c       6.631191730499268
_cell_angle_alpha    74.44011538146586
_cell_angle_beta     67.04073926081631
_cell_angle_gamma    66.31596342902955

_space_group_name_H-M_alt    "P 1"
_space_group_IT_number       1

loop_
  _space_group_symop_operation_xyz
  'x, y, z'

loop_
  _atom_site_type_symbol
  _atom_site_label
  _atom_site_symmetry_multiplicity
  _atom_site_fract_x
  _atom_site_fract_y
  _atom_site_fract_z
  _atom_site_occupancy
  Al  Al1       1.0  0.15520016849040985  0.1402035504579544  0.7541517019271852  1.0000
  Al  Al2       1.0  0.10912452638149261  0.09944379329681396  0.5005351901054382  1.0000
  Al  Al3       1.0  0.024623055011034012  0.47073808312416077  0.4468038976192475  1.0000
  Al  Al4       1.0  0.21243375539779663  0.8357481956481934  0.49688237905502325  1.0000
  Al  Al5       1.0  0.8134110569953918  0.003961815964430571  0.24841588735580444  1.0000
  Al  Al6       1.0  0.7288655042648315  0.5708972811698914  0.24228961765766147  1.0000
  Fe  Fe1       1.0  0.8513970971107483  0.36959290504455566  0.23767136037349704  1.0000
  Lu  Lu1       1.0  0.13221509754657745  0.35451632738113403  0.7384446263313295  1.0000
  Nd  Nd1       1.0  0.47919130325317383  0.7540067434310913  0.025627620518207554  1.0000
  Nd  Nd2       1.0  0.8119903206825256  0.8896198272705078  0.43050345778465277  1.0000
  Zn  Zn1       1.0  0.08637838810682297  0.5632287263870239  0.27736225724220276  1.0000
