data_image0
_chemical_formula_structural       Al6HLaNd3
_chemical_formula_sum              "Al6 H1 La1 Nd3"
_cell_length_a       6.2665696327401665
_cell_length_b       6.646773699120402
_cell_length_c       7.005717754364014
_cell_angle_alpha    108.53049004516102
_cell_angle_beta     107.3082780916371
_cell_angle_gamma    107.92231725291757

_space_group_name_H-M_alt    "P 1"
_space_group_IT_number       1

loop_
  _space_group_symop_operation_xyz
  'x, y, z'

loop_
  _atom_site_type_symbol
  _atom_site_label
  _atom_site_symmetry_multiplicity
  _atom_site_fract_x
  _atom_site_fract_y
  _atom_site_fract_z
  _atom_site_occupancy
  Al  Al1       1.0  0.7720057964324951  0.9076599478721619  0.6537307500839232  1.0000
  Al  Al2       1.0  0.10576260089874268  0.6061466932296753  0.6220373511314392  1.0000
  Al  Al3       1.0  0.4727754592895508  0.3633114695549011  0.17691150307655332  1.0000
  Al  Al4       1.0  0.06703829765319824  0.39458173513412476  0.42517787218093867  1.0000
  Al  Al5       1.0  0.33762937784194946  0.5849483609199524  0.07830320298671722  1.0000
  Al  Al6       1.0  0.027327945455908775  0.04263114184141159  0.9825331568717955  1.0000
  H   H1        1.0  0.3273487985134125  0.12423516809940338  0.33196410536766047  1.0000
  La  La1       1.0  0.7192370295524597  0.7026786804199219  0.8850767612457274  1.0000
  Nd  Nd1       1.0  0.46601662039756775  0.36371761560440063  0.5976681709289551  1.0000
  Nd  Nd2       1.0  0.6841161847114563  0.7128262519836426  0.8216282129287719  1.0000
  Nd  Nd3       1.0  0.037330541759729385  0.2665964365005493  0.8430845737457274  1.0000
