data_image0
_chemical_formula_structural       Al5FeNd4S
_chemical_formula_sum              "Al5 Fe1 Nd4 S1"
_cell_length_a       5.489344744817952
_cell_length_b       7.104695121364133
_cell_length_c       7.134127616882324
_cell_angle_alpha    121.70397811557585
_cell_angle_beta     88.7889899425973
_cell_angle_gamma    89.63254307633983

_space_group_name_H-M_alt    "P 1"
_space_group_IT_number       1

loop_
  _space_group_symop_operation_xyz
  'x, y, z'

loop_
  _atom_site_type_symbol
  _atom_site_label
  _atom_site_symmetry_multiplicity
  _atom_site_fract_x
  _atom_site_fract_y
  _atom_site_fract_z
  _atom_site_occupancy
  Al  Al1       1.0  0.6729760766029358  0.3490065038204193  0.9926077723503112  1.0000
  Al  Al2       1.0  0.6564860343933105  0.6193942427635193  0.013673621229827404  1.0000
  Al  Al3       1.0  0.6486226916313171  0.34689903259277344  0.43438443541526794  1.0000
  Al  Al4       1.0  0.5843833684921265  0.8498396277427673  0.38619059324264526  1.0000
  Al  Al5       1.0  0.6083597540855408  0.49317216873168945  0.6885104179382324  1.0000
  Fe  Fe1       1.0  0.6692604422569275  0.354401171207428  0.9057641625404358  1.0000
  Nd  Nd1       1.0  0.17165741324424744  0.10362020134925842  0.03222692757844925  1.0000
  Nd  Nd2       1.0  0.17279061675071716  0.6646902561187744  0.2231879383325576  1.0000
  Nd  Nd3       1.0  0.1598353236913681  0.810922384262085  0.09349115937948227  1.0000
  Nd  Nd4       1.0  0.11653704941272736  0.8446347117424011  0.6272801756858826  1.0000
  S   S1        1.0  0.1619269847869873  0.0037821170408278704  0.43796807527542114  1.0000
