data_image0
_chemical_formula_structural       Al4FeGaNd5
_chemical_formula_sum              "Al4 Fe1 Ga1 Nd5"
_cell_length_a       5.163784989492951
_cell_length_b       6.602209718647493
_cell_length_c       6.736867904663086
_cell_angle_alpha    83.73049468776043
_cell_angle_beta     68.61240466542877
_cell_angle_gamma    70.86438502063129

_space_group_name_H-M_alt    "P 1"
_space_group_IT_number       1

loop_
  _space_group_symop_operation_xyz
  'x, y, z'

loop_
  _atom_site_type_symbol
  _atom_site_label
  _atom_site_symmetry_multiplicity
  _atom_site_fract_x
  _atom_site_fract_y
  _atom_site_fract_z
  _atom_site_occupancy
  Al  Al1       1.0  0.383727490901947  0.10483331978321075  0.7951291799545288  1.0000
  Al  Al2       1.0  0.5940860509872437  0.5870500802993774  0.15167109668254852  1.0000
  Al  Al3       1.0  0.29513460397720337  0.6955991387367249  0.8312144875526428  1.0000
  Al  Al4       1.0  0.5891212821006775  0.08426355570554733  0.8459181785583496  1.0000
  Fe  Fe1       1.0  0.5571532249450684  0.33452242612838745  0.5692183375358582  1.0000
  Ga  Ga1       1.0  0.2739616930484772  0.38303881883621216  0.5728380084037781  1.0000
  Nd  Nd1       1.0  0.36485016345977783  0.09487805515527725  0.334676593542099  1.0000
  Nd  Nd2       1.0  0.7536132335662842  0.6870929598808289  0.4046581983566284  1.0000
  Nd  Nd3       1.0  0.25289827585220337  0.7443540692329407  0.4118139147758484  1.0000
  Nd  Nd4       1.0  0.7589111328125  0.6953842043876648  0.9034253358840942  1.0000
  Nd  Nd5       1.0  0.8861460089683533  0.08294948935508728  0.7826172709465027  1.0000
