data_image0
_chemical_formula_structural       Al7FeNd2Zn
_chemical_formula_sum              "Al7 Fe1 Nd2 Zn1"
_cell_length_a       5.058493667326118
_cell_length_b       6.2478159083057365
_cell_length_c       6.311211109161377
_cell_angle_alpha    77.7357065597955
_cell_angle_beta     66.3692875098167
_cell_angle_gamma    69.05329696164108

_space_group_name_H-M_alt    "P 1"
_space_group_IT_number       1

loop_
  _space_group_symop_operation_xyz
  'x, y, z'

loop_
  _atom_site_type_symbol
  _atom_site_label
  _atom_site_symmetry_multiplicity
  _atom_site_fract_x
  _atom_site_fract_y
  _atom_site_fract_z
  _atom_site_occupancy
  Al  Al1       1.0  0.2673572599887848  0.45763838291168213  0.32631516456604004  1.0000
  Al  Al2       1.0  0.05448906123638153  0.3292520344257355  0.36220458149909973  1.0000
  Al  Al3       1.0  0.1369781494140625  0.6232637763023376  0.6286006569862366  1.0000
  Al  Al4       1.0  0.37671440839767456  0.23452426493167877  0.9716094136238098  1.0000
  Al  Al5       1.0  0.9750973582267761  0.20670916140079498  0.9731348752975464  1.0000
  Al  Al6       1.0  0.47626835107803345  0.6718572974205017  0.630536675453186  1.0000
  Al  Al7       1.0  0.16570404171943665  0.22130268812179565  0.3724132180213928  1.0000
  Fe  Fe1       1.0  0.284219354391098  0.8702389597892761  0.8728886842727661  1.0000
  Nd  Nd1       1.0  0.8846372365951538  0.8653278350830078  0.6270331144332886  1.0000
  Nd  Nd2       1.0  0.48614245653152466  0.28379008173942566  0.12134873867034912  1.0000
  Zn  Zn1       1.0  0.6269313097000122  0.909329354763031  0.21464230120182037  1.0000
