data_image0
_chemical_formula_structural       CaCe2ClGeHgMn3Sc3
_chemical_formula_sum              "Ca1 Ce2 Cl1 Ge1 Hg1 Mn3 Sc3"
_cell_length_a       5.381932895160185
_cell_length_b       8.290234282052221
_cell_length_c       8.55653190612793
_cell_angle_alpha    120.04526855987434
_cell_angle_beta     88.64495037565268
_cell_angle_gamma    89.683625576951

_space_group_name_H-M_alt    "P 1"
_space_group_IT_number       1

loop_
  _space_group_symop_operation_xyz
  'x, y, z'

loop_
  _atom_site_type_symbol
  _atom_site_label
  _atom_site_symmetry_multiplicity
  _atom_site_fract_x
  _atom_site_fract_y
  _atom_site_fract_z
  _atom_site_occupancy
  Ca  Ca1       1.0  0.12548129260540009  0.5748796463012695  0.3275415003299713  1.0000
  Ce  Ce1       1.0  0.6241365671157837  0.2619188725948334  0.06146760657429695  1.0000
  Ce  Ce2       1.0  0.6266290545463562  0.5396437644958496  0.5356556177139282  1.0000
  Cl  Cl1       1.0  0.11552918702363968  0.024872513487935066  0.4499380886554718  1.0000
  Ge  Ge1       1.0  0.6264129281044006  0.47183832526206965  0.1582256257534027  1.0000
  Hg  Hg1       1.0  0.633288562297821  0.997231364250183  0.4158734083175659  1.0000
  Mn  Mn1       1.0  0.6277486681938171  0.07049257308244705  0.22535626590251923  1.0000
  Mn  Mn2       1.0  0.12094435840845108  0.0646703913807869  0.3749006390571594  1.0000
  Mn  Mn3       1.0  0.6209003329277039  0.5558323860168457  0.6410558819770813  1.0000
  Sc  Sc1       1.0  0.12685972452163696  0.5753586292266846  0.00368593935854733  1.0000
  Sc  Sc2       1.0  0.11462148278951645  0.7464832067489624  0.8218255043029785  1.0000
  Sc  Sc3       1.0  0.11538282036781311  0.27016833424568176  0.947639524936676  1.0000
