data_image0
_chemical_formula_structural       CaCrGeHHgHoMg3MnSc2
_chemical_formula_sum              "Ca1 Cr1 Ge1 H1 Hg1 Ho1 Mg3 Mn1 Sc2"
_cell_length_a       5.014159151168374
_cell_length_b       6.992661238332369
_cell_length_c       9.438462257385254
_cell_angle_alpha    116.6126207291257
_cell_angle_beta     89.03129240420004
_cell_angle_gamma    90.55765794632349

_space_group_name_H-M_alt    "P 1"
_space_group_IT_number       1

loop_
  _space_group_symop_operation_xyz
  'x, y, z'

loop_
  _atom_site_type_symbol
  _atom_site_label
  _atom_site_symmetry_multiplicity
  _atom_site_fract_x
  _atom_site_fract_y
  _atom_site_fract_z
  _atom_site_occupancy
  Ca  Ca1       1.0  0.6137767434120178  0.4393883645534515  0.1426142156124115  1.0000
  Cr  Cr1       1.0  0.10563451051712036  0.7052577137947083  0.06985613703727722  1.0000
  Ge  Ge1       1.0  0.5995886325836182  0.5621768236160278  0.6202560067176819  1.0000
  H   H1        1.0  0.07569211721420288  0.030007038265466687  0.4974639117717743  1.0000
  Hg  Hg1       1.0  0.0762307196855545  0.5630273222923279  0.741832435131073  1.0000
  Ho  Ho1       1.0  0.09951220452785492  0.9148142337799071  0.4823768138885498  1.0000
  Mg  Mg1       1.0  0.5562059283256531  0.18953967094421387  0.6321319937705994  1.0000
  Mg  Mg2       1.0  0.6137017607688904  0.822536826133728  0.12958870828151703  1.0000
  Mg  Mg3       1.0  0.11195134371519089  0.707667887210846  0.9268017411231995  1.0000
  Mn  Mn1       1.0  0.004573702812194824  0.06758996099233627  0.694053053855896  1.0000
  Sc  Sc1       1.0  0.592926025390625  0.5662317276000977  0.8211295008659363  1.0000
  Sc  Sc2       1.0  0.615687906742096  0.20825406908988953  0.21520303189754486  1.0000
