data_image0
_chemical_formula_structural       CaCeCrHHfMg3Mn2ScTe
_chemical_formula_sum              "Ca1 Ce1 Cr1 H1 Hf1 Mg3 Mn2 Sc1 Te1"
_cell_length_a       4.917114998947927
_cell_length_b       8.371506626029339
_cell_length_c       9.05386734008789
_cell_angle_alpha    119.3267577885389
_cell_angle_beta     88.58882492303438
_cell_angle_gamma    90.54257394834907

_space_group_name_H-M_alt    "P 1"
_space_group_IT_number       1

loop_
  _space_group_symop_operation_xyz
  'x, y, z'

loop_
  _atom_site_type_symbol
  _atom_site_label
  _atom_site_symmetry_multiplicity
  _atom_site_fract_x
  _atom_site_fract_y
  _atom_site_fract_z
  _atom_site_occupancy
  Ca  Ca1       1.0  0.15973305702209473  0.047570306807756424  0.8455733060836792  1.0000
  Ce  Ce1       1.0  0.6758409738540649  0.019261356443166733  0.8323214054107666  1.0000
  Cr  Cr1       1.0  0.6601569652557373  0.3161642551422119  0.37927836179733276  1.0000
  H   H1        1.0  0.16939440369606018  0.17418783903121948  0.87306147813797  1.0000
  Hf  Hf1       1.0  0.669951319694519  0.7928639650344849  0.2886966466903686  1.0000
  Mg  Mg1       1.0  0.16472622752189636  0.16749055683612823  0.200200617313385  1.0000
  Mg  Mg2       1.0  0.6662917137145996  0.31876903772354126  0.6604686379432678  1.0000
  Mg  Mg3       1.0  0.6505533456802368  0.6740473508834839  0.7036515474319458  1.0000
  Mn  Mn1       1.0  0.16785576939582825  0.8142222166061401  0.21764330565929413  1.0000
  Mn  Mn2       1.0  0.1603395640850067  0.7255575656890869  0.4525873363018036  1.0000
  Sc  Sc1       1.0  0.6599677801132202  0.2700495421886444  0.7108054757118225  1.0000
  Te  Te1       1.0  0.16698548197746277  0.5580138564109802  0.4275357127189636  1.0000
