data_image0
_chemical_formula_structural       Ca2CrHgMg4NiPtTe2
_chemical_formula_sum              "Ca2 Cr1 Hg1 Mg4 Ni1 Pt1 Te2"
_cell_length_a       6.532565336828513
_cell_length_b       8.19785019385292
_cell_length_c       8.003578186035156
_cell_angle_alpha    123.72602616139235
_cell_angle_beta     89.69787641800387
_cell_angle_gamma    90.47047963273712

_space_group_name_H-M_alt    "P 1"
_space_group_IT_number       1

loop_
  _space_group_symop_operation_xyz
  'x, y, z'

loop_
  _atom_site_type_symbol
  _atom_site_label
  _atom_site_symmetry_multiplicity
  _atom_site_fract_x
  _atom_site_fract_y
  _atom_site_fract_z
  _atom_site_occupancy
  Ca  Ca1       1.0  0.060919620096683495  0.056563694030046456  0.6603730916976929  1.0000
  Ca  Ca2       1.0  0.5576036572456359  0.12311591953039168  0.12396954745054244  1.0000
  Cr  Cr1       1.0  0.5476584434509277  0.397548496723175  0.13903577625751493  1.0000
  Hg  Hg1       1.0  0.5585920810699463  0.5311288833618164  0.0998986735939979  1.0000
  Mg  Mg1       1.0  0.047629766166210175  0.0393686443567276  0.1596376597881317  1.0000
  Mg  Mg2       1.0  0.048354584723711014  0.3228553235530853  0.4124743938446045  1.0000
  Mg  Mg3       1.0  0.063271664083004  0.5228980779647827  0.4211522936820984  1.0000
  Mg  Mg4       1.0  0.06940076500177383  0.5908039212226868  0.1636864691972732  1.0000
  Ni  Ni1       1.0  0.5531814694404602  0.2841419279575348  0.3724724352359772  1.0000
  Pt  Pt1       1.0  0.5523430109024048  0.6395248770713806  0.8610663414001465  1.0000
  Te  Te1       1.0  0.04895159974694252  0.3656783401966095  0.015153640881180735  1.0000
  Te  Te2       1.0  0.5601467490196228  0.1009005308151245  0.6583177447319031  1.0000
