data_image0
_chemical_formula_structural       Ca2CrMg5MnPtTe2
_chemical_formula_sum              "Ca2 Cr1 Mg5 Mn1 Pt1 Te2"
_cell_length_a       5.620755723750519
_cell_length_b       7.650589693590434
_cell_length_c       7.2240142822265625
_cell_angle_alpha    112.9921875667474
_cell_angle_beta     87.38710764730122
_cell_angle_gamma    89.74801715265114

_space_group_name_H-M_alt    "P 1"
_space_group_IT_number       1

loop_
  _space_group_symop_operation_xyz
  'x, y, z'

loop_
  _atom_site_type_symbol
  _atom_site_label
  _atom_site_symmetry_multiplicity
  _atom_site_fract_x
  _atom_site_fract_y
  _atom_site_fract_z
  _atom_site_occupancy
  Ca  Ca1       1.0  0.37943074107170105  0.9307141304016113  0.10028364509344107  1.0000
  Ca  Ca2       1.0  0.9033893346786499  0.34724411368370056  0.30032950639724726  1.0000
  Cr  Cr1       1.0  0.8913484215736389  0.06291595846414566  0.8364318013191222  1.0000
  Mg  Mg1       1.0  0.3961224853992462  0.593283474445343  0.9034360647201537  1.0000
  Mg  Mg2       1.0  0.3793874680995941  0.3659646213054657  0.11160602420568468  1.0000
  Mg  Mg3       1.0  0.8879808783531189  0.6211239695549011  0.7291708588600158  1.0000
  Mg  Mg4       1.0  0.3929916322231293  0.5563364624977112  0.408926635980606  1.0000
  Mg  Mg5       1.0  0.3852701187133789  0.8164659142494202  0.8542008399963378  1.0000
  Mn  Mn1       1.0  0.8914930820465088  0.31249967217445374  0.3192568719387054  1.0000
  Pt  Pt1       1.0  0.3746100664138794  0.25454258918762207  0.7965293526649474  1.0000
  Te  Te1       1.0  0.3859034776687622  0.6714621782302856  0.573574423789978  1.0000
  Te  Te2       1.0  0.8860421180725098  0.6878964304924011  0.4802435040473938  1.0000
