data_image0
_chemical_formula_structural       CaCrGeHHfMg3Mn2Sc2
_chemical_formula_sum              "Ca1 Cr1 Ge1 H1 Hf1 Mg3 Mn2 Sc2"
_cell_length_a       4.548540244511117
_cell_length_b       6.226089373894687
_cell_length_c       10.371535301208496
_cell_angle_alpha    110.30948564348057
_cell_angle_beta     89.22028308309766
_cell_angle_gamma    90.86451692338898

_space_group_name_H-M_alt    "P 1"
_space_group_IT_number       1

loop_
  _space_group_symop_operation_xyz
  'x, y, z'

loop_
  _atom_site_type_symbol
  _atom_site_label
  _atom_site_symmetry_multiplicity
  _atom_site_fract_x
  _atom_site_fract_y
  _atom_site_fract_z
  _atom_site_occupancy
  Ca  Ca1       1.0  0.6977402567863464  0.184048593044281  0.6701650619506836  1.0000
  Cr  Cr1       1.0  0.6920071244239807  0.7087675929069519  0.7055603265762329  1.0000
  Ge  Ge1       1.0  0.6831448674201965  0.3926508426666259  0.7367995381355286  1.0000
  H   H1        1.0  0.18493583798408508  0.18912690877914426  0.2044658064842224  1.0000
  Hf  Hf1       1.0  0.6967485547065735  0.5169408321380615  0.9470267891883851  1.0000
  Mg  Mg1       1.0  0.17448264360427856  0.9146429896354674  0.08112348616123198  1.0000
  Mg  Mg2       1.0  0.1843373328447342  0.23903180658817288  0.23450677096843722  1.0000
  Mg  Mg3       1.0  0.1899370402097702  0.9700081944465636  0.9121494889259338  1.0000
  Mn  Mn1       1.0  0.6723653078079224  0.9545394182205199  0.49463981389999395  1.0000
  Mn  Mn2       1.0  0.44089898467063904  0.3953393995761871  0.7194890975952148  1.0000
  Sc  Sc1       1.0  0.6872232556343079  0.904809534549713  0.25148674845695496  1.0000
  Sc  Sc2       1.0  0.18213291466236115  0.2128869295120239  0.8334438800811768  1.0000
