data_image0
_chemical_formula_structural       Lu2PbSTmZn2Zr4
_chemical_formula_sum              "Lu2 Pb1 S1 Tm1 Zn2 Zr4"
_cell_length_a       5.568232548249835
_cell_length_b       8.249355590583185
_cell_length_c       8.34260368347168
_cell_angle_alpha    122.08304388434105
_cell_angle_beta     89.38120379681675
_cell_angle_gamma    89.31557166054166

_space_group_name_H-M_alt    "P 1"
_space_group_IT_number       1

loop_
  _space_group_symop_operation_xyz
  'x, y, z'

loop_
  _atom_site_type_symbol
  _atom_site_label
  _atom_site_symmetry_multiplicity
  _atom_site_fract_x
  _atom_site_fract_y
  _atom_site_fract_z
  _atom_site_occupancy
  Lu  Lu1       1.0  0.658315896987915  0.28065037727355957  0.827331006526947  1.0000
  Lu  Lu2       1.0  0.6480124592781067  0.27664312720298767  0.3638073801994324  1.0000
  Pb  Pb1       1.0  0.15251699090003967  0.029384303838014603  0.5209512114524841  1.0000
  S   S1        1.0  0.14962562918663025  0.014051727950572968  0.18023595213890076  1.0000
  Tm  Tm1       1.0  0.14974217116832733  0.6825231909751892  0.36139494180679316  1.0000
  Zn  Zn1       1.0  0.3873577415943146  0.2508358955383301  0.7828073501586914  1.0000
  Zn  Zn2       1.0  0.15723657608032227  0.6232789158821106  0.04554517939686775  1.0000
  Zr  Zr1       1.0  0.9078656435012817  0.028014754876494408  0.06713061779737473  1.0000
  Zr  Zr2       1.0  0.15378828346729279  0.0569099560379982  0.8148220181465149  1.0000
  Zr  Zr3       1.0  0.6459869742393494  0.732042133808136  0.5164975523948669  1.0000
  Zr  Zr4       1.0  0.6538909673690796  0.5448452830314636  0.6710060834884644  1.0000
