data_image0
_chemical_formula_structural       CuGaLu2SnZn2Zr4
_chemical_formula_sum              "Cu1 Ga1 Lu2 Sn1 Zn2 Zr4"
_cell_length_a       4.531528483413687
_cell_length_b       8.084191793221532
_cell_length_c       8.215065002441406
_cell_angle_alpha    119.99854250975991
_cell_angle_beta     90.09113592227949
_cell_angle_gamma    89.08826899177534

_space_group_name_H-M_alt    "P 1"
_space_group_IT_number       1

loop_
  _space_group_symop_operation_xyz
  'x, y, z'

loop_
  _atom_site_type_symbol
  _atom_site_label
  _atom_site_symmetry_multiplicity
  _atom_site_fract_x
  _atom_site_fract_y
  _atom_site_fract_z
  _atom_site_occupancy
  Cu  Cu1       1.0  0.6499344706535339  0.5353950262069702  0.0029362619388848543  1.0000
  Ga  Ga1       1.0  0.6381639838218689  0.24502818286418918  0.830953061580658  1.0000
  Lu  Lu1       1.0  0.6501800417900085  0.5744177103042603  0.8508423566818237  1.0000
  Lu  Lu2       1.0  0.6498313546180725  0.741270124912262  0.1218121200799942  1.0000
  Sn  Sn1       1.0  0.1504647433757782  0.527336061000824  0.6120011210441589  1.0000
  Zn  Zn1       1.0  0.1498880237340927  0.05544041097164155  0.31132638454437256  1.0000
  Zn  Zn2       1.0  0.1497306525707245  0.051488183438777924  0.14964379370212555  1.0000
  Zr  Zr1       1.0  0.15020616352558136  0.5154802203178406  0.8701446056365967  1.0000
  Zr  Zr2       1.0  0.14938470721244812  0.7329654097557068  0.6521619558334351  1.0000
  Zr  Zr3       1.0  0.14788156747817993  0.3374688923358917  0.10632321238517764  1.0000
  Zr  Zr4       1.0  0.6464055776596069  0.03390508145093918  0.153788223862648  1.0000
