data_image0
_chemical_formula_structural       GaLuSTmZnZr6
_chemical_formula_sum              "Ga1 Lu1 S1 Tm1 Zn1 Zr6"
_cell_length_a       4.624777029333623
_cell_length_b       7.576471057643029
_cell_length_c       7.818334579467773
_cell_angle_alpha    122.22225918602666
_cell_angle_beta     88.3414176198175
_cell_angle_gamma    89.14253553023046

_space_group_name_H-M_alt    "P 1"
_space_group_IT_number       1

loop_
  _space_group_symop_operation_xyz
  'x, y, z'

loop_
  _atom_site_type_symbol
  _atom_site_label
  _atom_site_symmetry_multiplicity
  _atom_site_fract_x
  _atom_site_fract_y
  _atom_site_fract_z
  _atom_site_occupancy
  Ga  Ga1       1.0  0.06513660401105881  0.26009711623191833  0.6004651188850402  1.0000
  Lu  Lu1       1.0  0.5639580488204956  0.6076704859733582  0.12206613272428517  1.0000
  S   S1        1.0  0.060273103415966034  0.7471066713333131  0.952099859714508  1.0000
  Tm  Tm1       1.0  0.06394099444150925  0.45516964793205267  0.5336502194404602  1.0000
  Zn  Zn1       1.0  0.060141902416944504  0.20078399777412417  0.11763098835945128  1.0000
  Zr  Zr1       1.0  0.5614596009254456  0.7162769436836244  0.7761585116386412  1.0000
  Zr  Zr2       1.0  0.560496985912323  0.45684859156608587  0.33381485939025873  1.0000
  Zr  Zr3       1.0  0.06411515176296234  0.09297868609428407  0.5644910335540771  1.0000
  Zr  Zr4       1.0  0.5637645125389099  0.7889209389686586  0.30252900719642645  1.0000
  Zr  Zr5       1.0  0.06276848167181015  0.08140324801206589  0.7420543432235717  1.0000
  Zr  Zr6       1.0  0.5638816356658936  0.9028945565223695  0.31269359588623047  1.0000
