data_image0
_chemical_formula_structural       CuIn4WZr5
_chemical_formula_sum              "Cu1 In4 W1 Zr5"
_cell_length_a       4.87947180669246
_cell_length_b       7.115749643341248
_cell_length_c       7.1769304275512695
_cell_angle_alpha    122.81676085053523
_cell_angle_beta     87.89092563107339
_cell_angle_gamma    101.1066048249563

_space_group_name_H-M_alt    "P 1"
_space_group_IT_number       1

loop_
  _space_group_symop_operation_xyz
  'x, y, z'

loop_
  _atom_site_type_symbol
  _atom_site_label
  _atom_site_symmetry_multiplicity
  _atom_site_fract_x
  _atom_site_fract_y
  _atom_site_fract_z
  _atom_site_occupancy
  Cu  Cu1       1.0  0.05705416575074196  0.5796428322792053  0.09051862359046942  1.0000
  In  In1       1.0  0.3133948743343353  0.0019136279588565233  0.5609031319618225  1.0000
  In  In2       1.0  0.8232853412628174  0.3320322334766388  0.9403128623962402  1.0000
  In  In3       1.0  0.8150098919868469  0.4005079567432404  0.7627038955688477  1.0000
  In  In4       1.0  0.30565136671066284  0.6582140922546387  0.3298826515674591  1.0000
  W   W1        1.0  0.31739261746406555  0.40484496951103216  0.6453192830085754  1.0000
  Zr  Zr1       1.0  0.8151677250862122  0.7312000989913942  0.37583640217781067  1.0000
  Zr  Zr2       1.0  0.31760591268539434  0.9196928739547731  0.639112114906311  1.0000
  Zr  Zr3       1.0  0.31891968846321106  0.06872329860925674  0.04773331806063652  1.0000
  Zr  Zr4       1.0  0.8151509761810303  0.9900524020195008  0.9090457558631897  1.0000
  Zr  Zr5       1.0  0.8182986378669739  0.8759024143218995  0.38268351554870605  1.0000
