data_image0
_chemical_formula_structural       CuIn3IrZr6
_chemical_formula_sum              "Cu1 In3 Ir1 Zr6"
_cell_length_a       4.766273498110489
_cell_length_b       7.416616873771185
_cell_length_c       7.390412330627441
_cell_angle_alpha    123.19425058942264
_cell_angle_beta     81.55559906268257
_cell_angle_gamma    105.26541638441206

_space_group_name_H-M_alt    "P 1"
_space_group_IT_number       1

loop_
  _space_group_symop_operation_xyz
  'x, y, z'

loop_
  _atom_site_type_symbol
  _atom_site_label
  _atom_site_symmetry_multiplicity
  _atom_site_fract_x
  _atom_site_fract_y
  _atom_site_fract_z
  _atom_site_occupancy
  Cu  Cu1       1.0  0.6582460403442383  0.89952152967453  0.09361453354358673  1.0000
  In  In1       1.0  0.6977919936180115  0.2504495084285736  0.002530921483412385  1.0000
  In  In2       1.0  0.14940951764583588  0.9034577012062073  0.3136236071586609  1.0000
  In  In3       1.0  0.1799248903989792  0.24931715428829193  0.7257416248321533  1.0000
  Ir  Ir1       1.0  0.6581485867500305  0.43716877698898315  0.11948394030332565  1.0000
  Zr  Zr1       1.0  0.1557530015707016  0.40592288970947266  0.4087758958339691  1.0000
  Zr  Zr2       1.0  0.15501588582992554  0.10478213429450989  0.9335837960243225  1.0000
  Zr  Zr3       1.0  0.8990787863731384  0.5994803309440613  0.4896417558193207  1.0000
  Zr  Zr4       1.0  0.15201537311077118  0.8931699991226196  0.790631115436554  1.0000
  Zr  Zr5       1.0  0.6547904014587402  0.6453733444213867  0.7153236269950867  1.0000
  Zr  Zr6       1.0  0.6532055139541626  0.1056845635175705  0.8076649904251099  1.0000
