data_image0
_chemical_formula_structural       FPtSnZn2Zr6
_chemical_formula_sum              "F1 Pt1 Sn1 Zn2 Zr6"
_cell_length_a       4.43831194677625
_cell_length_b       6.467269927939935
_cell_length_c       7.006901264190674
_cell_angle_alpha    125.57235484750996
_cell_angle_beta     91.77333264906466
_cell_angle_gamma    85.26420863789356

_space_group_name_H-M_alt    "P 1"
_space_group_IT_number       1

loop_
  _space_group_symop_operation_xyz
  'x, y, z'

loop_
  _atom_site_type_symbol
  _atom_site_label
  _atom_site_symmetry_multiplicity
  _atom_site_fract_x
  _atom_site_fract_y
  _atom_site_fract_z
  _atom_site_occupancy
  F   F1        1.0  0.37972360849380493  0.3059753477573395  0.9724861383438111  1.0000
  Pt  Pt1       1.0  0.8942036628723145  0.7304214239120483  0.08760377019643784  1.0000
  Sn  Sn1       1.0  0.8872987627983093  0.4456661641597748  0.1318710297346115  1.0000
  Zn  Zn1       1.0  0.8934768438339233  0.7763333320617676  0.673784077167511  1.0000
  Zn  Zn2       1.0  0.390069842338562  0.8065840601921082  0.06770257651805878  1.0000
  Zr  Zr1       1.0  0.8913270235061646  0.7752178907394409  0.39534652233123785  1.0000
  Zr  Zr2       1.0  0.39022907614707947  0.7912792563438416  0.3807148635387421  1.0000
  Zr  Zr3       1.0  0.38761106133461  0.11878496408462524  0.3170681893825531  1.0000
  Zr  Zr4       1.0  0.8902294039726257  0.7607153654098511  0.9615091681480409  1.0000
  Zr  Zr5       1.0  0.8881872296333313  0.029889250174164772  0.13127875328063965  1.0000
  Zr  Zr6       1.0  0.38133704662323  0.2996520400047302  0.9424781799316407  1.0000
