data_image0
_chemical_formula_structural       As2I3P
_chemical_formula_sum              "As2 I3 P1"
_cell_length_a       5.565136992680959
_cell_length_b       6.459196946374946
_cell_length_c       9.755501747131348
_cell_angle_alpha    113.15838839752196
_cell_angle_beta     89.51963613185103
_cell_angle_gamma    100.56813553329336

_space_group_name_H-M_alt    "P 1"
_space_group_IT_number       1

loop_
  _space_group_symop_operation_xyz
  'x, y, z'

loop_
  _atom_site_type_symbol
  _atom_site_label
  _atom_site_symmetry_multiplicity
  _atom_site_fract_x
  _atom_site_fract_y
  _atom_site_fract_z
  _atom_site_occupancy
  As  As1       1.0  0.5831885933876038  0.11756468564271927  0.8784902095794678  1.0000
  As  As2       1.0  0.8392320275306702  0.1695164442062378  0.5419237613677979  1.0000
  I   I1        1.0  0.768745481967926  0.7122052907943726  0.3086707293987274  1.0000
  I   I2        1.0  0.20242011547088623  0.3681657314300537  0.8055149912834167  1.0000
  I   I3        1.0  0.1988237202167511  0.08632493764162064  0.15116375684738156  1.0000
  P   P1        1.0  0.31641313433647156  0.4944290220737457  0.8086526989936829  1.0000
