data_image0
_chemical_formula_structural       ClLi2Mn5PbSb2U4YbZr
_chemical_formula_sum              "Cl1 Li2 Mn5 Pb1 Sb2 U4 Yb1 Zr1"
_cell_length_a       7.9679788031069
_cell_length_b       7.91289080910946
_cell_length_c       8.237740516662598
_cell_angle_alpha    61.506490737032635
_cell_angle_beta     64.59563280213725
_cell_angle_gamma    63.09076165416854

_space_group_name_H-M_alt    "P 1"
_space_group_IT_number       1

loop_
  _space_group_symop_operation_xyz
  'x, y, z'

loop_
  _atom_site_type_symbol
  _atom_site_label
  _atom_site_symmetry_multiplicity
  _atom_site_fract_x
  _atom_site_fract_y
  _atom_site_fract_z
  _atom_site_occupancy
  Cl  Cl1       1.0  0.5486669540405273  0.5480154156684875  0.6983342170715332  1.0000
  Li  Li1       1.0  0.875452756881714  0.3970190286636352  0.03744611144065857  1.0000
  Li  Li2       1.0  0.1637283712625504  0.7163990139961242  0.8460978269577026  1.0000
  Mn  Mn1       1.0  0.17171327769756323  0.6942341327667235  0.1329827755689621  1.0000
  Mn  Mn2       1.0  0.5506397485733032  0.8851362466812133  0.38502809405326843  1.0000
  Mn  Mn3       1.0  0.5224403142929077  0.11588748544454573  0.7402249574661255  1.0000
  Mn  Mn4       1.0  0.9050104618072511  0.7151756286621093  0.6225194931030273  1.0000
  Mn  Mn5       1.0  0.8989053964614869  0.27718859910964966  0.5730105638504028  1.0000
  Pb  Pb1       1.0  0.9366661310195924  0.964304208755493  0.6298428177833557  1.0000
  Sb  Sb1       1.0  0.5385100841522217  0.7733833789825438  0.7080710530281067  1.0000
  Sb  Sb2       1.0  0.5369532108306886  0.996429145336151  0.8773067593574524  1.0000
  U   U1        1.0  0.5981019139289857  0.11089529842138289  0.8959840536117554  1.0000
  U   U2        1.0  0.9830309748649598  0.7971137166023253  0.4657876491546631  1.0000
  U   U3        1.0  0.26083135604858404  0.8393515944480895  0.04522881284356117  1.0000
  U   U4        1.0  0.018652301281690598  0.25432929396629333  0.8147907853126526  1.0000
  Yb  Yb1       1.0  0.9389356374740602  0.9191166758537291  0.9183971285820007  1.0000
  Zr  Zr1       1.0  0.9794211387634278  0.10557699948549269  0.5388044118881226  1.0000
