data_image0
_chemical_formula_structural       AsClILaLiMn5Na2OsSbSeTiW
_chemical_formula_sum              "As1 Cl1 I1 La1 Li1 Mn5 Na2 Os1 Sb1 Se1 Ti1 W1"
_cell_length_a       7.451353044803751
_cell_length_b       7.663106496509217
_cell_length_c       7.96586799621582
_cell_angle_alpha    64.27422435181128
_cell_angle_beta     63.94819965716541
_cell_angle_gamma    62.16781056454405

_space_group_name_H-M_alt    "P 1"
_space_group_IT_number       1

loop_
  _space_group_symop_operation_xyz
  'x, y, z'

loop_
  _atom_site_type_symbol
  _atom_site_label
  _atom_site_symmetry_multiplicity
  _atom_site_fract_x
  _atom_site_fract_y
  _atom_site_fract_z
  _atom_site_occupancy
  As  As1       1.0  0.11772220581769943  0.5267069339752197  0.08021018654108047  1.0000
  Cl  Cl1       1.0  0.609538197517395  0.6165462136268616  0.8601494431495665  1.0000
  I   I1        1.0  0.8084158897399902  0.4543274343013764  0.7897726297378539  1.0000
  La  La1       1.0  0.5972237586975098  0.7820770740509034  0.1216633766889572  1.0000
  Li  Li1       1.0  0.12233904004096985  0.5719091296195984  0.800888955593109  1.0000
  Mn  Mn1       1.0  0.5963053703308105  0.9113373160362245  0.9782813787460326  1.0000
  Mn  Mn2       1.0  0.1514112502336502  0.7044071555137634  0.3859868645668029  1.0000
  Mn  Mn3       1.0  0.11067554354667664  0.5567449331283569  0.0722445696592331  1.0000
  Mn  Mn4       1.0  0.6042512655258179  0.8548906445503236  0.3223799169063568  1.0000
  Mn  Mn5       1.0  0.2789399325847626  0.20529443025588992  0.7737408280372619  1.0000
  Na  Na1       1.0  0.2930239737033844  0.23951645195484164  0.6425465941429138  1.0000
  Na  Na2       1.0  0.04609648883342742  0.20026141405105594  0.5944402813911438  1.0000
  Os  Os1       1.0  0.5930601358413696  0.11776950955390932  0.24179692566394803  1.0000
  Sb  Sb1       1.0  0.5746362209320068  0.9109696149826051  0.25443822145462036  1.0000
  Se  Se1       1.0  0.03367666155099869  0.353439062833786  0.09442979842424391  1.0000
  Ti  Ti1       1.0  0.5955366492271423  0.44651746749877935  0.008622546680271626  1.0000
  W   W1        1.0  0.8404892683029175  0.518500804901123  0.6956173777580261  1.0000
