data_image0
_chemical_formula_structural       Mn8NaNd2O6
_chemical_formula_sum              "Mn8 Na1 Nd2 O6"
_cell_length_a       5.9344798589929475
_cell_length_b       6.854817876277417
_cell_length_c       6.549729824066162
_cell_angle_alpha    120.83208277491308
_cell_angle_beta     90.44377668145172
_cell_angle_gamma    95.9216587027255

_space_group_name_H-M_alt    "P 1"
_space_group_IT_number       1

loop_
  _space_group_symop_operation_xyz
  'x, y, z'

loop_
  _atom_site_type_symbol
  _atom_site_label
  _atom_site_symmetry_multiplicity
  _atom_site_fract_x
  _atom_site_fract_y
  _atom_site_fract_z
  _atom_site_occupancy
  Mn  Mn1       1.0  0.3668026924133301  0.16690804064273834  0.3265804648399353  1.0000
  Mn  Mn2       1.0  0.8678415417671204  0.0028124842792749405  0.3838313817977906  1.0000
  Mn  Mn3       1.0  0.8588120341300964  0.6846343278884888  0.8636562824249269  1.0000
  Mn  Mn4       1.0  0.8623917102813721  0.08882974833250046  0.5002821683883667  1.0000
  Mn  Mn5       1.0  0.35959476232528687  0.4781084060668945  0.48536106944084173  1.0000
  Mn  Mn6       1.0  0.35783976316452026  0.742588222026825  0.9405841827392579  1.0000
  Mn  Mn7       1.0  0.8570608496665955  0.38221445679664606  0.974900722503662  1.0000
  Mn  Mn8       1.0  0.8774513006210327  0.5882196426391602  0.5922321677207947  1.0000
  Na  Na1       1.0  0.36372554302215576  0.31936606764793396  0.7792670726776124  1.0000
  Nd  Nd1       1.0  0.3642682135105133  0.3865328133106231  0.1990609765052795  1.0000
  Nd  Nd2       1.0  0.3782164752483368  0.4331746399402618  0.460256040096283  1.0000
  O   O1        1.0  0.8544636964797974  0.4386074841022491  0.5240811109542847  1.0000
  O   O2        1.0  0.3401232957839966  0.43759521842002863  0.30166324973106384  1.0000
  O   O3        1.0  0.8470550775527954  0.7141752243041992  0.033411938697099686  1.0000
  O   O4        1.0  0.26107314229011536  0.18426263332366943  0.8523234724998475  1.0000
  O   O5        1.0  0.8477417826652527  0.06276901811361313  0.40435498952865606  1.0000
  O   O6        1.0  0.3897499740123749  0.2435369938611984  0.5146113038063049  1.0000
