data_image0
_chemical_formula_structural       MgMn7NaO7Os
_chemical_formula_sum              "Mg1 Mn7 Na1 O7 Os1"
_cell_length_a       5.911946488138489
_cell_length_b       5.81213680442911
_cell_length_c       7.8774919509887695
_cell_angle_alpha    91.50830781658628
_cell_angle_beta     87.45713986286745
_cell_angle_gamma    98.58055378751767

_space_group_name_H-M_alt    "P 1"
_space_group_IT_number       1

loop_
  _space_group_symop_operation_xyz
  'x, y, z'

loop_
  _atom_site_type_symbol
  _atom_site_label
  _atom_site_symmetry_multiplicity
  _atom_site_fract_x
  _atom_site_fract_y
  _atom_site_fract_z
  _atom_site_occupancy
  Mg  Mg1       1.0  0.5285571217536926  0.3182225525379181  0.4504242241382599  1.0000
  Mn  Mn1       1.0  0.5332595109939575  0.8917027711868286  0.7937521934509277  1.0000
  Mn  Mn2       1.0  0.9999631643295289  0.21435053646564484  0.5282074809074402  1.0000
  Mn  Mn3       1.0  0.5345444083213806  0.6385110020637512  0.8204967975616455  1.0000
  Mn  Mn4       1.0  0.05077884718775749  0.7186155915260315  0.3327622413635254  1.0000
  Mn  Mn5       1.0  0.9953109622001649  0.842893660068512  0.6941688656806946  1.0000
  Mn  Mn6       1.0  0.021916378289461136  0.004204477649182081  0.8771554827690125  1.0000
  Mn  Mn7       1.0  0.5154619216918945  0.6647844910621643  0.2143014371395111  1.0000
  Na  Na1       1.0  0.1406032145023346  0.8894696235656738  0.15538112819194794  1.0000
  O   O1        1.0  0.48021790385246277  0.9084521532058716  0.5438413023948669  1.0000
  O   O2        1.0  0.9809496402740479  0.8424563407897949  0.504976749420166  1.0000
  O   O3        1.0  0.9798302054405212  0.775259792804718  0.37018299102783203  1.0000
  O   O4        1.0  0.971516489982605  0.1250624805688858  0.6301740407943726  1.0000
  O   O5        1.0  0.014937338419258595  0.9568321108818054  0.8666523694992065  1.0000
  O   O6        1.0  0.47950297594070435  0.5856899619102478  0.7782931327819824  1.0000
  O   O7        1.0  0.9861181378364564  0.8965842127799988  0.8148859739303589  1.0000
  Os  Os1       1.0  0.256780743598938  0.1365145742893219  0.6894888281822205  1.0000
