data_image0
_chemical_formula_structural       CsMn3NaO7U4Zr
_chemical_formula_sum              "Cs1 Mn3 Na1 O7 U4 Zr1"
_cell_length_a       5.813046212468052
_cell_length_b       7.16229649579672
_cell_length_c       7.925047397613525
_cell_angle_alpha    120.25498579698655
_cell_angle_beta     89.57366340624964
_cell_angle_gamma    91.58476610266938

_space_group_name_H-M_alt    "P 1"
_space_group_IT_number       1

loop_
  _space_group_symop_operation_xyz
  'x, y, z'

loop_
  _atom_site_type_symbol
  _atom_site_label
  _atom_site_symmetry_multiplicity
  _atom_site_fract_x
  _atom_site_fract_y
  _atom_site_fract_z
  _atom_site_occupancy
  Cs  Cs1       1.0  0.5060553550720215  0.9536608457565308  0.057019390165805824  1.0000
  Mn  Mn1       1.0  0.48644253611564636  0.12497471272945404  0.7414699196815492  1.0000
  Mn  Mn2       1.0  0.9974060654640198  0.005477229133248329  0.2895098030567169  1.0000
  Mn  Mn3       1.0  0.9930663704872131  0.22024376690387726  0.9939839839935304  1.0000
  Na  Na1       1.0  0.49912381172180176  0.8769769668579102  0.805379867553711  1.0000
  O   O1        1.0  0.9689658880233765  0.341999888420105  0.9698492884635926  1.0000
  O   O2        1.0  0.9866148829460144  0.4036019444465637  0.4879517257213593  1.0000
  O   O3        1.0  0.9981884360313416  0.9472391605377197  0.48748189210891735  1.0000
  O   O4        1.0  0.7885007262229919  0.9030879735946655  0.8548942804336549  1.0000
  O   O5        1.0  0.5022419095039368  0.42590826749801636  0.8705995678901673  1.0000
  O   O6        1.0  0.23985055088996887  0.30186477303504944  0.44349116086959844  1.0000
  O   O7        1.0  0.4766201674938202  0.15647821128368378  0.05315470322966578  1.0000
  U   U1        1.0  0.011133529245853424  0.44526752829551697  0.43875193595886236  1.0000
  U   U2        1.0  0.505959689617157  0.5721999406814575  0.5300644636154175  1.0000
  U   U3        1.0  0.700314998626709  0.6144166588783264  0.3401052355766297  1.0000
  U   U4        1.0  0.007383616175502539  0.9021873474121094  0.469738930463791  1.0000
  Zr  Zr1       1.0  0.9972007274627686  0.528770387172699  0.4412582218647004  1.0000
