data_image0
_chemical_formula_structural       Mn5Na3NdO6OsW
_chemical_formula_sum              "Mn5 Na3 Nd1 O6 Os1 W1"
_cell_length_a       5.937840435329285
_cell_length_b       7.259787168998797
_cell_length_c       7.193153381347656
_cell_angle_alpha    125.80566671151823
_cell_angle_beta     89.8495254752583
_cell_angle_gamma    89.88648395323933

_space_group_name_H-M_alt    "P 1"
_space_group_IT_number       1

loop_
  _space_group_symop_operation_xyz
  'x, y, z'

loop_
  _atom_site_type_symbol
  _atom_site_label
  _atom_site_symmetry_multiplicity
  _atom_site_fract_x
  _atom_site_fract_y
  _atom_site_fract_z
  _atom_site_occupancy
  Mn  Mn1       1.0  0.1152915209531784  0.06486593931913376  0.41343420743942266  1.0000
  Mn  Mn2       1.0  0.11672759056091309  0.5180628299713135  0.16582727432250977  1.0000
  Mn  Mn3       1.0  0.616899311542511  0.6545284390449524  0.41048911213874834  1.0000
  Mn  Mn4       1.0  0.11813173443078995  0.6547499895095825  0.521373212337494  1.0000
  Mn  Mn5       1.0  0.11946655809879303  0.10255749523639679  0.8179649710655214  1.0000
  Na  Na1       1.0  0.6194042563438416  0.6373273134231567  0.8712211847305299  1.0000
  Na  Na2       1.0  0.1178143173456192  0.3948546051979065  0.9865872859954836  1.0000
  Na  Na3       1.0  0.6194213628768921  0.06948305666446686  0.3456367254257202  1.0000
  Nd  Nd1       1.0  0.6191288232803345  0.527005136013031  0.8242627382278443  1.0000
  O   O1        1.0  0.5940276384353638  0.308350145816803  0.11116893589496617  1.0000
  O   O2        1.0  0.6064703464508057  0.05869070440530777  0.4818554520606995  1.0000
  O   O3        1.0  0.8378124237060547  0.4438469707965851  0.6238942742347717  1.0000
  O   O4        1.0  0.10310352593660355  0.24372951686382294  0.9085586667060853  1.0000
  O   O5        1.0  0.6245089173316956  0.349921315908432  0.7694593071937562  1.0000
  O   O6        1.0  0.10581938922405243  0.01321820355951786  0.7807376980781556  1.0000
  Os  Os1       1.0  0.616401195526123  0.7532163858413696  0.39432230591774  1.0000
  W   W1        1.0  0.12297170609235764  0.6774089932441711  0.3325747251510621  1.0000
