data_image0
_chemical_formula_structural       InPd3Sb2Sc3
_chemical_formula_sum              "In1 Pd3 Sb2 Sc3"
_cell_length_a       5.29726232646
_cell_length_b       3.2006996186410133
_cell_length_c       5.467588901519775
_cell_angle_alpha    156.78803339637247
_cell_angle_beta     80.37763654269901
_cell_angle_gamma    91.94817504113185

_space_group_name_H-M_alt    "P 1"
_space_group_IT_number       1

loop_
  _space_group_symop_operation_xyz
  'x, y, z'

loop_
  _atom_site_type_symbol
  _atom_site_label
  _atom_site_symmetry_multiplicity
  _atom_site_fract_x
  _atom_site_fract_y
  _atom_site_fract_z
  _atom_site_occupancy
  In  In1       1.0  0.6779060363769531  0.935986340045929  0.2210541367530823  1.0000
  Pd  Pd1       1.0  0.6709946393966675  0.6974804997444156  0.8509844541549684  1.0000
  Pd  Pd2       1.0  0.18574462831020355  0.9670436382293701  0.685117244720459  1.0000
  Pd  Pd3       1.0  0.609100878238678  0.06840436905622489  0.8913024067878723  1.0000
  Sb  Sb1       1.0  0.6342865824699402  0.1781173944473268  0.856005847454071  1.0000
  Sb  Sb2       1.0  0.18527139723300934  0.5527176260948181  0.34772753715515137  1.0000
  Sc  Sc1       1.0  0.9468526244163513  0.4312171936035158  0.47305506467819225  1.0000
  Sc  Sc2       1.0  0.2039862722158432  0.9244915843009949  0.5223838090896606  1.0000
  Sc  Sc3       1.0  0.5171197056770325  0.176928386092186  0.44405844807624817  1.0000
