data_image0
_chemical_formula_structural       CsPd6Tl2
_chemical_formula_sum              "Cs1 Pd6 Tl2"
_cell_length_a       3.8239095235862024
_cell_length_b       6.584168766741041
_cell_length_c       5.275245666503906
_cell_angle_alpha    127.0992273126726
_cell_angle_beta     86.27515219113265
_cell_angle_gamma    87.09047268839818

_space_group_name_H-M_alt    "P 1"
_space_group_IT_number       1

loop_
  _space_group_symop_operation_xyz
  'x, y, z'

loop_
  _atom_site_type_symbol
  _atom_site_label
  _atom_site_symmetry_multiplicity
  _atom_site_fract_x
  _atom_site_fract_y
  _atom_site_fract_z
  _atom_site_occupancy
  Cs  Cs1       1.0  0.3816673755645752  0.8877943754196167  0.12744788825511932  1.0000
  Pd  Pd1       1.0  0.3801218867301941  0.31727346777915955  0.8267182111740112  1.0000
  Pd  Pd2       1.0  0.8766546249389648  0.4876686632633209  0.9652965664863586  1.0000
  Pd  Pd3       1.0  0.40167298913002014  0.27885568141937256  0.3997938632965088  1.0000
  Pd  Pd4       1.0  0.381127268075943  0.9541645646095276  0.8470268845558167  1.0000
  Pd  Pd5       1.0  0.8783513307571411  0.38539326190948486  0.9070122241973877  1.0000
  Pd  Pd6       1.0  0.38132810592651367  0.3085716962814331  0.677666187286377  1.0000
  Tl  Tl1       1.0  0.3858477771282196  0.7044926881790161  0.03160995990037918  1.0000
  Tl  Tl2       1.0  0.8745260238647461  0.597804605960846  0.7504277229309082  1.0000
