data_image0
_chemical_formula_structural       LiPPd6Sc
_chemical_formula_sum              "Li1 P1 Pd6 Sc1"
_cell_length_a       4.256128244958523
_cell_length_b       4.660462885933202
_cell_length_c       5.108213424682617
_cell_angle_alpha    138.16951125682485
_cell_angle_beta     81.13243611485083
_cell_angle_gamma    88.90976770929767

_space_group_name_H-M_alt    "P 1"
_space_group_IT_number       1

loop_
  _space_group_symop_operation_xyz
  'x, y, z'

loop_
  _atom_site_type_symbol
  _atom_site_label
  _atom_site_symmetry_multiplicity
  _atom_site_fract_x
  _atom_site_fract_y
  _atom_site_fract_z
  _atom_site_occupancy
  Li  Li1       1.0  0.4705062806606293  0.8070656061172483  0.8009241223335265  1.0000
  P   P1        1.0  0.9855551719665527  0.09977166354656214  0.7445005774497986  1.0000
  Pd  Pd1       1.0  0.49305224418640137  0.12876687943935392  0.3349591791629791  1.0000
  Pd  Pd2       1.0  0.4891001880168915  0.5929105877876282  0.16176211833953855  1.0000
  Pd  Pd3       1.0  0.48624488711357117  0.17675727605819702  0.29147273302078247  1.0000
  Pd  Pd4       1.0  0.7770274877548218  0.2372145354747772  0.12327180057764052  1.0000
  Pd  Pd5       1.0  0.251789927482605  0.3057422637939453  0.2678083479404449  1.0000
  Pd  Pd6       1.0  0.78896564245224  0.9021048545837402  0.09735321998596193  1.0000
  Sc  Sc1       1.0  0.00029702240135520697  0.5089355111122131  0.2952711284160614  1.0000
