data_image0
_chemical_formula_structural       GeLiPPd3SbSc2
_chemical_formula_sum              "Ge1 Li1 P1 Pd3 Sb1 Sc2"
_cell_length_a       5.259792859288147
_cell_length_b       5.348238508212346
_cell_length_c       5.674993515014648
_cell_angle_alpha    103.6118628227786
_cell_angle_beta     89.65660254447646
_cell_angle_gamma    90.27669375242462

_space_group_name_H-M_alt    "P 1"
_space_group_IT_number       1

loop_
  _space_group_symop_operation_xyz
  'x, y, z'

loop_
  _atom_site_type_symbol
  _atom_site_label
  _atom_site_symmetry_multiplicity
  _atom_site_fract_x
  _atom_site_fract_y
  _atom_site_fract_z
  _atom_site_occupancy
  Ge  Ge1       1.0  0.19013454020023346  0.4549168646335602  0.9450124502182007  1.0000
  Li  Li1       1.0  0.20000457763671875  0.9867793321609497  0.12105311453342442  1.0000
  P   P1        1.0  0.7327373027801514  0.5176583528518677  0.15588627755641937  1.0000
  Pd  Pd1       1.0  0.7031024098396301  0.8961263298988342  0.46325814723968506  1.0000
  Pd  Pd2       1.0  0.6094900369644165  0.15880177915096283  0.23849382996559143  1.0000
  Pd  Pd3       1.0  0.20643068850040436  0.16306184232234955  0.47420910000801086  1.0000
  Sb  Sb1       1.0  0.22171272337436676  0.42746004462242126  0.7135871052742004  1.0000
  Sc  Sc1       1.0  0.7051770091056824  0.5165475010871887  0.6178797483444214  1.0000
  Sc  Sc2       1.0  0.22173385322093964  0.4586823582649231  0.11878494173288343  1.0000
