data_image0
_chemical_formula_structural       Al3H2O3P4
_chemical_formula_sum              "Al3 H2 O3 P4"
_cell_length_a       4.92736947950845
_cell_length_b       5.44016997058402
_cell_length_c       5.725851058959961
_cell_angle_alpha    67.78688600833925
_cell_angle_beta     65.13816002401886
_cell_angle_gamma    56.80439924888207

_space_group_name_H-M_alt    "P 1"
_space_group_IT_number       1

loop_
  _space_group_symop_operation_xyz
  'x, y, z'

loop_
  _atom_site_type_symbol
  _atom_site_label
  _atom_site_symmetry_multiplicity
  _atom_site_fract_x
  _atom_site_fract_y
  _atom_site_fract_z
  _atom_site_occupancy
  Al  Al1       1.0  0.16504907608032227  0.8466946482658386  0.4729439616203308  1.0000
  Al  Al2       1.0  0.12523296475410461  0.4675506055355072  0.5003933310508728  1.0000
  Al  Al3       1.0  0.8962639570236206  0.011644591577351093  0.10215658694505698  1.0000
  H   H1        1.0  0.99198317527771  0.8928072452545166  0.5979512333869934  1.0000
  H   H2        1.0  0.5001591444015503  0.6287727355957031  0.6300584673881531  1.0000
  O   O1        1.0  0.547615647315979  0.6214586496353149  0.29921090602874756  1.0000
  O   O2        1.0  0.2842431366443634  0.8371779918670654  0.09779726713895798  1.0000
  O   O3        1.0  0.7606585025787354  0.09212227910757065  0.36529234051704407  1.0000
  P   P1        1.0  0.26474037766456604  0.6048409342765808  0.12066631019115451  1.0000
  P   P2        1.0  0.14935429394245148  0.19343526661396027  0.9729320406913757  1.0000
  P   P3        1.0  0.8859003782272339  0.5645966529846191  0.7130416035652161  1.0000
  P   P4        1.0  0.5117945671081543  0.8239583969116211  0.1199561059474945  1.0000
