data_image0
_chemical_formula_structural       Al3H2NaO5P
_chemical_formula_sum              "Al3 H2 Na1 O5 P1"
_cell_length_a       4.771891560144752
_cell_length_b       4.555194741697893
_cell_length_c       5.828665256500244
_cell_angle_alpha    114.67155107648945
_cell_angle_beta     104.17296809961864
_cell_angle_gamma    88.65115945795408

_space_group_name_H-M_alt    "P 1"
_space_group_IT_number       1

loop_
  _space_group_symop_operation_xyz
  'x, y, z'

loop_
  _atom_site_type_symbol
  _atom_site_label
  _atom_site_symmetry_multiplicity
  _atom_site_fract_x
  _atom_site_fract_y
  _atom_site_fract_z
  _atom_site_occupancy
  Al  Al1       1.0  0.03363161161541939  0.8586873412132263  0.6709254384040833  1.0000
  Al  Al2       1.0  0.1282556802034378  0.27663183212280273  0.21542660892009735  1.0000
  Al  Al3       1.0  0.4284977316856384  0.15515463054180145  0.4801340401172638  1.0000
  H   H1        1.0  0.9612742066383362  0.3896719813346863  0.9037691354751587  1.0000
  H   H2        1.0  0.8323879241943359  0.5486479997634888  0.6645290851593018  1.0000
  Na  Na1       1.0  0.6388018131256104  0.44292494654655457  0.9521020650863647  1.0000
  O   O1        1.0  0.3765406608581543  0.8226149678230286  0.0018741394160314729  1.0000
  O   O2        1.0  0.1358952820301056  0.047737643122673035  0.601560115814209  1.0000
  O   O3        1.0  0.4504355192184448  0.21164095401763916  0.009072406217455864  1.0000
  O   O4        1.0  0.4455529451370239  0.01364898681640625  0.9934093952178955  1.0000
  O   O5        1.0  0.5433858633041382  0.18021881580352783  0.30716177821159363  1.0000
  P   P1        1.0  0.7681870460510254  0.31115517020225525  0.3883002698421478  1.0000
