data_image0
_chemical_formula_structural       AlH2O5P3Ti
_chemical_formula_sum              "Al1 H2 O5 P3 Ti1"
_cell_length_a       5.099507188438985
_cell_length_b       5.4071662696398874
_cell_length_c       5.448680400848389
_cell_angle_alpha    62.537415348486086
_cell_angle_beta     63.13003754946527
_cell_angle_gamma    60.289010122206626

_space_group_name_H-M_alt    "P 1"
_space_group_IT_number       1

loop_
  _space_group_symop_operation_xyz
  'x, y, z'

loop_
  _atom_site_type_symbol
  _atom_site_label
  _atom_site_symmetry_multiplicity
  _atom_site_fract_x
  _atom_site_fract_y
  _atom_site_fract_z
  _atom_site_occupancy
  Al  Al1       1.0  0.4229370653629303  0.7069746851921082  0.1620464324951172  1.0000
  H   H1        1.0  0.18772467970848083  0.9628797173500061  0.3283438980579376  1.0000
  H   H2        1.0  0.8730568885803223  0.401279479265213  0.039134275168180466  1.0000
  O   O1        1.0  0.07453326135873795  0.7736761569976807  0.789008378982544  1.0000
  O   O2        1.0  0.45158860087394714  0.8184323906898499  0.5197489857673645  1.0000
  O   O3        1.0  0.8616653084754944  0.30581778287887573  0.7890194654464722  1.0000
  O   O4        1.0  0.9993200302124023  0.36179471015930176  0.30274888873100286  1.0000
  O   O5        1.0  0.3469296395778656  0.27708369493484497  0.8425830602645874  1.0000
  P   P1        1.0  0.22175855934619904  0.4047732949256897  0.7851571440696716  1.0000
  P   P2        1.0  0.7307068705558777  0.16294944286346436  0.8671691417694092  1.0000
  P   P3        1.0  0.7292783260345459  0.9090598225593567  0.481847882270813  1.0000
  Ti  Ti1       1.0  0.6780241131782532  0.4358987808227539  0.93491530418396  1.0000
