data_image0
_chemical_formula_structural       Al2H3O6P
_chemical_formula_sum              "Al2 H3 O6 P1"
_cell_length_a       5.499508995063613
_cell_length_b       5.61816818230225
_cell_length_c       6.2987871170043945
_cell_angle_alpha    62.77107863077257
_cell_angle_beta     63.535058304632
_cell_angle_gamma    62.52167180744067

_space_group_name_H-M_alt    "P 1"
_space_group_IT_number       1

loop_
  _space_group_symop_operation_xyz
  'x, y, z'

loop_
  _atom_site_type_symbol
  _atom_site_label
  _atom_site_symmetry_multiplicity
  _atom_site_fract_x
  _atom_site_fract_y
  _atom_site_fract_z
  _atom_site_occupancy
  Al  Al1       1.0  0.7861940860748291  0.6656609773635864  0.713442325592041  1.0000
  Al  Al2       1.0  0.9601843357086182  0.990479052066803  0.8512370586395264  1.0000
  H   H1        1.0  0.8370769619941711  0.47484639286994934  0.49761408567428583  1.0000
  H   H2        1.0  0.5404393076896667  0.10004562139511108  0.8610637187957764  1.0000
  H   H3        1.0  0.14813391864299774  0.03564492613077164  0.2648434638977051  1.0000
  O   O1        1.0  0.379296213388443  0.8780254125595093  0.012530556879937649  1.0000
  O   O2        1.0  0.021380165591835976  0.5095028877258301  0.7850953340530396  1.0000
  O   O3        1.0  0.048095349222421646  0.6887481808662415  0.252694308757782  1.0000
  O   O4        1.0  0.38744571805000305  0.9020940661430359  0.05221157521009445  1.0000
  O   O5        1.0  0.38231244683265686  0.09730109572410583  0.4756114780902862  1.0000
  O   O6        1.0  0.7409169673919678  0.11180824041366577  0.09769337624311447  1.0000
  P   P1        1.0  0.29420706629753113  0.35766518115997314  0.7762543559074402  1.0000
