data_image0
_chemical_formula_structural       Al3H3O4P2
_chemical_formula_sum              "Al3 H3 O4 P2"
_cell_length_a       5.098931935675829
_cell_length_b       5.222316539569492
_cell_length_c       5.556766986846924
_cell_angle_alpha    66.86381823942959
_cell_angle_beta     66.60015965508511
_cell_angle_gamma    62.9778882063167

_space_group_name_H-M_alt    "P 1"
_space_group_IT_number       1

loop_
  _space_group_symop_operation_xyz
  'x, y, z'

loop_
  _atom_site_type_symbol
  _atom_site_label
  _atom_site_symmetry_multiplicity
  _atom_site_fract_x
  _atom_site_fract_y
  _atom_site_fract_z
  _atom_site_occupancy
  Al  Al1       1.0  0.61472487449646  0.36298006772994995  0.7493316531181335  1.0000
  Al  Al2       1.0  0.6076805591583252  0.28697940707206726  0.9986593723297119  1.0000
  Al  Al3       1.0  0.27061915397644043  0.7223078012466431  0.6609477996826172  1.0000
  H   H1        1.0  0.28811776638031006  0.6490837335586548  0.9739775657653809  1.0000
  H   H2        1.0  0.5860861539840698  0.9402337670326233  0.4736703932285309  1.0000
  H   H3        1.0  0.9743673801422118  0.4747083783149719  0.899309515953064  1.0000
  O   O1        1.0  0.1065869927406311  0.41150709986686707  0.41768062114715576  1.0000
  O   O2        1.0  0.5762648582458496  0.41512733697891235  0.2619456350803375  1.0000
  O   O3        1.0  0.3505236804485321  0.14865365624427795  0.7047348022460938  1.0000
  O   O4        1.0  0.6839432120323181  0.22011028230190277  0.9172778725624084  1.0000
  P   P1        1.0  0.9856956601142882  0.9030287265777588  0.8027661442756653  1.0000
  P   P2        1.0  0.9934544563293456  0.08995255082845688  0.9763507843017578  1.0000
