data_image0
_chemical_formula_structural       Al2H3O7
_chemical_formula_sum              "Al2 H3 O7"
_cell_length_a       4.580992032159625
_cell_length_b       4.868078451916845
_cell_length_c       4.923824787139893
_cell_angle_alpha    55.48949624105734
_cell_angle_beta     63.20209491948336
_cell_angle_gamma    63.52752932238552

_space_group_name_H-M_alt    "P 1"
_space_group_IT_number       1

loop_
  _space_group_symop_operation_xyz
  'x, y, z'

loop_
  _atom_site_type_symbol
  _atom_site_label
  _atom_site_symmetry_multiplicity
  _atom_site_fract_x
  _atom_site_fract_y
  _atom_site_fract_z
  _atom_site_occupancy
  Al  Al1       1.0  0.005871820263564587  0.4230794310569763  0.739452302455902  1.0000
  Al  Al2       1.0  0.2698580026626587  0.9465343356132507  0.07157453894615173  1.0000
  H   H1        1.0  0.7832599878311157  0.545112669467926  0.5422001481056213  1.0000
  H   H2        1.0  0.48909440636634827  0.9641826152801514  0.34557366371154785  1.0000
  H   H3        1.0  0.5171332359313965  0.9452124238014221  0.7023813724517822  1.0000
  O   O1        1.0  0.0069587561301887035  0.6339924931526184  0.2055042386054992  1.0000
  O   O2        1.0  0.30490076541900635  0.48572057485580444  0.22082827985286707  1.0000
  O   O3        1.0  0.9462549686431885  0.9080053567886353  0.2021617293357849  1.0000
  O   O4        1.0  0.4886647164821625  0.41543105244636536  0.874944806098938  1.0000
  O   O5        1.0  0.9676544666290283  0.32994773983955383  0.27288752794265747  1.0000
  O   O6        1.0  0.5927474498748779  0.09825411438941956  0.6943400502204895  1.0000
  O   O7        1.0  0.012188302353024483  0.12267380952835083  0.5443340539932251  1.0000
