data_image0
_chemical_formula_structural       O4S4Tl
_chemical_formula_sum              "O4 S4 Tl1"
_cell_length_a       5.407803582180266
_cell_length_b       5.557801809523311
_cell_length_c       7.987458229064941
_cell_angle_alpha    94.58844410177667
_cell_angle_beta     92.48034792898473
_cell_angle_gamma    93.84711765887302

_space_group_name_H-M_alt    "P 1"
_space_group_IT_number       1

loop_
  _space_group_symop_operation_xyz
  'x, y, z'

loop_
  _atom_site_type_symbol
  _atom_site_label
  _atom_site_symmetry_multiplicity
  _atom_site_fract_x
  _atom_site_fract_y
  _atom_site_fract_z
  _atom_site_occupancy
  O   O1        1.0  0.25180503726005554  0.16794979572296143  0.7216702699661255  1.0000
  O   O2        1.0  0.515439510345459  0.7624752521514893  0.6662773489952087  1.0000
  O   O3        1.0  0.7854682803153992  0.7318563461303711  0.12797029316425323  1.0000
  O   O4        1.0  0.2543903589248657  0.02837044559419155  0.3904724717140198  1.0000
  S   S1        1.0  0.16300177574157715  0.775483250617981  0.7268121838569641  1.0000
  S   S2        1.0  0.45266008377075195  0.248031347990036  0.41129130125045776  1.0000
  S   S3        1.0  0.911687433719635  0.3242279887199402  0.9235408902168274  1.0000
  S   S4        1.0  0.5032708644866943  0.05523131787776947  0.22670164704322815  1.0000
  Tl  Tl1       1.0  0.917808473110199  0.5829051733016968  0.9302645921707153  1.0000
