data_image0
_chemical_formula_structural       O3S3Si2Tl
_chemical_formula_sum              "O3 S3 Si2 Tl1"
_cell_length_a       5.157919945285249
_cell_length_b       6.219632341837384
_cell_length_c       6.754395961761475
_cell_angle_alpha    91.98087174650115
_cell_angle_beta     92.90820593967896
_cell_angle_gamma    90.54946623999764

_space_group_name_H-M_alt    "P 1"
_space_group_IT_number       1

loop_
  _space_group_symop_operation_xyz
  'x, y, z'

loop_
  _atom_site_type_symbol
  _atom_site_label
  _atom_site_symmetry_multiplicity
  _atom_site_fract_x
  _atom_site_fract_y
  _atom_site_fract_z
  _atom_site_occupancy
  O   O1        1.0  0.4527293741703034  0.2906477749347687  0.28316253423690796  1.0000
  O   O2        1.0  0.7192254662513733  0.590217113494873  0.27951565384864807  1.0000
  O   O3        1.0  0.0363190621137619  0.6377402544021606  0.03407369181513786  1.0000
  S   S1        1.0  0.6128977537155151  0.2346092164516449  0.12281815707683563  1.0000
  S   S2        1.0  0.10215887427330017  0.20994669198989868  0.5283889770507812  1.0000
  S   S3        1.0  0.5975925326347351  0.7337102890014648  0.7969391345977783  1.0000
  Si  Si1       1.0  0.8250709772109986  0.42059773206710815  0.5247466564178467  1.0000
  Si  Si2       1.0  0.2631376385688782  0.8849605321884155  0.41197261214256287  1.0000
  Tl  Tl1       1.0  0.3617252707481384  0.9040369987487793  0.18411171436309814  1.0000
