data_image0
_chemical_formula_structural       O5S2Tl2
_chemical_formula_sum              "O5 S2 Tl2"
_cell_length_a       6.107655545691097
_cell_length_b       5.7657039959466525
_cell_length_c       6.113076686859131
_cell_angle_alpha    92.95925050308003
_cell_angle_beta     92.41508409595701
_cell_angle_gamma    96.05687363363961

_space_group_name_H-M_alt    "P 1"
_space_group_IT_number       1

loop_
  _space_group_symop_operation_xyz
  'x, y, z'

loop_
  _atom_site_type_symbol
  _atom_site_label
  _atom_site_symmetry_multiplicity
  _atom_site_fract_x
  _atom_site_fract_y
  _atom_site_fract_z
  _atom_site_occupancy
  O   O1        1.0  0.4004931151866913  0.43929436802864075  0.14794141054153442  1.0000
  O   O2        1.0  0.23425103724002838  0.7604431509971619  0.5085970759391785  1.0000
  O   O3        1.0  0.9143393039703369  0.3969998061656952  0.5030431747436523  1.0000
  O   O4        1.0  0.6172797083854675  0.13876210153102875  0.14959245920181274  1.0000
  O   O5        1.0  0.7340799570083618  0.13762196898460388  0.875124454498291  1.0000
  S   S1        1.0  0.9849784970283508  0.6588560342788696  0.5024036169052124  1.0000
  S   S2        1.0  0.4223473370075226  0.15862539410591125  0.1487797349691391  1.0000
  Tl  Tl1       1.0  0.7360933423042297  0.627425491809845  0.8118170499801636  1.0000
  Tl  Tl2       1.0  0.20360419154167175  0.6493424773216248  0.13473887741565704  1.0000
