data_image0
_chemical_formula_structural       O5S2Tl2
_chemical_formula_sum              "O5 S2 Tl2"
_cell_length_a       5.525493068783
_cell_length_b       5.566132361699288
_cell_length_c       6.3519439697265625
_cell_angle_alpha    88.1617147380878
_cell_angle_beta     88.82856698105448
_cell_angle_gamma    96.51059426176715

_space_group_name_H-M_alt    "P 1"
_space_group_IT_number       1

loop_
  _space_group_symop_operation_xyz
  'x, y, z'

loop_
  _atom_site_type_symbol
  _atom_site_label
  _atom_site_symmetry_multiplicity
  _atom_site_fract_x
  _atom_site_fract_y
  _atom_site_fract_z
  _atom_site_occupancy
  O   O1        1.0  0.6991626620292664  0.7470999360084534  0.9353125691413878  1.0000
  O   O2        1.0  0.2889198064804077  0.9978112578392029  0.19441239535808563  1.0000
  O   O3        1.0  0.044474609196186066  0.5051155090332031  0.38782984018325806  1.0000
  O   O4        1.0  0.7692273855209351  0.5005860924720764  0.4347932040691375  1.0000
  O   O5        1.0  0.7931669354438782  0.2458326816558838  0.24713020026683805  1.0000
  S   S1        1.0  0.5340912342071533  0.8059039115905762  0.010884430259466171  1.0000
  S   S2        1.0  0.04420075938105583  0.803989052772522  0.007418671157211064  1.0000
  Tl  Tl1       1.0  0.11134442687034607  0.47734519839286804  0.68963223695755  1.0000
  Tl  Tl2       1.0  0.6424819231033325  0.7717347741127014  0.7007896900177002  1.0000
