data_image0
_chemical_formula_structural       O5STl3
_chemical_formula_sum              "O5 S1 Tl3"
_cell_length_a       5.780076369970664
_cell_length_b       5.503601350788152
_cell_length_c       5.854206562042236
_cell_angle_alpha    92.32301291633846
_cell_angle_beta     90.41873690814448
_cell_angle_gamma    98.53377200932565

_space_group_name_H-M_alt    "P 1"
_space_group_IT_number       1

loop_
  _space_group_symop_operation_xyz
  'x, y, z'

loop_
  _atom_site_type_symbol
  _atom_site_label
  _atom_site_symmetry_multiplicity
  _atom_site_fract_x
  _atom_site_fract_y
  _atom_site_fract_z
  _atom_site_occupancy
  O   O1        1.0  0.5307966470718384  0.5122759342193604  0.8119892477989196  1.0000
  O   O2        1.0  0.8084189295768738  0.8489574193954468  0.8697506189346312  1.0000
  O   O3        1.0  0.3575694262981415  0.7533111572265625  0.558968186378479  1.0000
  O   O4        1.0  0.08157775551080704  0.3469765782356262  0.8045832514762877  1.0000
  O   O5        1.0  0.46796369552612305  0.033144108951091766  0.05743118748068809  1.0000
  S   S1        1.0  0.4563765823841095  0.038475401699543  0.05566382035613059  1.0000
  Tl  Tl1       1.0  0.831041157245636  0.1324947625398636  0.861849009990692  1.0000
  Tl  Tl2       1.0  0.23474854230880737  0.8275616765022278  0.30507639050483704  1.0000
  Tl  Tl3       1.0  0.8479207754135132  0.7000791430473328  0.5446203351020813  1.0000
