data_image0
_chemical_formula_structural       O5S2Tl2
_chemical_formula_sum              "O5 S2 Tl2"
_cell_length_a       5.937341252916699
_cell_length_b       6.0095587779586
_cell_length_c       5.996471405029297
_cell_angle_alpha    62.31476315296506
_cell_angle_beta     61.3647774719388
_cell_angle_gamma    62.945021928139894

_space_group_name_H-M_alt    "P 1"
_space_group_IT_number       1

loop_
  _space_group_symop_operation_xyz
  'x, y, z'

loop_
  _atom_site_type_symbol
  _atom_site_label
  _atom_site_symmetry_multiplicity
  _atom_site_fract_x
  _atom_site_fract_y
  _atom_site_fract_z
  _atom_site_occupancy
  O   O1        1.0  0.8436475396156311  0.22513820230960846  0.07335269451141357  1.0000
  O   O2        1.0  0.3836077153682709  0.07590606063604355  0.22258812189102173  1.0000
  O   O3        1.0  0.2410881072282791  0.9065120220184326  0.4760429561138153  1.0000
  O   O4        1.0  0.11971329152584076  0.6738638281822205  0.9554267525672913  1.0000
  O   O5        1.0  0.5732081532478333  0.6259676218032837  0.08554355800151825  1.0000
  S   S1        1.0  0.07964427769184113  0.13721950352191925  0.45060500502586365  1.0000
  S   S2        1.0  0.7733568549156189  0.3506001830101013  0.2355562299489975  1.0000
  Tl  Tl1       1.0  0.36645838618278503  0.8404893279075623  0.9499024748802185  1.0000
  Tl  Tl2       1.0  0.445127934217453  0.6758783459663391  0.67571622133255  1.0000
