data_image0
_chemical_formula_structural       As5O3Pb2
_chemical_formula_sum              "As5 O3 Pb2"
_cell_length_a       5.657205646168108
_cell_length_b       7.744628600747215
_cell_length_c       7.8874030113220215
_cell_angle_alpha    121.05556347954727
_cell_angle_beta     91.28769064791548
_cell_angle_gamma    89.89977359934578

_space_group_name_H-M_alt    "P 1"
_space_group_IT_number       1

loop_
  _space_group_symop_operation_xyz
  'x, y, z'

loop_
  _atom_site_type_symbol
  _atom_site_label
  _atom_site_symmetry_multiplicity
  _atom_site_fract_x
  _atom_site_fract_y
  _atom_site_fract_z
  _atom_site_occupancy
  As  As1       1.0  0.492679238319397  0.7956936359405518  0.11917233467102045  1.0000
  As  As2       1.0  0.2232077717781067  0.09482112526893616  0.5685452222824097  1.0000
  As  As3       1.0  0.4923979640007019  0.7325266003608704  0.7982040643692017  1.0000
  As  As4       1.0  0.9922659397125244  0.7466189861297607  0.4527947902679443  1.0000
  As  As5       1.0  0.7211427688598633  0.09763769060373306  0.873796284198761  1.0000
  O   O1        1.0  0.5076845288276672  0.5135034322738647  0.5097607374191284  1.0000
  O   O2        1.0  0.5088100433349609  0.12181375920772551  0.6842146515846252  1.0000
  O   O3        1.0  0.00864793173968792  0.161428302526474  0.9712772965431212  1.0000
  Pb  Pb1       1.0  0.0016743196174502373  0.392460435628891  0.1999676525592804  1.0000
  Pb  Pb2       1.0  0.2228374034166336  0.09413115680217743  0.8795846104621887  1.0000
