data_image0
_chemical_formula_structural       As5O4Pb
_chemical_formula_sum              "As5 O4 Pb1"
_cell_length_a       4.912511429774631
_cell_length_b       7.523762721195346
_cell_length_c       7.46903133392334
_cell_angle_alpha    116.29304427531572
_cell_angle_beta     92.57433459000175
_cell_angle_gamma    89.70427987470256

_space_group_name_H-M_alt    "P 1"
_space_group_IT_number       1

loop_
  _space_group_symop_operation_xyz
  'x, y, z'

loop_
  _atom_site_type_symbol
  _atom_site_label
  _atom_site_symmetry_multiplicity
  _atom_site_fract_x
  _atom_site_fract_y
  _atom_site_fract_z
  _atom_site_occupancy
  As  As1       1.0  0.7168684601783752  0.7711405158042908  0.8013606667518616  1.0000
  As  As2       1.0  0.47332325577735895  0.20065082609653473  0.4846535623073578  1.0000
  As  As3       1.0  0.45282730460166926  0.05919595435261726  0.7125877737998962  1.0000
  As  As4       1.0  0.20752070844173431  0.4914001524448394  0.04524750262498853  1.0000
  As  As5       1.0  0.7066823840141296  0.5819225311279297  0.34292730689048767  1.0000
  O   O1        1.0  0.9568773508071898  0.2867206335067749  0.04135522618889809  1.0000
  O   O2        1.0  0.4418492913246154  0.9562212228775023  0.4850798547267913  1.0000
  O   O3        1.0  0.19560648500919342  0.7754395604133606  0.7343437671661377  1.0000
  O   O4        1.0  0.9676538705825805  0.5658032894134521  0.02416081540286541  1.0000
  Pb  Pb1       1.0  0.9783362746238707  0.19571353495121002  0.7571998238563538  1.0000
