data_image0
_chemical_formula_structural       As5O5
_chemical_formula_sum              "As5 O5"
_cell_length_a       4.633187496214638
_cell_length_b       7.093665866281209
_cell_length_c       7.001214027404785
_cell_angle_alpha    119.4519041254666
_cell_angle_beta     92.2749977566348
_cell_angle_gamma    86.17955675639769

_space_group_name_H-M_alt    "P 1"
_space_group_IT_number       1

loop_
  _space_group_symop_operation_xyz
  'x, y, z'

loop_
  _atom_site_type_symbol
  _atom_site_label
  _atom_site_symmetry_multiplicity
  _atom_site_fract_x
  _atom_site_fract_y
  _atom_site_fract_z
  _atom_site_occupancy
  As  As1       1.0  0.6443623304367065  0.7003064751625061  0.6309536695480346  1.0000
  As  As2       1.0  0.14184656739234924  0.2034243941307068  0.8775535225868224  1.0000
  As  As3       1.0  0.6535490155220032  0.5288634300231934  0.8716227412223815  1.0000
  As  As4       1.0  0.6510756611824036  0.43952277302742004  0.8769760727882384  1.0000
  As  As5       1.0  0.1478046476840973  0.4993739426136017  0.4058438837528228  1.0000
  O   O1        1.0  0.9194473028182983  0.16883189976215363  0.2017213702201843  1.0000
  O   O2        1.0  0.9376637935638428  0.9125090837478638  0.8750701546669005  1.0000
  O   O3        1.0  0.42958515882492065  0.9584261178970337  0.6869637370109557  1.0000
  O   O4        1.0  0.17200973629951477  0.9147047996520996  0.7403852939605712  1.0000
  O   O5        1.0  0.44011440873146057  0.2941543459892273  0.4205161333084106  1.0000
