data_image0
_chemical_formula_structural       As6O3Pb
_chemical_formula_sum              "As6 O3 Pb1"
_cell_length_a       4.911166667616999
_cell_length_b       7.625790581882126
_cell_length_c       7.443058967590332
_cell_angle_alpha    117.32441738581642
_cell_angle_beta     90.33590523172104
_cell_angle_gamma    92.21848579418493

_space_group_name_H-M_alt    "P 1"
_space_group_IT_number       1

loop_
  _space_group_symop_operation_xyz
  'x, y, z'

loop_
  _atom_site_type_symbol
  _atom_site_label
  _atom_site_symmetry_multiplicity
  _atom_site_fract_x
  _atom_site_fract_y
  _atom_site_fract_z
  _atom_site_occupancy
  As  As1       1.0  0.21519558131694794  0.1230464056134224  0.5087178945541382  1.0000
  As  As2       1.0  0.9727781414985657  0.5389534831047058  0.4706183969974517  1.0000
  As  As3       1.0  0.7231909036636353  0.19043749570846558  0.47688001394271845  1.0000
  As  As4       1.0  0.22521984577178955  0.9748221039772034  0.9853454828262328  1.0000
  As  As5       1.0  0.4716678261756897  0.5823186635971069  0.480763554573059  1.0000
  As  As6       1.0  0.7193943858146667  0.7916950583457947  0.808859884738922  1.0000
  O   O1        1.0  0.2550908327102661  0.6657517552375793  0.15477694571018216  1.0000
  O   O2        1.0  0.47255468368530273  0.16868655383586884  0.3599096238613128  1.0000
  O   O3        1.0  0.7044817209243774  0.45019134879112244  0.5537949204444885  1.0000
  Pb  Pb1       1.0  0.4822828769683838  0.6183287501335144  0.9679188728332518  1.0000
