data_image0
_chemical_formula_structural       As5O3Pb2
_chemical_formula_sum              "As5 O3 Pb2"
_cell_length_a       5.056833775946398
_cell_length_b       7.354798516555762
_cell_length_c       7.230058193206787
_cell_angle_alpha    120.05275925003527
_cell_angle_beta     90.55641534041564
_cell_angle_gamma    88.68292134496136

_space_group_name_H-M_alt    "P 1"
_space_group_IT_number       1

loop_
  _space_group_symop_operation_xyz
  'x, y, z'

loop_
  _atom_site_type_symbol
  _atom_site_label
  _atom_site_symmetry_multiplicity
  _atom_site_fract_x
  _atom_site_fract_y
  _atom_site_fract_z
  _atom_site_occupancy
  As  As1       1.0  0.629058301448822  0.36901456117630005  0.4231380224227905  1.0000
  As  As2       1.0  0.12768130004405975  0.37073662877082825  0.2981071174144745  1.0000
  As  As3       1.0  0.13019561767578125  0.7884206175804138  0.08375918120145792  1.0000
  As  As4       1.0  0.6280967593193054  0.10132613778114319  0.8215563893318176  1.0000
  As  As5       1.0  0.6287264227867126  0.8738924264907837  0.23365902900695795  1.0000
  O   O1        1.0  0.11613265424966812  0.3399350941181183  0.1958745718002319  1.0000
  O   O2        1.0  0.147433802485466  0.11427292227745056  0.8014918565750122  1.0000
  O   O3        1.0  0.627494215965271  0.8576736450195312  0.8934988975524901  1.0000
  Pb  Pb1       1.0  0.6435185670852661  0.3704855144023895  0.6554938554763794  1.0000
  Pb  Pb2       1.0  0.6333866119384766  0.6687997579574585  0.09365742653608317  1.0000
