data_image0
_chemical_formula_structural       As3O5Pb2
_chemical_formula_sum              "As3 O5 Pb2"
_cell_length_a       4.286414604831173
_cell_length_b       4.547191413336477
_cell_length_c       7.5566205978393555
_cell_angle_alpha    116.47696460938624
_cell_angle_beta     99.01486832414278
_cell_angle_gamma    81.75023900911813

_space_group_name_H-M_alt    "P 1"
_space_group_IT_number       1

loop_
  _space_group_symop_operation_xyz
  'x, y, z'

loop_
  _atom_site_type_symbol
  _atom_site_label
  _atom_site_symmetry_multiplicity
  _atom_site_fract_x
  _atom_site_fract_y
  _atom_site_fract_z
  _atom_site_occupancy
  As  As1       1.0  0.9515185952186584  0.32628369331359863  0.16607996821403503  1.0000
  As  As2       1.0  0.4552193880081177  0.30525490641593933  0.16170461475849152  1.0000
  As  As3       1.0  0.9730981588363647  0.7553053498268127  0.36647501587867737  1.0000
  O   O1        1.0  0.1411038339138031  0.012830354273319244  0.7098839282989502  1.0000
  O   O2        1.0  0.5936349630355835  0.32159170508384705  0.628447413444519  1.0000
  O   O3        1.0  0.9573951363563538  0.19497540593147278  0.15068697929382324  1.0000
  O   O4        1.0  0.4584345519542694  0.7574935555458069  0.8463210463523865  1.0000
  O   O5        1.0  0.9920663237571716  0.8158857822418213  0.09009064733982086  1.0000
  Pb  Pb1       1.0  0.9913716912269592  0.8021125793457031  0.8973726034164429  1.0000
  Pb  Pb2       1.0  0.4873614013195038  0.7979394197463989  0.40329188108444214  1.0000
