data_image0
_chemical_formula_structural       Sc3Se4Tl2
_chemical_formula_sum              "Sc3 Se4 Tl2"
_cell_length_a       3.9986724966490277
_cell_length_b       7.180034605505035
_cell_length_c       9.053727149963379
_cell_angle_alpha    90.86751739103471
_cell_angle_beta     90.06867460670344
_cell_angle_gamma    105.64139120221367

_space_group_name_H-M_alt    "P 1"
_space_group_IT_number       1

loop_
  _space_group_symop_operation_xyz
  'x, y, z'

loop_
  _atom_site_type_symbol
  _atom_site_label
  _atom_site_symmetry_multiplicity
  _atom_site_fract_x
  _atom_site_fract_y
  _atom_site_fract_z
  _atom_site_occupancy
  Sc  Sc1       1.0  0.5593394637107849  0.5409975051879883  0.560773491859436  1.0000
  Sc  Sc2       1.0  0.537722110748291  0.48996803164482117  0.1792961061000824  1.0000
  Sc  Sc3       1.0  0.11579684913158417  0.6718050837516785  0.906331479549408  1.0000
  Se  Se1       1.0  0.7097188830375671  0.8562843799591064  0.0592053197324276  1.0000
  Se  Se2       1.0  0.49325859546661377  0.4070056080818176  0.8742634057998657  1.0000
  Se  Se3       1.0  0.1832238733768463  0.7949806451797485  0.6283565163612366  1.0000
  Se  Se4       1.0  0.9647566080093384  0.3525545299053192  0.37408509850502014  1.0000
  Tl  Tl1       1.0  0.8552097678184509  0.11178335547447205  0.7526896595954895  1.0000
  Tl  Tl2       1.0  0.27391666173934937  0.9652760028839111  0.3115552961826324  1.0000
