data_image0
_chemical_formula_structural       IO3P2PbSeZr2
_chemical_formula_sum              "I1 O3 P2 Pb1 Se1 Zr2"
_cell_length_a       6.120787268122245
_cell_length_b       5.907390398293014
_cell_length_c       5.610915184020996
_cell_angle_alpha    56.71374696149074
_cell_angle_beta     58.534035596593945
_cell_angle_gamma    60.604076673231425

_space_group_name_H-M_alt    "P 1"
_space_group_IT_number       1

loop_
  _space_group_symop_operation_xyz
  'x, y, z'

loop_
  _atom_site_type_symbol
  _atom_site_label
  _atom_site_symmetry_multiplicity
  _atom_site_fract_x
  _atom_site_fract_y
  _atom_site_fract_z
  _atom_site_occupancy
  I   I1        1.0  0.12305565178394318  0.12703996896743774  0.9725751280784607  1.0000
  O   O1        1.0  0.8387389779090881  0.10182783752679825  0.6964027285575867  1.0000
  O   O2        1.0  0.5964296460151672  0.47404462099075323  0.6727957725524902  1.0000
  O   O3        1.0  0.6599024534225464  0.5814907550811768  0.47955283522605896  1.0000
  P   P1        1.0  0.7233046293258667  0.7943602204322815  0.17922912538051605  1.0000
  P   P2        1.0  0.18133246898651123  0.7840899229049683  0.9287189245223999  1.0000
  Pb  Pb1       1.0  0.8378298282623291  0.7756988406181335  0.28071725368499756  1.0000
  Se  Se1       1.0  0.5999302268028259  0.16207270324230194  0.8716057538986206  1.0000
  Zr  Zr1       1.0  0.16875800490379333  0.26508384943008423  0.9272969961166382  1.0000
  Zr  Zr2       1.0  0.785997748374939  0.7396564483642578  0.6427540183067322  1.0000
