data_image0
_chemical_formula_structural       GaGe2IKMoO3Pb
_chemical_formula_sum              "Ga1 Ge2 I1 K1 Mo1 O3 Pb1"
_cell_length_a       5.075442598315898
_cell_length_b       5.843995993143172
_cell_length_c       7.624624729156494
_cell_angle_alpha    88.51973618201198
_cell_angle_beta     90.0470968813799
_cell_angle_gamma    103.97434479118017

_space_group_name_H-M_alt    "P 1"
_space_group_IT_number       1

loop_
  _space_group_symop_operation_xyz
  'x, y, z'

loop_
  _atom_site_type_symbol
  _atom_site_label
  _atom_site_symmetry_multiplicity
  _atom_site_fract_x
  _atom_site_fract_y
  _atom_site_fract_z
  _atom_site_occupancy
  Ga  Ga1       1.0  0.6617604494094849  0.6458889842033386  0.8995772004127504  1.0000
  Ge  Ge1       1.0  0.11810697615146637  0.17375266551971436  0.7288604378700256  1.0000
  Ge  Ge2       1.0  0.10412967950105667  0.11958906799554825  0.8250940442085267  1.0000
  I   I1        1.0  0.17179596424102783  0.7558622360229492  0.31438329815864563  1.0000
  K   K1        1.0  0.6590716242790222  0.02676387131214142  0.9804828166961671  1.0000
  Mo  Mo1       1.0  0.65683513879776  0.38469019532203674  0.10993345826864244  1.0000
  O   O1        1.0  0.6038463711738586  0.14248058199882507  0.8357460498809816  1.0000
  O   O2        1.0  0.1622457653284073  0.7686545848846436  0.6852477192878723  1.0000
  O   O3        1.0  0.686939537525177  0.7495693564414978  0.41904100775718695  1.0000
  Pb  Pb1       1.0  0.6644502282142639  0.7471783757209778  0.07934186607599258  1.0000
