data_image0
_chemical_formula_structural       Mo8O2
_chemical_formula_sum              "Mo8 O2"
_cell_length_a       7.016763154912172
_cell_length_b       9.45466365352243
_cell_length_c       10.203359603881836
_cell_angle_alpha    127.87002452740585
_cell_angle_beta     89.14591373088489
_cell_angle_gamma    88.04973990148922

_space_group_name_H-M_alt    "P 1"
_space_group_IT_number       1

loop_
  _space_group_symop_operation_xyz
  'x, y, z'

loop_
  _atom_site_type_symbol
  _atom_site_label
  _atom_site_symmetry_multiplicity
  _atom_site_fract_x
  _atom_site_fract_y
  _atom_site_fract_z
  _atom_site_occupancy
  Mo  Mo1       1.0  0.1561179757118225  0.8151674270629883  0.48367947340011586  1.0000
  Mo  Mo2       1.0  0.8178642988204957  0.9658163189887999  0.7138208150863646  1.0000
  Mo  Mo3       1.0  0.3063230812549591  0.5327154397964478  0.42564523220062256  1.0000
  Mo  Mo4       1.0  0.8250191211700441  0.23681361973285675  0.78947514295578  1.0000
  Mo  Mo5       1.0  0.2786325216293335  0.2561364471912384  0.2287173867225647  1.0000
  Mo  Mo6       1.0  0.2817172706127167  0.8219796419143677  0.3021216094493865  1.0000
  Mo  Mo7       1.0  0.5160806179046631  0.164720818400383  0.7294936776161194  1.0000
  Mo  Mo8       1.0  0.272807240486145  0.9371107816696167  0.900705873966217  1.0000
  O   O1        1.0  0.525542676448822  0.013884675689041615  0.6847031712532042  1.0000
  O   O2        1.0  0.040658336132764816  0.7491146326065063  0.8395010232925415  1.0000
