data_image0
_chemical_formula_structural       Mo7NiO2
_chemical_formula_sum              "Mo7 Ni1 O2"
_cell_length_a       6.267778848571536
_cell_length_b       6.2586986391916914
_cell_length_c       7.3519673347473145
_cell_angle_alpha    132.95576877611796
_cell_angle_beta     101.23263412329361
_cell_angle_gamma    107.37954401501541

_space_group_name_H-M_alt    "P 1"
_space_group_IT_number       1

loop_
  _space_group_symop_operation_xyz
  'x, y, z'

loop_
  _atom_site_type_symbol
  _atom_site_label
  _atom_site_symmetry_multiplicity
  _atom_site_fract_x
  _atom_site_fract_y
  _atom_site_fract_z
  _atom_site_occupancy
  Mo  Mo1       1.0  0.538215398788452  0.9751175642013548  0.8335382342338561  1.0000
  Mo  Mo2       1.0  0.6570860147476196  0.2445612400770187  0.16223847866058347  1.0000
  Mo  Mo3       1.0  0.9156324863433838  0.3707937896251678  0.9304533004760741  1.0000
  Mo  Mo4       1.0  0.2115784287452697  0.10866541415452946  0.3572956025600433  1.0000
  Mo  Mo5       1.0  0.9231768250465392  0.11258447915315603  0.8188313841819762  1.0000
  Mo  Mo6       1.0  0.39932632446289057  0.8886771202087401  0.3964486420154571  1.0000
  Mo  Mo7       1.0  0.11054457724094384  0.28007912635803206  0.7014850974082946  1.0000
  Ni  Ni1       1.0  0.9129410982131957  0.019304178655147313  0.9159709811210631  1.0000
  O   O1        1.0  0.2150818407535553  0.0898120105266571  0.055260766297578805  1.0000
  O   O2        1.0  0.3769517838954925  0.24572989344596843  0.6692305803298949  1.0000
