data_image0
_chemical_formula_structural       GaKMoO3P2PbV
_chemical_formula_sum              "Ga1 K1 Mo1 O3 P2 Pb1 V1"
_cell_length_a       5.863644269460739
_cell_length_b       5.481384397967974
_cell_length_c       5.967309474945068
_cell_angle_alpha    63.08769519119137
_cell_angle_beta     62.18213313185318
_cell_angle_gamma    62.10812363227472

_space_group_name_H-M_alt    "P 1"
_space_group_IT_number       1

loop_
  _space_group_symop_operation_xyz
  'x, y, z'

loop_
  _atom_site_type_symbol
  _atom_site_label
  _atom_site_symmetry_multiplicity
  _atom_site_fract_x
  _atom_site_fract_y
  _atom_site_fract_z
  _atom_site_occupancy
  Ga  Ga1       1.0  0.3187296390533447  0.8827729821205139  0.1620146483182907  1.0000
  K   K1        1.0  0.0770111083984375  0.5987638235092163  0.6619725823402405  1.0000
  Mo  Mo1       1.0  0.706121027469635  0.39917224645614624  0.32043769955635076  1.0000
  O   O1        1.0  0.4210370182991028  0.043659135699272156  0.08984284102916722  1.0000
  O   O2        1.0  0.9879657030105591  0.10920274257659912  0.981191873550415  1.0000
  O   O3        1.0  0.5401501655578613  0.9931644201278687  0.15784867107868203  1.0000
  P   P1        1.0  0.24393512308597565  0.26593318581581116  0.34615737199783325  1.0000
  P   P2        1.0  0.08607304841279984  0.15379388630390167  0.049958329647779465  1.0000
  Pb  Pb1       1.0  0.7162423729896545  0.8273250460624695  0.6759949326515198  1.0000
  V   V1        1.0  0.21491070091724396  0.35264426469802856  0.9549726247787476  1.0000
