data_image0
_chemical_formula_structural       FI2O7
_chemical_formula_sum              "F1 I2 O7"
_cell_length_a       5.822663113029219
_cell_length_b       5.399991130140586
_cell_length_c       7.078205585479736
_cell_angle_alpha    100.74344692795235
_cell_angle_beta     89.98214657251225
_cell_angle_gamma    88.61259381382149

_space_group_name_H-M_alt    "P 1"
_space_group_IT_number       1

loop_
  _space_group_symop_operation_xyz
  'x, y, z'

loop_
  _atom_site_type_symbol
  _atom_site_label
  _atom_site_symmetry_multiplicity
  _atom_site_fract_x
  _atom_site_fract_y
  _atom_site_fract_z
  _atom_site_occupancy
  F   F1        1.0  0.9764891266822816  0.31887707114219666  0.6470674872398375  1.0000
  I   I1        1.0  0.7580310106277466  0.3637363910675049  0.33581787347793574  1.0000
  I   I2        1.0  0.5066463351249695  0.4735215306282044  0.5223163366317749  1.0000
  O   O1        1.0  0.7045747637748718  0.5367715358734131  0.5482344031333923  1.0000
  O   O2        1.0  0.1721576452255249  0.6648320555686951  0.08316648751497266  1.0000
  O   O3        1.0  0.1473720669746399  0.9255890846252443  0.27929118275642395  1.0000
  O   O4        1.0  0.26822444796562195  0.9074105620384217  0.11765836924314498  1.0000
  O   O5        1.0  0.5040715336799622  0.7897509336471558  0.006810814142227172  1.0000
  O   O6        1.0  0.7598772644996643  0.3589082360267639  0.6013574004173278  1.0000
  O   O7        1.0  0.7783294320106506  0.09129201620817184  0.8089619278907775  1.0000
