data_image0
_chemical_formula_structural       BaCoPPrSi6Zn
_chemical_formula_sum              "Ba1 Co1 P1 Pr1 Si6 Zn1"
_cell_length_a       4.512760425492919
_cell_length_b       7.512046048213997
_cell_length_c       7.248260974884033
_cell_angle_alpha    120.74157729985478
_cell_angle_beta     91.80839670707603
_cell_angle_gamma    89.42129535798297

_space_group_name_H-M_alt    "P 1"
_space_group_IT_number       1

loop_
  _space_group_symop_operation_xyz
  'x, y, z'

loop_
  _atom_site_type_symbol
  _atom_site_label
  _atom_site_symmetry_multiplicity
  _atom_site_fract_x
  _atom_site_fract_y
  _atom_site_fract_z
  _atom_site_occupancy
  Ba  Ba1       1.0  0.17299500107765198  0.1665269285440445  0.26543283462524414  1.0000
  Co  Co1       1.0  0.6706706285476685  0.8614993691444397  0.5910924673080444  1.0000
  P   P1        1.0  0.18027521669864655  0.5296142101287842  0.809561014175415  1.0000
  Pr  Pr1       1.0  0.6638211607933044  0.8603910207748413  0.8346783518791199  1.0000
  Si  Si1       1.0  0.9107948541641235  0.7007443904876709  0.730758011341095  1.0000
  Si  Si2       1.0  0.16579805314540863  0.3799728453159332  0.5046897530555725  1.0000
  Si  Si3       1.0  0.672517716884613  0.5957485437393188  0.0641106367111206  1.0000
  Si  Si4       1.0  0.6700391173362732  0.22021356225013733  0.24383746087551117  1.0000
  Si  Si5       1.0  0.17713765799999237  0.41427263617515564  0.5727359652519226  1.0000
  Si  Si6       1.0  0.16770896315574646  0.8696833848953247  0.8314871788024902  1.0000
  Zn  Zn1       1.0  0.672127366065979  0.8964931964874268  0.2307339906692505  1.0000
