data_image0
_chemical_formula_structural       CoPSi6UZr2
_chemical_formula_sum              "Co1 P1 Si6 U1 Zr2"
_cell_length_a       4.604104993739627
_cell_length_b       5.1872226383615
_cell_length_c       7.357801914215088
_cell_angle_alpha    103.44970288347074
_cell_angle_beta     100.85015489558539
_cell_angle_gamma    88.78900040755384

_space_group_name_H-M_alt    "P 1"
_space_group_IT_number       1

loop_
  _space_group_symop_operation_xyz
  'x, y, z'

loop_
  _atom_site_type_symbol
  _atom_site_label
  _atom_site_symmetry_multiplicity
  _atom_site_fract_x
  _atom_site_fract_y
  _atom_site_fract_z
  _atom_site_occupancy
  Co  Co1       1.0  0.10320786386728287  0.06255070865154266  0.18203574419021606  1.0000
  P   P1        1.0  0.03173021599650383  0.4210923910140991  0.22651484608650208  1.0000
  Si  Si1       1.0  0.3681800365447998  0.1600959151983261  0.39060816168785095  1.0000
  Si  Si2       1.0  0.6652973294258118  0.8994463086128235  0.44670695066452026  1.0000
  Si  Si3       1.0  0.8132646083831787  0.06881006062030792  0.9464256763458252  1.0000
  Si  Si4       1.0  0.6208978295326233  0.5796725153923035  0.6666789650917053  1.0000
  Si  Si5       1.0  0.05251234397292137  0.7421361207962036  0.6066232919692993  1.0000
  Si  Si6       1.0  0.540511429309845  0.9275076389312744  0.24214527010917664  1.0000
  U   U1        1.0  0.40253904461860657  0.5707489252090454  0.24763382971286776  1.0000
  Zr  Zr1       1.0  0.5941848158836365  0.5528826117515564  0.579643726348877  1.0000
  Zr  Zr2       1.0  0.10450039058923721  0.3802679479122162  0.4483574628829956  1.0000
