data_image0
_chemical_formula_structural       Co5MoSi5
_chemical_formula_sum              "Co5 Mo1 Si5"
_cell_length_a       4.861336002167118
_cell_length_b       5.01434022520567
_cell_length_c       5.911449909210205
_cell_angle_alpha    92.29765676121319
_cell_angle_beta     89.13399102179767
_cell_angle_gamma    89.00279574339615

_space_group_name_H-M_alt    "P 1"
_space_group_IT_number       1

loop_
  _space_group_symop_operation_xyz
  'x, y, z'

loop_
  _atom_site_type_symbol
  _atom_site_label
  _atom_site_symmetry_multiplicity
  _atom_site_fract_x
  _atom_site_fract_y
  _atom_site_fract_z
  _atom_site_occupancy
  Co  Co1       1.0  0.31654855608940125  0.9105566740036011  0.24646866321563723  1.0000
  Co  Co2       1.0  0.32376667857170105  0.8726913332939148  0.32469478249549866  1.0000
  Co  Co3       1.0  0.3267778158187866  0.7413188815116882  0.8543964624404907  1.0000
  Co  Co4       1.0  0.3176576495170593  0.7458035349845886  0.8162996172904968  1.0000
  Co  Co5       1.0  0.3164309561252594  0.475079745054245  0.35109737515449524  1.0000
  Mo  Mo1       1.0  0.8162909746170044  0.3718540072441101  0.9809210300445558  1.0000
  Si  Si1       1.0  0.8192238807678223  0.4023658037185669  0.843506395816803  1.0000
  Si  Si2       1.0  0.8240240216255188  0.12510722875595093  0.6175832152366638  1.0000
  Si  Si3       1.0  0.815944254398346  0.09034564346075058  0.4379689693450928  1.0000
  Si  Si4       1.0  0.821431815624237  0.08780311793088913  0.47763130068779  1.0000
  Si  Si5       1.0  0.817386269569397  0.5850681066513062  0.8024198412895203  1.0000
