data_image0
_chemical_formula_structural       BaClGePSi5ZnZr
_chemical_formula_sum              "Ba1 Cl1 Ge1 P1 Si5 Zn1 Zr1"
_cell_length_a       4.465057518837156
_cell_length_b       6.988220135461477
_cell_length_c       7.014017581939697
_cell_angle_alpha    119.02619553541149
_cell_angle_beta     89.1133024586063
_cell_angle_gamma    89.81236576195703

_space_group_name_H-M_alt    "P 1"
_space_group_IT_number       1

loop_
  _space_group_symop_operation_xyz
  'x, y, z'

loop_
  _atom_site_type_symbol
  _atom_site_label
  _atom_site_symmetry_multiplicity
  _atom_site_fract_x
  _atom_site_fract_y
  _atom_site_fract_z
  _atom_site_occupancy
  Ba  Ba1       1.0  0.09082936495542526  0.4086917936801911  0.8573073148727417  1.0000
  Cl  Cl1       1.0  0.584470808506012  0.4310418367385865  0.12332183122634892  1.0000
  Ge  Ge1       1.0  0.5900828242301941  0.9796984791755677  0.12445073574781425  1.0000
  P   P1        1.0  0.09215971827507019  0.5731448531150818  0.2865042686462403  1.0000
  Si  Si1       1.0  0.5950407385826111  0.09270448237657547  0.6202652454376221  1.0000
  Si  Si2       1.0  0.5913943648338318  0.6712117195129395  0.624618649482727  1.0000
  Si  Si3       1.0  0.591300368309021  0.1794806569814682  0.8132119178771973  1.0000
  Si  Si4       1.0  0.5895224213600159  0.7264026999473572  0.07405306398868568  1.0000
  Si  Si5       1.0  0.08835984766483307  0.572485089302063  0.5281245708465577  1.0000
  Zn  Zn1       1.0  0.08605421334505081  0.5449916124343872  0.11886530369520192  1.0000
  Zr  Zr1       1.0  0.08929581195116043  0.06945081055164337  0.7920249700546265  1.0000
