data_image0
_chemical_formula_structural       CoPdSi7VZn
_chemical_formula_sum              "Co1 Pd1 Si7 V1 Zn1"
_cell_length_a       5.080985115739304
_cell_length_b       6.930437516417952
_cell_length_c       7.867387294769287
_cell_angle_alpha    117.20258200813288
_cell_angle_beta     91.43312489740569
_cell_angle_gamma    89.29166446950492

_space_group_name_H-M_alt    "P 1"
_space_group_IT_number       1

loop_
  _space_group_symop_operation_xyz
  'x, y, z'

loop_
  _atom_site_type_symbol
  _atom_site_label
  _atom_site_symmetry_multiplicity
  _atom_site_fract_x
  _atom_site_fract_y
  _atom_site_fract_z
  _atom_site_occupancy
  Co  Co1       1.0  0.39968812465667725  0.070003442466259  0.5055493116378784  1.0000
  Pd  Pd1       1.0  0.12718281149864197  0.9599537253379822  0.01919433288276201  1.0000
  Si  Si1       1.0  0.3995159864425659  0.2629910111427307  0.03183536231517793  1.0000
  Si  Si2       1.0  0.40260741114616394  0.5992832779884338  0.028119705617427878  1.0000
  Si  Si3       1.0  0.9048975110054016  0.3494657576084137  0.40106123685836786  1.0000
  Si  Si4       1.0  0.8902389407157898  0.33588817715644836  0.8798255324363707  1.0000
  Si  Si5       1.0  0.6362552046775818  0.01146688312292099  0.18896086513996121  1.0000
  Si  Si6       1.0  0.12678757309913635  0.4906924068927765  0.5154089927673339  1.0000
  Si  Si7       1.0  0.12383171916007996  0.9582407474517822  0.9970807433128356  1.0000
  V   V1        1.0  0.8990464210510254  0.5700078010559082  0.04671524465084081  1.0000
  Zn  Zn1       1.0  0.6304835677146912  0.6800724267959595  0.3739064931869507  1.0000
