data_image0
_chemical_formula_structural       Co3Mo2Si5Sn
_chemical_formula_sum              "Co3 Mo2 Si5 Sn1"
_cell_length_a       4.632750428580162
_cell_length_b       5.597428320630168
_cell_length_c       5.780630111694336
_cell_angle_alpha    90.64356317320127
_cell_angle_beta     90.38455130631793
_cell_angle_gamma    89.24914977151403

_space_group_name_H-M_alt    "P 1"
_space_group_IT_number       1

loop_
  _space_group_symop_operation_xyz
  'x, y, z'

loop_
  _atom_site_type_symbol
  _atom_site_label
  _atom_site_symmetry_multiplicity
  _atom_site_fract_x
  _atom_site_fract_y
  _atom_site_fract_z
  _atom_site_occupancy
  Co  Co1       1.0  0.8863558173179626  0.150410994887352  0.0762147530913353  1.0000
  Co  Co2       1.0  0.3709839880466461  0.299633651971817  0.5307378172874451  1.0000
  Co  Co3       1.0  0.8733622431755066  0.8370900750160217  0.3011751174926758  1.0000
  Mo  Mo1       1.0  0.878345251083374  0.3529489040374756  0.1976102888584137  1.0000
  Mo  Mo2       1.0  0.37388384342193604  0.675983726978302  0.611029863357544  1.0000
  Si  Si1       1.0  0.3861500918865204  0.521661639213562  0.07371556013822556  1.0000
  Si  Si2       1.0  0.38127297163009644  0.1785355806350708  0.79067462682724  1.0000
  Si  Si3       1.0  0.379157692193985  0.01611517369747162  0.915083646774292  1.0000
  Si  Si4       1.0  0.8801826238632202  0.6803057193756104  0.5774130821228027  1.0000
  Si  Si5       1.0  0.8970062136650085  0.6297680139541626  0.823762059211731  1.0000
  Sn  Sn1       1.0  0.8865870237350464  0.6385236978530884  0.2983531951904297  1.0000
