data_image0
_chemical_formula_structural       AlBrGa2HLa4Sb
_chemical_formula_sum              "Al1 Br1 Ga2 H1 La4 Sb1"
_cell_length_a       6.518157663990343
_cell_length_b       4.929576183977246
_cell_length_c       8.196857452392578
_cell_angle_alpha    100.65148790388396
_cell_angle_beta     97.14655381855611
_cell_angle_gamma    152.5354644928535

_space_group_name_H-M_alt    "P 1"
_space_group_IT_number       1

loop_
  _space_group_symop_operation_xyz
  'x, y, z'

loop_
  _atom_site_type_symbol
  _atom_site_label
  _atom_site_symmetry_multiplicity
  _atom_site_fract_x
  _atom_site_fract_y
  _atom_site_fract_z
  _atom_site_occupancy
  Al  Al1       1.0  0.7119114398956299  0.1623610109090805  0.9534315466880798  1.0000
  Br  Br1       1.0  0.9760378003120422  0.3761153221130371  0.2999635636806488  1.0000
  Ga  Ga1       1.0  0.8163112998008728  0.2605571746826172  0.9422594904899597  1.0000
  Ga  Ga2       1.0  0.8140053153038025  0.03684888407588005  0.3706073462963104  1.0000
  H   H1        1.0  0.5884971618652344  0.8778284788131714  0.734195351600647  1.0000
  La  La1       1.0  0.3351189196109772  0.2347502261400223  0.3904137909412384  1.0000
  La  La2       1.0  0.31588292121887207  0.20865869522094727  0.651839017868042  1.0000
  La  La3       1.0  0.9513903260231018  0.6062860488891602  0.1383516639471054  1.0000
  La  La4       1.0  0.9537869095802308  0.9877424240112306  0.4215262532234192  1.0000
  Sb  Sb1       1.0  0.4375576376914978  0.652949333190918  0.9879414439201355  1.0000
