data_image0
_chemical_formula_structural       Br2GaGeHLa4Sb
_chemical_formula_sum              "Br2 Ga1 Ge1 H1 La4 Sb1"
_cell_length_a       6.199231404794258
_cell_length_b       6.095557162463282
_cell_length_c       6.055964946746826
_cell_angle_alpha    123.69725914970621
_cell_angle_beta     104.85925656218764
_cell_angle_gamma    106.46127139972756

_space_group_name_H-M_alt    "P 1"
_space_group_IT_number       1

loop_
  _space_group_symop_operation_xyz
  'x, y, z'

loop_
  _atom_site_type_symbol
  _atom_site_label
  _atom_site_symmetry_multiplicity
  _atom_site_fract_x
  _atom_site_fract_y
  _atom_site_fract_z
  _atom_site_occupancy
  Br  Br1       1.0  0.5780535936355591  0.25395822525024414  0.8393577933311464  1.0000
  Br  Br2       1.0  0.05782511457800865  0.6106197834014893  0.9231537580490113  1.0000
  Ga  Ga1       1.0  0.5490403175354004  0.1013864129781723  0.43522697687149053  1.0000
  Ge  Ge1       1.0  0.06467477977275848  0.9885187149047852  0.24125984311103824  1.0000
  H   H1        1.0  0.5918644070625305  0.17088088393211365  0.28803253173828125  1.0000
  La  La1       1.0  0.4684285819530487  0.02798495627939701  0.655825138092041  1.0000
  La  La2       1.0  0.5999255180358887  0.4310784339904785  0.5631934404373169  1.0000
  La  La3       1.0  0.09128633886575699  0.7955767512321472  0.028988359495997432  1.0000
  La  La4       1.0  0.4130631387233734  0.22785867750644684  0.04699994996190072  1.0000
  Sb  Sb1       1.0  0.4053812623023987  0.5368946194648743  0.6513320207595826  1.0000
