data_image0
_chemical_formula_structural       Br2La4SbZr3
_chemical_formula_sum              "Br2 La4 Sb1 Zr3"
_cell_length_a       6.535865790461516
_cell_length_b       8.178154421606301
_cell_length_c       8.503116607666016
_cell_angle_alpha    122.34315378569268
_cell_angle_beta     90.32903308593302
_cell_angle_gamma    87.44918622484644

_space_group_name_H-M_alt    "P 1"
_space_group_IT_number       1

loop_
  _space_group_symop_operation_xyz
  'x, y, z'

loop_
  _atom_site_type_symbol
  _atom_site_label
  _atom_site_symmetry_multiplicity
  _atom_site_fract_x
  _atom_site_fract_y
  _atom_site_fract_z
  _atom_site_occupancy
  Br  Br1       1.0  0.5611909627914429  0.25818687677383423  0.06065530702471733  1.0000
  Br  Br2       1.0  0.581226646900177  0.055972225964069366  0.04062355682253837  1.0000
  La  La1       1.0  0.5943079590797424  0.618319034576416  0.09433964639902111  1.0000
  La  La2       1.0  0.5942394733428955  0.5971745252609253  0.7149726748466492  1.0000
  La  La3       1.0  0.08829414099454881  0.9241395592689514  0.7280860543251038  1.0000
  La  La4       1.0  0.6065391302108765  0.6338891983032227  0.37309283018112177  1.0000
  Sb  Sb1       1.0  0.5883356928825378  0.004015204031020403  0.01881755143404007  1.0000
  Zr  Zr1       1.0  0.06815842539072037  0.306561142206192  0.6643055081367493  1.0000
  Zr  Zr2       1.0  0.07781315594911575  0.2149597853422165  0.06887517869472502  1.0000
  Zr  Zr3       1.0  0.09793786704540254  0.5320099592208862  0.17151735723018646  1.0000
