data_image0
_chemical_formula_structural       La10
_chemical_formula_sum              "La10"
_cell_length_a       6.01912783729708
_cell_length_b       6.756841424210834
_cell_length_c       6.778541088104248
_cell_angle_alpha    125.85312400158404
_cell_angle_beta     108.59452419996734
_cell_angle_gamma    114.16113619328469

_space_group_name_H-M_alt    "P 1"
_space_group_IT_number       1

loop_
  _space_group_symop_operation_xyz
  'x, y, z'

loop_
  _atom_site_type_symbol
  _atom_site_label
  _atom_site_symmetry_multiplicity
  _atom_site_fract_x
  _atom_site_fract_y
  _atom_site_fract_z
  _atom_site_occupancy
  La  La1       1.0  0.2832186818122864  0.23120601475238803  0.6236093640327454  1.0000
  La  La2       1.0  0.29053801298141485  0.26499545574188244  0.6972740292549134  1.0000
  La  La3       1.0  0.956636369228363  0.3150928318500519  0.3960108458995819  1.0000
  La  La4       1.0  0.9403548240661621  0.3024646341800689  0.3430097103118896  1.0000
  La  La5       1.0  0.2871977984905243  0.4129104018211365  0.9142174124717712  1.0000
  La  La6       1.0  0.7975680232048035  0.5682816505432129  0.45859193801879883  1.0000
  La  La7       1.0  0.5907346010208131  0.12330175936222089  0.565972924232483  1.0000
  La  La8       1.0  0.2924027144908905  0.8687178492546082  0.5466349720954895  1.0000
  La  La9       1.0  0.8095558285713196  0.7631381154060364  0.25991228222846985  1.0000
  La  La10      1.0  0.6919379234313965  0.7999184727668762  0.1437616348266602  1.0000
