data_image0
_chemical_formula_structural       La10
_chemical_formula_sum              "La10"
_cell_length_a       4.660679247925024
_cell_length_b       8.292579244690742
_cell_length_c       7.740021705627441
_cell_angle_alpha    128.94209483603768
_cell_angle_beta     90.84255768866723
_cell_angle_gamma    84.51440339781001

_space_group_name_H-M_alt    "P 1"
_space_group_IT_number       1

loop_
  _space_group_symop_operation_xyz
  'x, y, z'

loop_
  _atom_site_type_symbol
  _atom_site_label
  _atom_site_symmetry_multiplicity
  _atom_site_fract_x
  _atom_site_fract_y
  _atom_site_fract_z
  _atom_site_occupancy
  La  La1       1.0  0.5430147647857666  0.22143791615962982  0.6525205373764038  1.0000
  La  La2       1.0  0.5274797081947327  0.8472392559051514  0.29829958081245433  1.0000
  La  La3       1.0  0.04272029176354408  0.6054444313049316  0.47232291102409363  1.0000
  La  La4       1.0  0.5598224401473999  0.49479910731315613  0.948279857635498  1.0000
  La  La5       1.0  0.0556444488465786  0.4915093779563904  0.39977020025253296  1.0000
  La  La6       1.0  0.05228278413414955  0.808368980884552  0.41376954317092896  1.0000
  La  La7       1.0  0.5396748185157776  0.3105442225933075  0.35932594537734985  1.0000
  La  La8       1.0  0.05231491103768349  0.8472681045532227  0.4188098907470703  1.0000
  La  La9       1.0  0.05130975693464279  0.697613537311554  0.7357157468795776  1.0000
  La  La10      1.0  0.05049120634794235  0.772476077079773  0.22913970053195953  1.0000
