data_image0
_chemical_formula_structural       H5OZn7
_chemical_formula_sum              "H5 O1 Zn7"
_cell_length_a       5.404279495960194
_cell_length_b       5.612003259425949
_cell_length_c       6.839229106903076
_cell_angle_alpha    111.68939097114209
_cell_angle_beta     102.1544741783383
_cell_angle_gamma    110.53967941258648

_space_group_name_H-M_alt    "P 1"
_space_group_IT_number       1

loop_
  _space_group_symop_operation_xyz
  'x, y, z'

loop_
  _atom_site_type_symbol
  _atom_site_label
  _atom_site_symmetry_multiplicity
  _atom_site_fract_x
  _atom_site_fract_y
  _atom_site_fract_z
  _atom_site_occupancy
  H   H1        1.0  0.5857982039451599  0.8165921568870544  0.1308638751506805  1.0000
  H   H2        1.0  0.9058812260627747  0.15054507553577423  0.5143045783042908  1.0000
  H   H3        1.0  0.09804123640060425  0.8866784572601318  0.30835017561912537  1.0000
  H   H4        1.0  0.4125838577747345  0.9693697690963745  0.45086145401000977  1.0000
  H   H5        1.0  0.41966116428375244  0.5061665773391724  0.9769598841667175  1.0000
  O   O1        1.0  0.9481831789016724  0.040794212371110916  0.735729992389679  1.0000
  Zn  Zn1       1.0  0.23894408345222473  0.5796746611595154  0.24466054141521454  1.0000
  Zn  Zn2       1.0  0.8466686606407166  0.24724996089935303  0.17641524970531464  1.0000
  Zn  Zn3       1.0  0.9988742470741272  0.6423918604850769  0.9639778137207031  1.0000
  Zn  Zn4       1.0  0.2311248630285263  0.17065513134002686  0.4857465922832489  1.0000
  Zn  Zn5       1.0  0.20872637629508972  0.3265698254108429  0.7275350689888  1.0000
  Zn  Zn6       1.0  0.638670802116394  0.17083394527435303  0.5148370265960693  1.0000
  Zn  Zn7       1.0  0.23996509611606598  0.5557687282562256  0.6537459492683411  1.0000
