data_image0
_chemical_formula_structural       H3OUZn8
_chemical_formula_sum              "H3 O1 U1 Zn8"
_cell_length_a       5.900271591511558
_cell_length_b       6.326116810888434
_cell_length_c       6.801512241363525
_cell_angle_alpha    64.12468589971859
_cell_angle_beta     64.3467802837642
_cell_angle_gamma    64.13972743747766

_space_group_name_H-M_alt    "P 1"
_space_group_IT_number       1

loop_
  _space_group_symop_operation_xyz
  'x, y, z'

loop_
  _atom_site_type_symbol
  _atom_site_label
  _atom_site_symmetry_multiplicity
  _atom_site_fract_x
  _atom_site_fract_y
  _atom_site_fract_z
  _atom_site_occupancy
  H   H1        1.0  0.5976502895355225  0.8912277817726135  0.06984779983758926  1.0000
  H   H2        1.0  0.2979837954044342  0.00776972621679306  0.5642710328102112  1.0000
  H   H3        1.0  0.08932211995124817  0.6708993315696716  0.3685590326786041  1.0000
  O   O1        1.0  0.41838762164115906  0.38865917921066284  0.8487369418144226  1.0000
  U   U1        1.0  0.3165619373321533  0.05359511077404022  0.6118339896202087  1.0000
  Zn  Zn1       1.0  0.8249802589416504  0.0073686325922608376  0.079643301665783  1.0000
  Zn  Zn2       1.0  0.057973198592662804  0.2815122902393341  0.3685795068740845  1.0000
  Zn  Zn3       1.0  0.29540467262268066  0.0037338805850595236  0.8646983504295349  1.0000
  Zn  Zn4       1.0  0.8155866861343384  0.5023242831230164  0.8639590740203857  1.0000
  Zn  Zn5       1.0  0.3037509620189667  0.9960020780563354  0.3579876124858856  1.0000
  Zn  Zn6       1.0  0.8917565941810608  0.500236988067627  0.5655211806297302  1.0000
  Zn  Zn7       1.0  0.6167517304420471  0.7579644918441772  0.43166229128837585  1.0000
  Zn  Zn8       1.0  0.5977188348770142  0.49909520149230957  0.8889746069908142  1.0000
