data_image0
_chemical_formula_structural       H3O4Si2Zn4
_chemical_formula_sum              "H3 O4 Si2 Zn4"
_cell_length_a       5.188271425935359
_cell_length_b       6.018788689149439
_cell_length_c       6.486353874206543
_cell_angle_alpha    103.85252662003958
_cell_angle_beta     102.17061921694801
_cell_angle_gamma    105.65064137219977

_space_group_name_H-M_alt    "P 1"
_space_group_IT_number       1

loop_
  _space_group_symop_operation_xyz
  'x, y, z'

loop_
  _atom_site_type_symbol
  _atom_site_label
  _atom_site_symmetry_multiplicity
  _atom_site_fract_x
  _atom_site_fract_y
  _atom_site_fract_z
  _atom_site_occupancy
  H   H1        1.0  0.7819038033485413  0.35045257210731506  0.3654114902019501  1.0000
  H   H2        1.0  0.9434413909912109  0.6149952411651611  0.7205225229263306  1.0000
  H   H3        1.0  0.36166897416114807  0.9335710406303406  0.5551511645317078  1.0000
  O   O1        1.0  0.6342844367027283  0.8102336525917053  0.42124834656715393  1.0000
  O   O2        1.0  0.8168706297874451  0.7909599542617798  0.22896744310855865  1.0000
  O   O3        1.0  0.1114872545003891  0.07829993963241577  0.5450578331947327  1.0000
  O   O4        1.0  0.2023639678955078  0.31049543619155884  0.02080727182328701  1.0000
  Si  Si1       1.0  0.639918863773346  0.08683554828166962  0.993575155735016  1.0000
  Si  Si2       1.0  0.47992995381355286  0.5712271332740784  0.6683018803596497  1.0000
  Zn  Zn1       1.0  0.6198586821556091  0.03452000394463539  0.013464681804180145  1.0000
  Zn  Zn2       1.0  0.48084455728530884  0.8571212291717529  0.11700978130102159  1.0000
  Zn  Zn3       1.0  0.99754798412323  0.10169707238674164  0.18567545711994177  1.0000
  Zn  Zn4       1.0  0.23564136028289795  0.6785920262336731  0.5078924894332886  1.0000
