data_image0
_chemical_formula_structural       H2O5Si3Zn3
_chemical_formula_sum              "H2 O5 Si3 Zn3"
_cell_length_a       5.707974470938665
_cell_length_b       6.196613217032636
_cell_length_c       6.311882019042969
_cell_angle_alpha    109.6125194980001
_cell_angle_beta     100.3766817935163
_cell_angle_gamma    112.0802702061309

_space_group_name_H-M_alt    "P 1"
_space_group_IT_number       1

loop_
  _space_group_symop_operation_xyz
  'x, y, z'

loop_
  _atom_site_type_symbol
  _atom_site_label
  _atom_site_symmetry_multiplicity
  _atom_site_fract_x
  _atom_site_fract_y
  _atom_site_fract_z
  _atom_site_occupancy
  H   H1        1.0  0.5621551871299744  0.3721621036529541  0.2946696877479553  1.0000
  H   H2        1.0  0.6291747093200684  0.7689975500106812  0.10519213229417801  1.0000
  O   O1        1.0  0.28709647059440613  0.9197412729263306  0.8509875535964966  1.0000
  O   O2        1.0  0.8368918299674988  0.9110459089279175  0.6740250587463379  1.0000
  O   O3        1.0  0.3188146948814392  0.9170968532562256  0.026295168325304985  1.0000
  O   O4        1.0  0.27892860770225525  0.403077632188797  0.3831470012664795  1.0000
  O   O5        1.0  0.8443740010261536  0.6247557997703552  0.40899670124053955  1.0000
  Si  Si1       1.0  0.010230311192572117  0.4096287190914154  0.9420015215873718  1.0000
  Si  Si2       1.0  0.681518018245697  0.7372491955757141  0.292967289686203  1.0000
  Si  Si3       1.0  0.6719891428947449  0.25896400213241577  0.09708046913146973  1.0000
  Zn  Zn1       1.0  0.18927019834518433  0.7287442684173584  0.6061022281646729  1.0000
  Zn  Zn2       1.0  0.9674720168113708  0.864799439907074  0.6785603761672974  1.0000
  Zn  Zn3       1.0  0.3976910710334778  0.9151013493537903  0.9184319972991943  1.0000
