data_image0
_chemical_formula_structural       H4OSi5Zn3
_chemical_formula_sum              "H4 O1 Si5 Zn3"
_cell_length_a       5.0481541798994
_cell_length_b       5.683239534410661
_cell_length_c       7.2647223472595215
_cell_angle_alpha    93.86579620703378
_cell_angle_beta     90.38470157957346
_cell_angle_gamma    89.80214996190608

_space_group_name_H-M_alt    "P 1"
_space_group_IT_number       1

loop_
  _space_group_symop_operation_xyz
  'x, y, z'

loop_
  _atom_site_type_symbol
  _atom_site_label
  _atom_site_symmetry_multiplicity
  _atom_site_fract_x
  _atom_site_fract_y
  _atom_site_fract_z
  _atom_site_occupancy
  H   H1        1.0  0.8944063186645508  0.1063799113035202  0.4424739778041839  1.0000
  H   H2        1.0  0.38203704357147217  0.27824002504348755  0.7059239149093627  1.0000
  H   H3        1.0  0.6067137122154236  0.7421671152114868  0.998081862926483  1.0000
  H   H4        1.0  0.14127816259860992  0.5149996280670166  0.047793280333280556  1.0000
  O   O1        1.0  0.6417105793952942  0.5116462707519531  0.5643192529678345  1.0000
  Si  Si1       1.0  0.7912280559539795  0.019041310995817184  0.19475871324539182  1.0000
  Si  Si2       1.0  0.6438300609588623  0.008136903867125511  0.3603443503379821  1.0000
  Si  Si3       1.0  0.783494234085083  0.05609416961669922  0.8616241216659545  1.0000
  Si  Si4       1.0  0.3822658360004425  0.2865554988384247  0.5041207075119019  1.0000
  Si  Si5       1.0  0.29070428013801575  0.7712429761886597  0.8583214879035949  1.0000
  Zn  Zn1       1.0  0.9274172186851501  0.5225914120674133  0.5093020796775818  1.0000
  Zn  Zn2       1.0  0.3887726962566376  0.2821939289569855  0.29506975412368774  1.0000
  Zn  Zn3       1.0  0.8985479474067688  0.29586321115493774  0.09900736063718794  1.0000
