data_image0
_chemical_formula_structural       H3O2Si4Zn4
_chemical_formula_sum              "H3 O2 Si4 Zn4"
_cell_length_a       5.3005993281430746
_cell_length_b       6.672497832626143
_cell_length_c       6.667774677276611
_cell_angle_alpha    68.50183256007494
_cell_angle_beta     64.33941000985453
_cell_angle_gamma    66.52560976967344

_space_group_name_H-M_alt    "P 1"
_space_group_IT_number       1

loop_
  _space_group_symop_operation_xyz
  'x, y, z'

loop_
  _atom_site_type_symbol
  _atom_site_label
  _atom_site_symmetry_multiplicity
  _atom_site_fract_x
  _atom_site_fract_y
  _atom_site_fract_z
  _atom_site_occupancy
  H   H1        1.0  0.26592203974723816  0.7667689323425293  0.014327767305076122  1.0000
  H   H2        1.0  0.929105579853058  0.4443055987358094  0.8270873427391052  1.0000
  H   H3        1.0  0.6302503943443298  0.43866851925849915  0.18910537660121918  1.0000
  O   O1        1.0  0.17635975778102875  0.6995985507965088  0.770416796207428  1.0000
  O   O2        1.0  0.6936577558517456  0.7473630309104919  0.34647998213768005  1.0000
  Si  Si1       1.0  0.5595449805259705  0.5850734114646912  0.7838366627693176  1.0000
  Si  Si2       1.0  0.18158279359340668  0.24469916522502902  0.9597776532173157  1.0000
  Si  Si3       1.0  0.7996030449867249  0.2834288477897644  0.14206384122371665  1.0000
  Si  Si4       1.0  0.7655487656593323  0.7805624008178711  0.5261359810829163  1.0000
  Zn  Zn1       1.0  0.5761343240737915  0.5691806077957153  0.9961925148963928  1.0000
  Zn  Zn2       1.0  0.39779841899871826  0.17947368323802948  0.235762670636177  1.0000
  Zn  Zn3       1.0  0.06361857801675792  0.951399326324463  0.01560339704155922  1.0000
  Zn  Zn4       1.0  0.6920860409736633  0.7081373333930969  0.28508940339088434  1.0000
