data_image0
_chemical_formula_structural       FeI2PPtZn
_chemical_formula_sum              "Fe1 I2 P1 Pt1 Zn1"
_cell_length_a       4.858154657011692
_cell_length_b       3.981171587996588
_cell_length_c       5.322336673736572
_cell_angle_alpha    73.65512280484751
_cell_angle_beta     76.12061997536844
_cell_angle_gamma    64.45019428698218

_space_group_name_H-M_alt    "P 1"
_space_group_IT_number       1

loop_
  _space_group_symop_operation_xyz
  'x, y, z'

loop_
  _atom_site_type_symbol
  _atom_site_label
  _atom_site_symmetry_multiplicity
  _atom_site_fract_x
  _atom_site_fract_y
  _atom_site_fract_z
  _atom_site_occupancy
  Fe  Fe1       1.0  0.9840803146362304  0.6084223389625549  0.4198097288608551  1.0000
  I   I1        1.0  0.2931013405323029  0.7965677976608275  0.1863732784986496  1.0000
  I   I2        1.0  0.43983599543571467  0.3999060988426208  0.812769889831543  1.0000
  P   P1        1.0  0.9944996237754821  0.9794609546661376  0.22552023828029633  1.0000
  Pt  Pt1       1.0  0.47162130475044245  0.5826197266578674  0.38883545994758606  1.0000
  Zn  Zn1       1.0  0.4469143450260162  0.8659588694572448  0.882523238658905  1.0000
