data_image0
_chemical_formula_structural       FeGaNiP2Pb
_chemical_formula_sum              "Fe1 Ga1 Ni1 P2 Pb1"
_cell_length_a       4.650289057992058
_cell_length_b       4.109979967478723
_cell_length_c       4.748612403869629
_cell_angle_alpha    56.42198531286241
_cell_angle_beta     58.49342401001458
_cell_angle_gamma    58.17672265085694

_space_group_name_H-M_alt    "P 1"
_space_group_IT_number       1

loop_
  _space_group_symop_operation_xyz
  'x, y, z'

loop_
  _atom_site_type_symbol
  _atom_site_label
  _atom_site_symmetry_multiplicity
  _atom_site_fract_x
  _atom_site_fract_y
  _atom_site_fract_z
  _atom_site_occupancy
  Fe  Fe1       1.0  0.5148836970329285  0.7329792976379396  0.9250771999359131  1.0000
  Ga  Ga1       1.0  0.549319863319397  0.13800233602523804  0.923723578453064  1.0000
  Ni  Ni1       1.0  0.048246443271636956  0.5858749151229858  0.6403982043266296  1.0000
  P   P1        1.0  0.04790314659476274  0.9966120123863221  0.6297075152397156  1.0000
  P   P2        1.0  0.910220980644226  0.4176770150661469  0.6167808175086975  1.0000
  Pb  Pb1       1.0  0.5189230442047119  0.7755950689315797  0.9510049819946289  1.0000
