data_image0
_chemical_formula_structural       La4Ru4S
_chemical_formula_sum              "La4 Ru4 S1"
_cell_length_a       5.944716672928161
_cell_length_b       5.266511755875201
_cell_length_c       6.766568660736084
_cell_angle_alpha    117.82689696381055
_cell_angle_beta     116.17851911487311
_cell_angle_gamma    88.53760433900428

_space_group_name_H-M_alt    "P 1"
_space_group_IT_number       1

loop_
  _space_group_symop_operation_xyz
  'x, y, z'

loop_
  _atom_site_type_symbol
  _atom_site_label
  _atom_site_symmetry_multiplicity
  _atom_site_fract_x
  _atom_site_fract_y
  _atom_site_fract_z
  _atom_site_occupancy
  La  La1       1.0  0.2239028513431549  0.0029958714731037617  0.028475496917963028  1.0000
  La  La2       1.0  0.9224873185157776  0.3656516373157501  0.772594153881073  1.0000
  La  La3       1.0  0.5865390300750732  0.18652519583702087  0.4469362497329712  1.0000
  La  La4       1.0  0.2620951533317566  0.16612499952316284  0.6717544198036194  1.0000
  Ru  Ru1       1.0  0.2639845311641693  0.349675714969635  0.2758546471595764  1.0000
  Ru  Ru2       1.0  0.3069519102573395  0.856144368648529  0.7774516940116882  1.0000
  Ru  Ru3       1.0  0.9863625764846802  0.05382417142391205  0.4611018896102905  1.0000
  Ru  Ru4       1.0  0.020845014601945877  0.6867627501487732  0.27016296982765203  1.0000
  S   S1        1.0  0.05115406587719917  0.6811347603797913  0.34526583552360535  1.0000
