data_image0
_chemical_formula_structural       BLa3Ru5
_chemical_formula_sum              "B1 La3 Ru5"
_cell_length_a       4.177433412467381
_cell_length_b       5.922524571694476
_cell_length_c       6.038755416870117
_cell_angle_alpha    121.47617577003022
_cell_angle_beta     88.60008739667023
_cell_angle_gamma    89.11093866561633

_space_group_name_H-M_alt    "P 1"
_space_group_IT_number       1

loop_
  _space_group_symop_operation_xyz
  'x, y, z'

loop_
  _atom_site_type_symbol
  _atom_site_label
  _atom_site_symmetry_multiplicity
  _atom_site_fract_x
  _atom_site_fract_y
  _atom_site_fract_z
  _atom_site_occupancy
  B   B1        1.0  0.4194299876689911  0.28257298469543457  0.6120580434799194  1.0000
  La  La1       1.0  0.9236763715744019  0.28471535444259644  0.06676293164491653  1.0000
  La  La2       1.0  0.4213331639766693  0.8101426362991333  0.38116222620010376  1.0000
  La  La3       1.0  0.4247299134731293  0.7745826244354248  0.5723394155502319  1.0000
  Ru  Ru1       1.0  0.9227086305618286  0.28477784991264343  0.10354679077863693  1.0000
  Ru  Ru2       1.0  0.9187744855880737  0.5742481350898743  0.6178604364395142  1.0000
  Ru  Ru3       1.0  0.4207472801208496  0.2751529812812805  0.30754995346069336  1.0000
  Ru  Ru4       1.0  0.42366746068000793  0.27092063426971436  0.8442137837409973  1.0000
  Ru  Ru5       1.0  0.9256370067596436  0.9542744755744935  0.3360607922077179  1.0000
