data_image0
_chemical_formula_structural       B2La2Ru4U
_chemical_formula_sum              "B2 La2 Ru4 U1"
_cell_length_a       5.091186355996168
_cell_length_b       4.999645604297823
_cell_length_c       6.5239176750183105
_cell_angle_alpha    115.5020610693117
_cell_angle_beta     116.6758271031499
_cell_angle_gamma    88.7963800346764

_space_group_name_H-M_alt    "P 1"
_space_group_IT_number       1

loop_
  _space_group_symop_operation_xyz
  'x, y, z'

loop_
  _atom_site_type_symbol
  _atom_site_label
  _atom_site_symmetry_multiplicity
  _atom_site_fract_x
  _atom_site_fract_y
  _atom_site_fract_z
  _atom_site_occupancy
  B   B1        1.0  0.5769582390785217  0.6362775564193726  0.4223318994045257  1.0000
  B   B2        1.0  0.6364679932594299  0.11864607036113739  0.20004473626613614  1.0000
  La  La1       1.0  0.11088008433580399  0.14271600544452667  0.4242235720157623  1.0000
  La  La2       1.0  0.5773400664329529  0.6251875162124634  0.41337394714355463  1.0000
  Ru  Ru1       1.0  0.13563188910484314  0.9636632800102234  0.04246371611952781  1.0000
  Ru  Ru2       1.0  0.7522202134132385  0.34671440720558167  0.9222201108932494  1.0000
  Ru  Ru3       1.0  0.7511499524116516  0.8504338264465332  0.9223182797431945  1.0000
  Ru  Ru4       1.0  0.07925626635551453  0.636880099773407  0.4338493645191192  1.0000
  U   U1        1.0  0.04114881902933121  0.34874388575553894  0.6032596826553345  1.0000
