data_image0
_chemical_formula_structural       AuB3BrLa4
_chemical_formula_sum              "Au1 B3 Br1 La4"
_cell_length_a       5.361296041369607
_cell_length_b       5.757204445302892
_cell_length_c       6.961297512054443
_cell_angle_alpha    113.89726838352706
_cell_angle_beta     113.29076689378114
_cell_angle_gamma    88.1609889571409

_space_group_name_H-M_alt    "P 1"
_space_group_IT_number       1

loop_
  _space_group_symop_operation_xyz
  'x, y, z'

loop_
  _atom_site_type_symbol
  _atom_site_label
  _atom_site_symmetry_multiplicity
  _atom_site_fract_x
  _atom_site_fract_y
  _atom_site_fract_z
  _atom_site_occupancy
  Au  Au1       1.0  0.2752007842063904  0.7631140947341919  0.6432005167007446  1.0000
  B   B1        1.0  0.9937519431114198  0.25133687257766724  0.347474068403244  1.0000
  B   B2        1.0  0.559080958366394  0.6076945066452026  0.14134587347507477  1.0000
  B   B3        1.0  0.5175188779830933  0.6111096739768982  0.13818253576755524  1.0000
  Br  Br1       1.0  0.8319899439811708  0.5138208866119385  0.7885411381721497  1.0000
  La  La1       1.0  0.0070482511073350915  0.002764875767752528  0.14816372096538544  1.0000
  La  La2       1.0  0.7643530964851379  0.2681257724761963  0.6406363844871521  1.0000
  La  La3       1.0  0.23938953876495364  0.8837496638298035  0.837216317653656  1.0000
  La  La4       1.0  0.48904880881309515  0.09190703183412552  0.36021658778190613  1.0000
