data_image0
_chemical_formula_structural       CoDyISe2V
_chemical_formula_sum              "Co1 Dy1 I1 Se2 V1"
_cell_length_a       4.8504912598496
_cell_length_b       4.147275379328898
_cell_length_c       6.303576469421387
_cell_angle_alpha    103.693710777746
_cell_angle_beta     100.95738571897466
_cell_angle_gamma    139.45028630189344

_space_group_name_H-M_alt    "P 1"
_space_group_IT_number       1

loop_
  _space_group_symop_operation_xyz
  'x, y, z'

loop_
  _atom_site_type_symbol
  _atom_site_label
  _atom_site_symmetry_multiplicity
  _atom_site_fract_x
  _atom_site_fract_y
  _atom_site_fract_z
  _atom_site_occupancy
  Co  Co1       1.0  0.840937614440918  0.5699498057365417  0.3213120996952057  1.0000
  Dy  Dy1       1.0  0.8402847051620483  0.6118307709693909  0.34166672825813293  1.0000
  I   I1        1.0  0.11008714139461517  0.8761116862297058  0.07772330939769745  1.0000
  Se  Se1       1.0  0.91322922706604  0.4752196669578552  0.8460814356803894  1.0000
  Se  Se2       1.0  0.31883126497268677  0.6609244346618652  0.934520423412323  1.0000
  V   V1        1.0  0.41936835646629333  0.09804566949605942  0.2874058187007904  1.0000
