data_image0
_chemical_formula_structural       B4Se2
_chemical_formula_sum              "B4 Se2"
_cell_length_a       3.864966070523756
_cell_length_b       4.850768082175394
_cell_length_c       6.074763774871826
_cell_angle_alpha    92.23143939698816
_cell_angle_beta     89.33689535578587
_cell_angle_gamma    93.73893032326207

_space_group_name_H-M_alt    "P 1"
_space_group_IT_number       1

loop_
  _space_group_symop_operation_xyz
  'x, y, z'

loop_
  _atom_site_type_symbol
  _atom_site_label
  _atom_site_symmetry_multiplicity
  _atom_site_fract_x
  _atom_site_fract_y
  _atom_site_fract_z
  _atom_site_occupancy
  B   B1        1.0  0.2151477038860321  0.7862569689750671  0.4368489980697632  1.0000
  B   B2        1.0  0.7236599922180176  0.3393365144729614  0.4795404970645905  1.0000
  B   B3        1.0  0.7155572772026062  0.35485026240348816  0.1692737191915512  1.0000
  B   B4        1.0  0.21445080637931824  0.19715799391269684  0.9363142848014833  1.0000
  Se  Se1       1.0  0.7148102521896362  0.8743716478347778  0.030178414657711986  1.0000
  Se  Se2       1.0  0.22690889239311218  0.6895498037338257  0.05905017629265786  1.0000
