data_image0
_chemical_formula_structural       B4Se2
_chemical_formula_sum              "B4 Se2"
_cell_length_a       3.2954479504109053
_cell_length_b       3.5752588720231095
_cell_length_c       6.8587236404418945
_cell_angle_alpha    94.33547300314291
_cell_angle_beta     95.96805339604634
_cell_angle_gamma    101.21333925562065

_space_group_name_H-M_alt    "P 1"
_space_group_IT_number       1

loop_
  _space_group_symop_operation_xyz
  'x, y, z'

loop_
  _atom_site_type_symbol
  _atom_site_label
  _atom_site_symmetry_multiplicity
  _atom_site_fract_x
  _atom_site_fract_y
  _atom_site_fract_z
  _atom_site_occupancy
  B   B1        1.0  0.7759469151496887  0.8102631568908691  0.7764415144920349  1.0000
  B   B2        1.0  0.9950049519538879  0.30418676137924194  0.7976605892181396  1.0000
  B   B3        1.0  0.43046310544013977  0.6221832036972046  0.29735836386680603  1.0000
  B   B4        1.0  0.6866279244422913  0.8808479309082031  0.33276259899139404  1.0000
  Se  Se1       1.0  0.43694841861724854  0.27436375617980957  0.5386565923690796  1.0000
  Se  Se2       1.0  0.10805551707744598  0.23827241361141205  0.06431352347135544  1.0000
