data_image0
_chemical_formula_structural       As2BCoLaSe
_chemical_formula_sum              "As2 B1 Co1 La1 Se1"
_cell_length_a       3.8046248789309107
_cell_length_b       3.501826812731545
_cell_length_c       8.56928539276123
_cell_angle_alpha    104.52201825002297
_cell_angle_beta     103.54360108510151
_cell_angle_gamma    90.33935653527395

_space_group_name_H-M_alt    "P 1"
_space_group_IT_number       1

loop_
  _space_group_symop_operation_xyz
  'x, y, z'

loop_
  _atom_site_type_symbol
  _atom_site_label
  _atom_site_symmetry_multiplicity
  _atom_site_fract_x
  _atom_site_fract_y
  _atom_site_fract_z
  _atom_site_occupancy
  As  As1       1.0  0.6885443925857544  0.47388273477554327  0.6054787039756775  1.0000
  As  As2       1.0  0.6792885065078735  0.9029089212417604  0.5709449648857117  1.0000
  B   B1        1.0  0.011885684914886958  0.9304957389831544  0.668624222278595  1.0000
  Co  Co1       1.0  0.49858421087265015  0.23487365245819095  0.2919445335865021  1.0000
  La  La1       1.0  0.6956288814544678  0.5293549299240112  0.5233615040779114  1.0000
  Se  Se1       1.0  0.20069202780723572  0.267938494682312  0.6214114427566528  1.0000
