data_image0
_chemical_formula_structural       As6Os2Zn
_chemical_formula_sum              "As6 Os2 Zn1"
_cell_length_a       5.100424145694196
_cell_length_b       4.939210099021373
_cell_length_c       7.697810173034668
_cell_angle_alpha    89.97712751972924
_cell_angle_beta     89.93126020205301
_cell_angle_gamma    108.29337998569751

_space_group_name_H-M_alt    "P 1"
_space_group_IT_number       1

loop_
  _space_group_symop_operation_xyz
  'x, y, z'

loop_
  _atom_site_type_symbol
  _atom_site_label
  _atom_site_symmetry_multiplicity
  _atom_site_fract_x
  _atom_site_fract_y
  _atom_site_fract_z
  _atom_site_occupancy
  As  As1       1.0  0.578971266746521  0.8175714612007141  0.2985347807407379  1.0000
  As  As2       1.0  0.02485082298517227  0.33989986777305603  0.5421150326728821  1.0000
  As  As3       1.0  0.06864279508590698  0.0796743854880333  0.450081467628479  1.0000
  As  As4       1.0  0.5073825120925903  0.16732852160930634  0.05733593925833702  1.0000
  As  As5       1.0  0.8835030198097229  0.19414831697940826  0.12681543827056885  1.0000
  As  As6       1.0  0.410481721162796  0.10782462358474731  0.7181827425956725  1.0000
  Os  Os1       1.0  0.5432794690132141  0.18887796998023987  0.9927804470062256  1.0000
  Os  Os2       1.0  0.05143607407808304  0.9164828062057495  0.4657645523548126  1.0000
  Zn  Zn1       1.0  0.5009382963180542  0.3107261061668396  0.6643998026847839  1.0000
