data_image0
_chemical_formula_structural       As5Ge2OsSb
_chemical_formula_sum              "As5 Ge2 Os1 Sb1"
_cell_length_a       5.174985827091466
_cell_length_b       5.2481205745130755
_cell_length_c       7.875511169433594
_cell_angle_alpha    88.66883744934489
_cell_angle_beta     89.07219532334686
_cell_angle_gamma    114.86456444388064

_space_group_name_H-M_alt    "P 1"
_space_group_IT_number       1

loop_
  _space_group_symop_operation_xyz
  'x, y, z'

loop_
  _atom_site_type_symbol
  _atom_site_label
  _atom_site_symmetry_multiplicity
  _atom_site_fract_x
  _atom_site_fract_y
  _atom_site_fract_z
  _atom_site_occupancy
  As  As1       1.0  0.015514140017330647  0.5904210209846497  0.6901251673698424  1.0000
  As  As2       1.0  0.8689842224121094  0.6391153335571289  0.44298422336578364  1.0000
  As  As3       1.0  0.36349019408226013  0.5260442495346069  0.8963664770126342  1.0000
  As  As4       1.0  0.3585647642612457  0.6253644227981567  0.3461736142635345  1.0000
  As  As5       1.0  0.3524607121944427  0.9082502126693724  0.7441895604133605  1.0000
  Ge  Ge1       1.0  0.3040728271007538  0.33772245049476624  0.17211800813674924  1.0000
  Ge  Ge2       1.0  0.8566614985466003  0.6355113387107849  0.8332144618034362  1.0000
  Os  Os1       1.0  0.363415390253067  0.20290125906467438  0.627477467060089  1.0000
  Sb  Sb1       1.0  0.7122035026550293  0.7753638029098511  0.9066793918609618  1.0000
