data_image0
_chemical_formula_structural       As4Ge2IV2
_chemical_formula_sum              "As4 Ge2 I1 V2"
_cell_length_a       4.717546756305087
_cell_length_b       5.643615304695501
_cell_length_c       9.016210556030273
_cell_angle_alpha    89.64658588179547
_cell_angle_beta     89.57543665056114
_cell_angle_gamma    108.90015082751175

_space_group_name_H-M_alt    "P 1"
_space_group_IT_number       1

loop_
  _space_group_symop_operation_xyz
  'x, y, z'

loop_
  _atom_site_type_symbol
  _atom_site_label
  _atom_site_symmetry_multiplicity
  _atom_site_fract_x
  _atom_site_fract_y
  _atom_site_fract_z
  _atom_site_occupancy
  As  As1       1.0  0.4047541320323944  0.4651716947555542  0.12089671939611435  1.0000
  As  As2       1.0  0.4097464680671692  0.6267735958099365  0.31541165709495544  1.0000
  As  As3       1.0  0.24303151667118073  0.23484180867671967  0.21242962777614594  1.0000
  As  As4       1.0  0.9151625037193298  0.652247428894043  0.1778337061405182  1.0000
  Ge  Ge1       1.0  0.8704190254211426  0.20760409533977509  0.6720799207687378  1.0000
  Ge  Ge2       1.0  0.8802372813224792  0.12266210466623306  0.025532806292176247  1.0000
  I   I1        1.0  0.38213348388671875  0.3784164488315582  0.1748352199792862  1.0000
  V   V1        1.0  0.41063305735588074  0.05979534238576889  0.2986658215522766  1.0000
  V   V2        1.0  0.8971646428108215  0.7869487404823303  0.8773803710937501  1.0000
