data_image0
_chemical_formula_structural       As4Ge3O2
_chemical_formula_sum              "As4 Ge3 O2"
_cell_length_a       5.384313878105306
_cell_length_b       6.600378098227416
_cell_length_c       8.828964233398438
_cell_angle_alpha    78.77518701558175
_cell_angle_beta     72.72398937654361
_cell_angle_gamma    74.44543179792139

_space_group_name_H-M_alt    "P 1"
_space_group_IT_number       1

loop_
  _space_group_symop_operation_xyz
  'x, y, z'

loop_
  _atom_site_type_symbol
  _atom_site_label
  _atom_site_symmetry_multiplicity
  _atom_site_fract_x
  _atom_site_fract_y
  _atom_site_fract_z
  _atom_site_occupancy
  As  As1       1.0  0.9394158720970154  0.5231375694274902  0.6995136737823486  1.0000
  As  As2       1.0  0.457122802734375  0.30096182227134705  0.7574269771575928  1.0000
  As  As3       1.0  0.9369551539421082  0.020707042887806892  0.5283167362213135  1.0000
  As  As4       1.0  0.458131343126297  0.898781955242157  0.17845033109188083  1.0000
  Ge  Ge1       1.0  0.446847140789032  0.08628974109888077  0.5652750134468079  1.0000
  Ge  Ge2       1.0  0.4179685413837433  0.17181716859340668  0.3303140699863434  1.0000
  Ge  Ge3       1.0  0.9512167572975159  0.3182547986507416  0.988597571849823  1.0000
  O   O1        1.0  0.9216192364692688  0.6907074451446533  0.8326979875564575  1.0000
  O   O2        1.0  0.9370907545089722  0.8234637975692749  0.9371829032897949  1.0000
