data_image0
_chemical_formula_structural       AlI2LiTbZnZr
_chemical_formula_sum              "Al1 I2 Li1 Tb1 Zn1 Zr1"
_cell_length_a       4.919712440398829
_cell_length_b       5.098228124429498
_cell_length_c       8.019721984863281
_cell_angle_alpha    117.41005446359766
_cell_angle_beta     91.44076067105932
_cell_angle_gamma    90.42799992498816

_space_group_name_H-M_alt    "P 1"
_space_group_IT_number       1

loop_
  _space_group_symop_operation_xyz
  'x, y, z'

loop_
  _atom_site_type_symbol
  _atom_site_label
  _atom_site_symmetry_multiplicity
  _atom_site_fract_x
  _atom_site_fract_y
  _atom_site_fract_z
  _atom_site_occupancy
  Al  Al1       1.0  0.819342851638794  0.6726188659667969  0.5456588864326477  1.0000
  I   I1        1.0  0.3151146173477173  0.2911427319049835  0.04388555139303209  1.0000
  I   I2        1.0  0.8146862387657166  0.5391365885734558  0.06098186597228053  1.0000
  Li  Li1       1.0  0.30128681659698486  0.46116185188293457  0.8798114061355591  1.0000
  Tb  Tb1       1.0  0.3065527379512787  0.39983999729156494  0.9018752574920654  1.0000
  Zn  Zn1       1.0  0.8111345171928406  0.29622769355773926  0.6062881350517274  1.0000
  Zr  Zr1       1.0  0.8190303444862366  0.028642285615205765  0.653705358505249  1.0000
