data_image0
_chemical_formula_structural       Br2CoDyIPt2
_chemical_formula_sum              "Br2 Co1 Dy1 I1 Pt2"
_cell_length_a       5.959349779624843
_cell_length_b       5.859626806605224
_cell_length_c       7.237521171569824
_cell_angle_alpha    102.99138276059459
_cell_angle_beta     94.85698412790094
_cell_angle_gamma    87.67792368938069

_space_group_name_H-M_alt    "P 1"
_space_group_IT_number       1

loop_
  _space_group_symop_operation_xyz
  'x, y, z'

loop_
  _atom_site_type_symbol
  _atom_site_label
  _atom_site_symmetry_multiplicity
  _atom_site_fract_x
  _atom_site_fract_y
  _atom_site_fract_z
  _atom_site_occupancy
  Br  Br1       1.0  0.13740438222885132  0.873123049736023  0.813357949256897  1.0000
  Br  Br2       1.0  0.13537345826625824  0.08427368104457855  0.02517874911427498  1.0000
  Co  Co1       1.0  0.6393595337867737  0.9161855578422546  0.3225444555282593  1.0000
  Dy  Dy1       1.0  0.6374591588973999  0.12451836466789246  0.718964159488678  1.0000
  I   I1        1.0  0.6369237899780273  0.6842275261878967  0.836203396320343  1.0000
  Pt  Pt1       1.0  0.6395429372787476  0.24857056140899658  0.9006736278533936  1.0000
  Pt  Pt2       1.0  0.13571061193943024  0.5764757394790649  0.7695392966270447  1.0000
