data_image0
_chemical_formula_structural       BrDyITbZr3
_chemical_formula_sum              "Br1 Dy1 I1 Tb1 Zr3"
_cell_length_a       5.707980585608954
_cell_length_b       5.818916405060674
_cell_length_c       7.08594274520874
_cell_angle_alpha    87.99684201636165
_cell_angle_beta     73.17122874137999
_cell_angle_gamma    72.70816514742619

_space_group_name_H-M_alt    "P 1"
_space_group_IT_number       1

loop_
  _space_group_symop_operation_xyz
  'x, y, z'

loop_
  _atom_site_type_symbol
  _atom_site_label
  _atom_site_symmetry_multiplicity
  _atom_site_fract_x
  _atom_site_fract_y
  _atom_site_fract_z
  _atom_site_occupancy
  Br  Br1       1.0  0.40628519654273987  0.6792892217636108  0.09283658117055893  1.0000
  Dy  Dy1       1.0  0.40891286730766296  0.9830257892608643  0.5877243280410767  1.0000
  I   I1        1.0  0.9104251265525818  0.2816852331161499  0.20580071210861206  1.0000
  Tb  Tb1       1.0  0.20247682929039001  0.44319477677345276  0.6610903143882751  1.0000
  Zr  Zr1       1.0  0.8980181813240051  0.4484747350215912  0.13279907405376432  1.0000
  Zr  Zr2       1.0  0.4091719388961792  0.48288655281066895  0.3680594861507416  1.0000
  Zr  Zr3       1.0  0.8984379172325134  0.8366864323616028  0.2780555486679077  1.0000
