data_image0
_chemical_formula_structural       AlGa2Pd4
_chemical_formula_sum              "Al1 Ga2 Pd4"
_cell_length_a       4.382090853286802
_cell_length_b       5.281950952784145
_cell_length_c       5.526987075805664
_cell_angle_alpha    99.16383528290358
_cell_angle_beta     94.53563132089549
_cell_angle_gamma    88.59012701414649

_space_group_name_H-M_alt    "P 1"
_space_group_IT_number       1

loop_
  _space_group_symop_operation_xyz
  'x, y, z'

loop_
  _atom_site_type_symbol
  _atom_site_label
  _atom_site_symmetry_multiplicity
  _atom_site_fract_x
  _atom_site_fract_y
  _atom_site_fract_z
  _atom_site_occupancy
  Al  Al1       1.0  0.4706320762634278  0.6770752668380737  0.4317547082901001  1.0000
  Ga  Ga1       1.0  0.2933843433856964  0.2664389908313751  0.9226377606391907  1.0000
  Ga  Ga2       1.0  0.9629222750663758  0.946861207485199  0.9693552255630493  1.0000
  Pd  Pd1       1.0  0.759881317615509  0.1941620260477066  0.7326031923294067  1.0000
  Pd  Pd2       1.0  0.4733668267726899  0.33392268419265747  0.41915929317474365  1.0000
  Pd  Pd3       1.0  0.24344247579574588  0.681379497051239  0.7176790833473206  1.0000
  Pd  Pd4       1.0  0.48637923598289495  0.8203704953193665  0.08820530027151108  1.0000
