data_image0
_chemical_formula_structural       Ga2Pd5
_chemical_formula_sum              "Ga2 Pd5"
_cell_length_a       4.488656772359907
_cell_length_b       4.892003760006553
_cell_length_c       5.266477108001709
_cell_angle_alpha    94.57366450436363
_cell_angle_beta     94.9413941769509
_cell_angle_gamma    88.07184256288613

_space_group_name_H-M_alt    "P 1"
_space_group_IT_number       1

loop_
  _space_group_symop_operation_xyz
  'x, y, z'

loop_
  _atom_site_type_symbol
  _atom_site_label
  _atom_site_symmetry_multiplicity
  _atom_site_fract_x
  _atom_site_fract_y
  _atom_site_fract_z
  _atom_site_occupancy
  Ga  Ga1       1.0  0.6243143081665039  0.33535799384117126  0.16520611941814423  1.0000
  Ga  Ga2       1.0  0.12954524159431458  0.7778559923171997  0.4126865565776825  1.0000
  Pd  Pd1       1.0  0.6213927865028381  0.972287654876709  0.43406563997268677  1.0000
  Pd  Pd2       1.0  0.15709760785102844  0.778264582157135  0.08956262469291687  1.0000
  Pd  Pd3       1.0  0.6739400625228882  0.7353957891464233  0.635253369808197  1.0000
  Pd  Pd4       1.0  0.14502094686031342  0.428325891494751  0.21990345418453217  1.0000
  Pd  Pd5       1.0  0.13590377569198608  0.4160453975200653  0.6651475429534912  1.0000
