data_image0
_chemical_formula_structural       BGa3P2Pd
_chemical_formula_sum              "B1 Ga3 P2 Pd1"
_cell_length_a       4.305218304602752
_cell_length_b       4.891787763426322
_cell_length_c       6.196146011352539
_cell_angle_alpha    105.41098779235841
_cell_angle_beta     104.89019851484555
_cell_angle_gamma    91.45563083063368

_space_group_name_H-M_alt    "P 1"
_space_group_IT_number       1

loop_
  _space_group_symop_operation_xyz
  'x, y, z'

loop_
  _atom_site_type_symbol
  _atom_site_label
  _atom_site_symmetry_multiplicity
  _atom_site_fract_x
  _atom_site_fract_y
  _atom_site_fract_z
  _atom_site_occupancy
  B   B1        1.0  0.048881273716688156  0.2592921257019043  0.8043809533119202  1.0000
  Ga  Ga1       1.0  0.9458533525466919  0.07424207031726837  0.936486005783081  1.0000
  Ga  Ga2       1.0  0.47221413254737854  0.11279677599668503  0.7954665422439575  1.0000
  Ga  Ga3       1.0  0.25320884585380554  0.7568168640136719  0.2930119037628174  1.0000
  P   P1        1.0  0.6899812817573547  0.4713617265224457  0.43686825037002563  1.0000
  P   P2        1.0  0.6645455956459045  0.3827604353427887  0.29706743359565735  1.0000
  Pd  Pd1       1.0  0.754403293132782  0.7622398138046265  0.29108843207359314  1.0000
