data_image0
_chemical_formula_structural       AuBiHHgLa2PrSTe
_chemical_formula_sum              "Au1 Bi1 H1 Hg1 La2 Pr1 S1 Te1"
_cell_length_a       6.321538849292855
_cell_length_b       6.334276658540545
_cell_length_c       6.347354888916016
_cell_angle_alpha    99.5444496865107
_cell_angle_beta     99.31619468506274
_cell_angle_gamma    98.97014204854173

_space_group_name_H-M_alt    "P 1"
_space_group_IT_number       1

loop_
  _space_group_symop_operation_xyz
  'x, y, z'

loop_
  _atom_site_type_symbol
  _atom_site_label
  _atom_site_symmetry_multiplicity
  _atom_site_fract_x
  _atom_site_fract_y
  _atom_site_fract_z
  _atom_site_occupancy
  Au  Au1       1.0  0.5768497586250305  0.7831977605819702  0.7336434125900269  1.0000
  Bi  Bi1       1.0  0.9927715063095093  0.7092201709747314  0.9359637498855591  1.0000
  H   H1        1.0  0.34629130363464355  0.949290931224823  0.588374674320221  1.0000
  Hg  Hg1       1.0  0.8610801696777344  0.24107220768928528  0.9955151677131653  1.0000
  La  La1       1.0  0.9764454960823059  0.6436684727668762  0.4379321336746216  1.0000
  La  La2       1.0  0.4463840126991272  0.9552813172340393  0.21750706434249875  1.0000
  Pr  Pr1       1.0  0.3700768053531647  0.32728007435798645  0.7562277317047119  1.0000
  S   S1        1.0  0.45684540271759033  0.4598950445652008  0.23959732055664062  1.0000
  Te  Te1       1.0  0.8953750729560852  0.14416466653347015  0.4817533791065216  1.0000
