data_image0
_chemical_formula_structural       Au5La2Ru2
_chemical_formula_sum              "Au5 La2 Ru2"
_cell_length_a       4.333374501709537
_cell_length_b       6.753673529483806
_cell_length_c       6.764700412750244
_cell_angle_alpha    89.99412213821056
_cell_angle_beta     90.0014744570878
_cell_angle_gamma    89.89479767238876

_space_group_name_H-M_alt    "P 1"
_space_group_IT_number       1

loop_
  _space_group_symop_operation_xyz
  'x, y, z'

loop_
  _atom_site_type_symbol
  _atom_site_label
  _atom_site_symmetry_multiplicity
  _atom_site_fract_x
  _atom_site_fract_y
  _atom_site_fract_z
  _atom_site_occupancy
  Au  Au1       1.0  0.11586266756057739  0.5494419932365417  0.8241939544677734  1.0000
  Au  Au2       1.0  0.6195811033248901  0.34692513942718506  0.5095617175102234  1.0000
  Au  Au3       1.0  0.11511069536209106  0.050580497831106186  0.3227719366550446  1.0000
  Au  Au4       1.0  0.11727363616228104  0.9411688446998596  0.9238966107368469  1.0000
  Au  Au5       1.0  0.6205824017524719  0.7525634169578552  0.1124926209449768  1.0000
  La  La1       1.0  0.6166438460350037  0.2844828963279724  0.03700682893395424  1.0000
  La  La2       1.0  0.6151458024978638  0.8186797499656677  0.5814874768257142  1.0000
  Ru  Ru1       1.0  0.11876613646745682  0.5461748242378235  0.3260665237903595  1.0000
  Ru  Ru2       1.0  0.11971522122621536  0.21081380546092987  0.6737276315689088  1.0000
