data_image0
_chemical_formula_structural       Au4La3Ru2
_chemical_formula_sum              "Au4 La3 Ru2"
_cell_length_a       5.292256640059712
_cell_length_b       6.763836543610651
_cell_length_c       6.819001197814941
_cell_angle_alpha    80.53356913199872
_cell_angle_beta     67.15080266941769
_cell_angle_gamma    67.12358318613022

_space_group_name_H-M_alt    "P 1"
_space_group_IT_number       1

loop_
  _space_group_symop_operation_xyz
  'x, y, z'

loop_
  _atom_site_type_symbol
  _atom_site_label
  _atom_site_symmetry_multiplicity
  _atom_site_fract_x
  _atom_site_fract_y
  _atom_site_fract_z
  _atom_site_occupancy
  Au  Au1       1.0  0.5155499577522278  0.4238460063934326  0.7731441259384155  1.0000
  Au  Au2       1.0  0.8402941226959229  0.02845579758286476  0.5200791358947754  1.0000
  Au  Au3       1.0  0.17629684507846832  0.7446509003639221  0.08966005593538284  1.0000
  Au  Au4       1.0  0.01943785324692726  0.5864181518554688  0.5822649598121644  1.0000
  La  La1       1.0  0.6773220300674438  0.570399284362793  0.2979169487953186  1.0000
  La  La2       1.0  0.38802751898765564  0.1892968714237213  0.26809433102607727  1.0000
  La  La3       1.0  0.06991499662399292  0.1911126673221588  0.8794653415679932  1.0000
  Ru  Ru1       1.0  0.7369245886802673  0.8431283235549927  0.9164456129074097  1.0000
  Ru  Ru2       1.0  0.36965930461883545  0.8391112685203552  0.6590813398361205  1.0000
