data_image0
_chemical_formula_structural       BiCuFHgHoILa2P
_chemical_formula_sum              "Bi1 Cu1 F1 Hg1 Ho1 I1 La2 P1"
_cell_length_a       6.318906906468272
_cell_length_b       6.2939033108994025
_cell_length_c       6.271400451660156
_cell_angle_alpha    95.38795526751595
_cell_angle_beta     95.41700480371959
_cell_angle_gamma    94.63882516012544

_space_group_name_H-M_alt    "P 1"
_space_group_IT_number       1

loop_
  _space_group_symop_operation_xyz
  'x, y, z'

loop_
  _atom_site_type_symbol
  _atom_site_label
  _atom_site_symmetry_multiplicity
  _atom_site_fract_x
  _atom_site_fract_y
  _atom_site_fract_z
  _atom_site_occupancy
  Bi  Bi1       1.0  0.2274935394525528  0.37903016805648804  0.4478270411491394  1.0000
  Cu  Cu1       1.0  0.1989029496908188  0.19113589823246002  0.9901144504547119  1.0000
  F   F1        1.0  0.7191347479820251  0.5626239776611328  0.11961884796619415  1.0000
  Hg  Hg1       1.0  0.5934076309204102  0.12591727077960968  0.15767927467823029  1.0000
  Ho  Ho1       1.0  0.3662932217121124  0.6292087435722351  0.02503971010446548  1.0000
  I   I1        1.0  0.5447813272476196  0.8889338970184326  0.6183706521987915  1.0000
  La  La1       1.0  0.8024268746376038  0.3875741958618164  0.7517877221107483  1.0000
  La  La2       1.0  0.9981484413146973  0.8741900324821472  0.3479415476322174  1.0000
  P   P1        1.0  0.0449431911110878  0.8671208620071411  0.881633698940277  1.0000
