data_image0
_chemical_formula_structural       Cr4FeV3
_chemical_formula_sum              "Cr4 Fe1 V3"
_cell_length_a       5.061620132807738
_cell_length_b       5.047034992594135
_cell_length_c       5.0633015632629395
_cell_angle_alpha    119.51320064715324
_cell_angle_beta     118.96920797480816
_cell_angle_gamma    90.33621667957178

_space_group_name_H-M_alt    "P 1"
_space_group_IT_number       1

loop_
  _space_group_symop_operation_xyz
  'x, y, z'

loop_
  _atom_site_type_symbol
  _atom_site_label
  _atom_site_symmetry_multiplicity
  _atom_site_fract_x
  _atom_site_fract_y
  _atom_site_fract_z
  _atom_site_occupancy
  Cr  Cr1       1.0  0.44158124923706055  0.6424276232719421  0.336997926235199  1.0000
  Cr  Cr2       1.0  0.43956661224365234  0.14165239036083221  0.3372257947921753  1.0000
  Cr  Cr3       1.0  0.4373628497123718  0.1431257426738739  0.836749792098999  1.0000
  Cr  Cr4       1.0  0.4388665556907654  0.6419370174407959  0.8372212052345276  1.0000
  Fe  Fe1       1.0  0.9410426020622253  0.640113353729248  0.8396057486534119  1.0000
  V   V1        1.0  0.940994381904602  0.1425555944442749  0.8381592035293579  1.0000
  V   V2        1.0  0.938220202922821  0.6366442441940308  0.33667004108428955  1.0000
  V   V3        1.0  0.9439659714698792  0.14428232610225677  0.339596927165985  1.0000
