data_image0
_chemical_formula_structural       Cr2ErEuFeOTe2
_chemical_formula_sum              "Cr2 Er1 Eu1 Fe1 O1 Te2"
_cell_length_a       5.454618675921807
_cell_length_b       5.4597583785232295
_cell_length_c       7.242802619934082
_cell_angle_alpha    89.93736884359538
_cell_angle_beta     89.91208744451232
_cell_angle_gamma    120.06950046491743

_space_group_name_H-M_alt    "P 1"
_space_group_IT_number       1

loop_
  _space_group_symop_operation_xyz
  'x, y, z'

loop_
  _atom_site_type_symbol
  _atom_site_label
  _atom_site_symmetry_multiplicity
  _atom_site_fract_x
  _atom_site_fract_y
  _atom_site_fract_z
  _atom_site_occupancy
  Cr  Cr1       1.0  0.051092728972435  0.46678683161735535  0.4185850918292999  1.0000
  Cr  Cr2       1.0  0.047062113881111145  0.978276789188385  0.4184882342815399  1.0000
  Er  Er1       1.0  0.5384559035301208  0.9685205817222595  0.11032619327306747  1.0000
  Eu  Eu1       1.0  0.8682938814163208  0.6359066367149353  0.7896918058395386  1.0000
  Fe  Fe1       1.0  0.534589409828186  0.46627140045166016  0.41625475883483887  1.0000
  O   O1        1.0  0.8708793520927429  0.6421759128570557  0.18443094193935394  1.0000
  Te  Te1       1.0  0.209486186504364  0.30316758155822754  0.09309794008731842  1.0000
  Te  Te2       1.0  0.5374472737312317  0.9704295992851257  0.5391814112663269  1.0000
