data_image0
_chemical_formula_structural       Lu11
_chemical_formula_sum              "Lu11"
_cell_length_a       4.715547082877876
_cell_length_b       6.15119258805073
_cell_length_c       8.356026649475098
_cell_angle_alpha    92.07386234542322
_cell_angle_beta     88.00669305281876
_cell_angle_gamma    113.29965633175257

_space_group_name_H-M_alt    "P 1"
_space_group_IT_number       1

loop_
  _space_group_symop_operation_xyz
  'x, y, z'

loop_
  _atom_site_type_symbol
  _atom_site_label
  _atom_site_symmetry_multiplicity
  _atom_site_fract_x
  _atom_site_fract_y
  _atom_site_fract_z
  _atom_site_occupancy
  Lu  Lu1       1.0  0.792420506477356  0.45049962401390076  0.9720455408096313  1.0000
  Lu  Lu2       1.0  0.9078212380409241  0.9330999851226807  0.339546263217926  1.0000
  Lu  Lu3       1.0  0.14825375378131866  0.11580265313386917  0.735418438911438  1.0000
  Lu  Lu4       1.0  0.7349300384521484  0.2638433873653412  0.9955883026123047  1.0000
  Lu  Lu5       1.0  0.3777768611907959  0.9672434329986572  0.8610579967498779  1.0000
  Lu  Lu6       1.0  0.72648024559021  0.6166623830795288  0.11155851185321808  1.0000
  Lu  Lu7       1.0  0.39235061407089233  0.9369307160377502  0.13096441328525543  1.0000
  Lu  Lu8       1.0  0.6251358985900879  0.12174471467733383  0.5017105937004089  1.0000
  Lu  Lu9       1.0  0.36682406067848206  0.5902469158172607  0.8223508596420288  1.0000
  Lu  Lu10      1.0  0.01725805178284645  0.47836601734161377  0.47133877873420715  1.0000
  Lu  Lu11      1.0  0.25780782103538513  0.30636337399482727  0.012438977137207985  1.0000
