data_image0
_chemical_formula_structural       Lu11
_chemical_formula_sum              "Lu11"
_cell_length_a       4.171836293938653
_cell_length_b       5.830236035253984
_cell_length_c       8.856528282165527
_cell_angle_alpha    91.02354870186814
_cell_angle_beta     90.70154667952299
_cell_angle_gamma    90.5778146652985

_space_group_name_H-M_alt    "P 1"
_space_group_IT_number       1

loop_
  _space_group_symop_operation_xyz
  'x, y, z'

loop_
  _atom_site_type_symbol
  _atom_site_label
  _atom_site_symmetry_multiplicity
  _atom_site_fract_x
  _atom_site_fract_y
  _atom_site_fract_z
  _atom_site_occupancy
  Lu  Lu1       1.0  0.29575619101524353  0.45311880111694336  0.9775253534317018  1.0000
  Lu  Lu2       1.0  0.8107765913009644  0.7020894289016724  0.6559084057807922  1.0000
  Lu  Lu3       1.0  0.7994703650474548  0.9723575711250305  0.49369114637374883  1.0000
  Lu  Lu4       1.0  0.30119210481643677  0.4558788239955902  0.850050687789917  1.0000
  Lu  Lu5       1.0  0.3010929226875305  0.7155426740646362  0.18241485953330994  1.0000
  Lu  Lu6       1.0  0.8076037168502808  0.4768259525299072  0.16958953440189362  1.0000
  Lu  Lu7       1.0  0.8049757480621338  0.10986975580453873  0.3222109377384186  1.0000
  Lu  Lu8       1.0  0.29921284317970276  0.5823280811309814  0.08697777986526489  1.0000
  Lu  Lu9       1.0  0.802681565284729  0.98288893699646  0.8324198126792908  1.0000
  Lu  Lu10      1.0  0.3036309480667114  0.9848208427429199  0.4931620061397553  1.0000
  Lu  Lu11      1.0  0.8030752539634705  0.274067759513855  0.6785333752632141  1.0000
