data_image0
_chemical_formula_structural       CuGeLu9
_chemical_formula_sum              "Cu1 Ge1 Lu9"
_cell_length_a       4.695424244432418
_cell_length_b       5.608184280557501
_cell_length_c       7.330545902252197
_cell_angle_alpha    95.90264289344049
_cell_angle_beta     89.05111714452114
_cell_angle_gamma    117.41529556745166

_space_group_name_H-M_alt    "P 1"
_space_group_IT_number       1

loop_
  _space_group_symop_operation_xyz
  'x, y, z'

loop_
  _atom_site_type_symbol
  _atom_site_label
  _atom_site_symmetry_multiplicity
  _atom_site_fract_x
  _atom_site_fract_y
  _atom_site_fract_z
  _atom_site_occupancy
  Cu  Cu1       1.0  0.005455493927001953  0.004405539482831955  0.9113733172416687  1.0000
  Ge  Ge1       1.0  0.06434579193592072  0.7719728946685791  0.6507329344749451  1.0000
  Lu  Lu1       1.0  0.3823297917842865  0.2721298038959503  0.09099383652210236  1.0000
  Lu  Lu2       1.0  0.5442637801170349  0.968856692314148  0.05500946193933485  1.0000
  Lu  Lu3       1.0  0.6347427368164062  0.505577802658081  0.591056764125824  1.0000
  Lu  Lu4       1.0  0.36417922377586365  0.29281923174858093  0.40640616416931147  1.0000
  Lu  Lu5       1.0  0.33139824867248535  0.7560822367668152  0.9316254258155823  1.0000
  Lu  Lu6       1.0  0.5918774008750916  0.011899135075509548  0.335049569606781  1.0000
  Lu  Lu7       1.0  0.05141677334904671  0.9801650047302246  0.8496536612510681  1.0000
  Lu  Lu8       1.0  0.022992558777332306  0.48452869057655334  0.2562670409679413  1.0000
  Lu  Lu9       1.0  0.6065606474876404  0.5023206472396851  0.8930152058601379  1.0000
