data_image0
_chemical_formula_structural       Lu11
_chemical_formula_sum              "Lu11"
_cell_length_a       4.8166798277759675
_cell_length_b       5.716657329488515
_cell_length_c       8.46717357635498
_cell_angle_alpha    91.8793793181357
_cell_angle_beta     91.23374661497132
_cell_angle_gamma    115.81153421198042

_space_group_name_H-M_alt    "P 1"
_space_group_IT_number       1

loop_
  _space_group_symop_operation_xyz
  'x, y, z'

loop_
  _atom_site_type_symbol
  _atom_site_label
  _atom_site_symmetry_multiplicity
  _atom_site_fract_x
  _atom_site_fract_y
  _atom_site_fract_z
  _atom_site_occupancy
  Lu  Lu1       1.0  0.9974073171615601  0.8602365851402283  0.9035634398460388  1.0000
  Lu  Lu2       1.0  0.697117269039154  0.6702505350112915  0.6426578760147095  1.0000
  Lu  Lu3       1.0  0.4645446836948395  0.3692809045314789  0.9000230431556702  1.0000
  Lu  Lu4       1.0  0.46229779720306396  0.34093812108039856  0.4001002609729767  1.0000
  Lu  Lu5       1.0  0.24019886553287506  0.6704384684562683  0.13328304886817932  1.0000
  Lu  Lu6       1.0  0.991145133972168  0.3552238941192627  0.6714410185813904  1.0000
  Lu  Lu7       1.0  0.6198840141296387  0.9874218106269836  0.8798422813415527  1.0000
  Lu  Lu8       1.0  0.9709266424179077  0.34739580750465393  0.17868253588676453  1.0000
  Lu  Lu9       1.0  0.20356732606887817  0.3363109827041626  0.35787078738212585  1.0000
  Lu  Lu10      1.0  0.9715477824211121  0.8543293476104736  0.3797606825828552  1.0000
  Lu  Lu11      1.0  0.038260720670223236  0.8711839914321899  0.880836009979248  1.0000
