data_image0
_chemical_formula_structural       Lu11
_chemical_formula_sum              "Lu11"
_cell_length_a       4.847367206360659
_cell_length_b       5.932396073919025
_cell_length_c       7.614814758300781
_cell_angle_alpha    90.96257208189176
_cell_angle_beta     89.68072332403364
_cell_angle_gamma    116.79936865173424

_space_group_name_H-M_alt    "P 1"
_space_group_IT_number       1

loop_
  _space_group_symop_operation_xyz
  'x, y, z'

loop_
  _atom_site_type_symbol
  _atom_site_label
  _atom_site_symmetry_multiplicity
  _atom_site_fract_x
  _atom_site_fract_y
  _atom_site_fract_z
  _atom_site_occupancy
  Lu  Lu1       1.0  0.4655526578426361  0.9519945383071899  0.3086056113243103  1.0000
  Lu  Lu2       1.0  0.7010484933853149  0.8685850501060486  0.7448385953903198  1.0000
  Lu  Lu3       1.0  0.0009036608971655369  0.3680380880832672  0.6960176229476929  1.0000
  Lu  Lu4       1.0  0.6702949404716492  0.538398027420044  0.939767897129059  1.0000
  Lu  Lu5       1.0  0.5001419186592102  0.3709236979484558  0.28082481026649475  1.0000
  Lu  Lu6       1.0  0.2362188994884491  0.031730230897665024  0.7878822684288025  1.0000
  Lu  Lu7       1.0  0.6792229413986206  0.5497468113899231  0.4354411661624909  1.0000
  Lu  Lu8       1.0  0.06226511299610138  0.8736607432365417  0.28345587849617004  1.0000
  Lu  Lu9       1.0  0.10786101967096329  0.08827432245016098  0.7938834428787231  1.0000
  Lu  Lu10      1.0  0.45963311195373535  0.8670817613601685  0.43460252881050115  1.0000
  Lu  Lu11      1.0  0.43954136967658997  0.2754753828048706  0.4462352395057679  1.0000
