data_image0
_chemical_formula_structural       Cu2GeLu8
_chemical_formula_sum              "Cu2 Ge1 Lu8"
_cell_length_a       4.469581903317639
_cell_length_b       6.381123842614038
_cell_length_c       7.68947172164917
_cell_angle_alpha    114.12437597676505
_cell_angle_beta     93.4508292717967
_cell_angle_gamma    88.12760235878591

_space_group_name_H-M_alt    "P 1"
_space_group_IT_number       1

loop_
  _space_group_symop_operation_xyz
  'x, y, z'

loop_
  _atom_site_type_symbol
  _atom_site_label
  _atom_site_symmetry_multiplicity
  _atom_site_fract_x
  _atom_site_fract_y
  _atom_site_fract_z
  _atom_site_occupancy
  Cu  Cu1       1.0  0.15991297364234924  0.6532164216041565  0.48203256726264954  1.0000
  Cu  Cu2       1.0  0.15770737826824188  0.3963429033756256  0.7409679889678955  1.0000
  Ge  Ge1       1.0  0.8655655980110168  0.018825167790055275  0.012857130728662014  1.0000
  Lu  Lu1       1.0  0.914994478225708  0.11393545567989348  0.8596662878990173  1.0000
  Lu  Lu2       1.0  0.9035128951072693  0.9375061988830565  0.2037656605243683  1.0000
  Lu  Lu3       1.0  0.3985385298728943  0.3090977370738983  0.31215766072273254  1.0000
  Lu  Lu4       1.0  0.3974388539791107  0.9274601340293883  0.22932881116867065  1.0000
  Lu  Lu5       1.0  0.6529994606971741  0.6455971598625183  0.487677663564682  1.0000
  Lu  Lu6       1.0  0.6459278464317322  0.6429305076599121  0.535914421081543  1.0000
  Lu  Lu7       1.0  0.6459404230117798  0.6488659977912903  0.555387556552887  1.0000
  Lu  Lu8       1.0  0.9140771627426147  0.1484861969947815  0.5077347755432129  1.0000
