data_image0
_chemical_formula_structural       As2PPbU2VYbZnZr
_chemical_formula_sum              "As2 P1 Pb1 U2 V1 Yb1 Zn1 Zr1"
_cell_length_a       5.244976126135456
_cell_length_b       5.7387603099473345
_cell_length_c       6.335001468658447
_cell_angle_alpha    55.182682558990656
_cell_angle_beta     59.56998058944579
_cell_angle_gamma    58.128813227325374

_space_group_name_H-M_alt    "P 1"
_space_group_IT_number       1

loop_
  _space_group_symop_operation_xyz
  'x, y, z'

loop_
  _atom_site_type_symbol
  _atom_site_label
  _atom_site_symmetry_multiplicity
  _atom_site_fract_x
  _atom_site_fract_y
  _atom_site_fract_z
  _atom_site_occupancy
  As  As1       1.0  0.5457751154899597  0.054387181997299194  0.2665195167064667  1.0000
  As  As2       1.0  0.9653889536857605  0.8109230399131775  0.49774664640426636  1.0000
  P   P1        1.0  0.46218886971473694  0.11785577982664108  0.009765390306711197  1.0000
  Pb  Pb1       1.0  0.017109176144003868  0.9182009696960449  0.4161137938499451  1.0000
  U   U1        1.0  0.0606825016438961  0.47668346762657166  0.31225067377090454  1.0000
  U   U2        1.0  0.03978315740823746  0.40808671712875366  0.05439631640911102  1.0000
  V   V1        1.0  0.5325689911842346  0.40123093128204346  0.849966287612915  1.0000
  Yb  Yb1       1.0  0.5665387511253357  0.5056912899017334  0.2879449427127838  1.0000
  Zn  Zn1       1.0  0.2336903214454651  0.27140191197395325  0.6666181683540344  1.0000
  Zr  Zr1       1.0  0.7711341381072998  0.05536498874425888  0.6594817638397217  1.0000
