data_image0
_chemical_formula_structural       U8Zr2
_chemical_formula_sum              "U8 Zr2"
_cell_length_a       4.992062106628283
_cell_length_b       5.371964152399264
_cell_length_c       5.735957622528076
_cell_angle_alpha    91.60980358838209
_cell_angle_beta     90.65736179695064
_cell_angle_gamma    90.38754404291595

_space_group_name_H-M_alt    "P 1"
_space_group_IT_number       1

loop_
  _space_group_symop_operation_xyz
  'x, y, z'

loop_
  _atom_site_type_symbol
  _atom_site_label
  _atom_site_symmetry_multiplicity
  _atom_site_fract_x
  _atom_site_fract_y
  _atom_site_fract_z
  _atom_site_occupancy
  U   U1        1.0  0.7895650267601013  0.1797754317522049  0.2111736238002777  1.0000
  U   U2        1.0  0.06941958516836166  0.5606192946434021  0.5682551264762878  1.0000
  U   U3        1.0  0.5744560360908508  0.695726752281189  0.23143334686756134  1.0000
  U   U4        1.0  0.07945293933153152  0.3516131043434143  0.8649775385856628  1.0000
  U   U5        1.0  0.5645864605903625  0.8322300314903259  0.32779350876808167  1.0000
  U   U6        1.0  0.07802318036556244  0.877665638923645  0.6141549944877625  1.0000
  U   U7        1.0  0.059935830533504486  0.15005767345428467  0.09569359570741653  1.0000
  U   U8        1.0  0.5813133120536804  0.7997794151306152  0.49298834800720215  1.0000
  Zr  Zr1       1.0  0.07531692832708359  0.35980844497680664  0.9263318181037903  1.0000
  Zr  Zr2       1.0  0.843570351600647  0.7009867429733276  0.008310063742101192  1.0000
