data_image0
_chemical_formula_structural       PU9
_chemical_formula_sum              "P1 U9"
_cell_length_a       5.474996334973565
_cell_length_b       6.1188851922016205
_cell_length_c       7.570133209228516
_cell_angle_alpha    90.98648039703343
_cell_angle_beta     89.37071528342747
_cell_angle_gamma    87.79192032725938

_space_group_name_H-M_alt    "P 1"
_space_group_IT_number       1

loop_
  _space_group_symop_operation_xyz
  'x, y, z'

loop_
  _atom_site_type_symbol
  _atom_site_label
  _atom_site_symmetry_multiplicity
  _atom_site_fract_x
  _atom_site_fract_y
  _atom_site_fract_z
  _atom_site_occupancy
  P   P1        1.0  0.6087211966514587  0.8769627213478088  0.029185423627495766  1.0000
  U   U1        1.0  0.7035369277000427  0.3884602189064026  0.3575289845466614  1.0000
  U   U2        1.0  0.7100265622138977  0.9982592463493347  0.8906978368759155  1.0000
  U   U3        1.0  0.7054996490478516  0.5755099654197693  0.0425545796751976  1.0000
  U   U4        1.0  0.7095242142677307  0.6112527847290039  0.7853620648384094  1.0000
  U   U5        1.0  0.21295735239982602  0.8356238007545471  0.39492955803871155  1.0000
  U   U6        1.0  0.6980047225952148  0.9554159641265869  0.5382025241851807  1.0000
  U   U7        1.0  0.2102684527635574  0.2510509192943573  0.35148733854293823  1.0000
  U   U8        1.0  0.21216535568237302  0.24754835665225983  0.7956512570381165  1.0000
  U   U9        1.0  0.2116706073284149  0.5321057438850403  0.7010969519615173  1.0000
