data_image0
_chemical_formula_structural       Cr4RuSU3Zr
_chemical_formula_sum              "Cr4 Ru1 S1 U3 Zr1"
_cell_length_a       4.979496878045115
_cell_length_b       5.4448023015606175
_cell_length_c       6.1893415451049805
_cell_angle_alpha    117.1405876125275
_cell_angle_beta     112.07176135317361
_cell_angle_gamma    90.00081294497853

_space_group_name_H-M_alt    "P 1"
_space_group_IT_number       1

loop_
  _space_group_symop_operation_xyz
  'x, y, z'

loop_
  _atom_site_type_symbol
  _atom_site_label
  _atom_site_symmetry_multiplicity
  _atom_site_fract_x
  _atom_site_fract_y
  _atom_site_fract_z
  _atom_site_occupancy
  Cr  Cr1       1.0  0.6554572582244873  0.24758496880531308  0.9585744738578796  1.0000
  Cr  Cr2       1.0  0.6745036840438843  0.3315955698490143  0.7769465446472168  1.0000
  Cr  Cr3       1.0  0.1471240371465683  0.36998045444488525  0.9655630588531494  1.0000
  Cr  Cr4       1.0  0.6264455318450928  0.34263667464256287  0.39722511172294617  1.0000
  Ru  Ru1       1.0  0.7355820536613464  0.2574566602706909  0.21519410610198975  1.0000
  S   S1        1.0  0.3309239447116852  0.2639555037021637  0.9985025525093079  1.0000
  U   U1        1.0  0.12346208840608597  0.1232803165912628  0.25558120012283325  1.0000
  U   U2        1.0  0.8344876766204834  0.9281589984893799  0.9643284678459167  1.0000
  U   U3        1.0  0.1774141490459442  0.785261332988739  0.7087730765342712  1.0000
  Zr  Zr1       1.0  0.7089890837669373  0.29337364435195923  0.3291473090648651  1.0000
