data_image0
_chemical_formula_structural       U10
_chemical_formula_sum              "U10"
_cell_length_a       5.203643659357793
_cell_length_b       5.105388708549409
_cell_length_c       5.519583225250244
_cell_angle_alpha    75.07470439141285
_cell_angle_beta     77.20386829055309
_cell_angle_gamma    78.80036590874724

_space_group_name_H-M_alt    "P 1"
_space_group_IT_number       1

loop_
  _space_group_symop_operation_xyz
  'x, y, z'

loop_
  _atom_site_type_symbol
  _atom_site_label
  _atom_site_symmetry_multiplicity
  _atom_site_fract_x
  _atom_site_fract_y
  _atom_site_fract_z
  _atom_site_occupancy
  U   U1        1.0  0.04987090080976486  0.5269920229911804  0.4945029616355896  1.0000
  U   U2        1.0  0.36306455731391907  0.09400326013565063  0.6955540776252747  1.0000
  U   U3        1.0  0.9329267740249634  0.13744224607944489  0.42666706442832947  1.0000
  U   U4        1.0  0.4393918216228485  0.9129171371459961  0.5221785306930542  1.0000
  U   U5        1.0  0.90268474817276  0.21507495641708374  0.4279848039150238  1.0000
  U   U6        1.0  0.7799555063247681  0.6601561903953552  0.0935877114534378  1.0000
  U   U7        1.0  0.4514930546283722  0.12631773948669434  0.08041299879550934  1.0000
  U   U8        1.0  0.3878992795944214  0.23232460021972656  0.7163653373718262  1.0000
  U   U9        1.0  0.4013673663139343  0.9319722652435303  0.492723673582077  1.0000
  U   U10       1.0  0.8396474719047546  0.33657968044281006  0.6637528538703918  1.0000
