data_image0
_chemical_formula_structural       Cr4FeS2TlU2
_chemical_formula_sum              "Cr4 Fe1 S2 Tl1 U2"
_cell_length_a       5.101864175069801
_cell_length_b       4.932099278130891
_cell_length_c       5.274152755737305
_cell_angle_alpha    119.6055557025059
_cell_angle_beta     115.51942434283713
_cell_angle_gamma    118.36660751465085

_space_group_name_H-M_alt    "P 1"
_space_group_IT_number       1

loop_
  _space_group_symop_operation_xyz
  'x, y, z'

loop_
  _atom_site_type_symbol
  _atom_site_label
  _atom_site_symmetry_multiplicity
  _atom_site_fract_x
  _atom_site_fract_y
  _atom_site_fract_z
  _atom_site_occupancy
  Cr  Cr1       1.0  0.3067563474178314  0.9438692927360535  0.6444603204727172  1.0000
  Cr  Cr2       1.0  0.7167513966560364  0.6268194913864136  0.698544442653656  1.0000
  Cr  Cr3       1.0  0.3724536895751952  0.9833427667617797  0.5721009373664855  1.0000
  Cr  Cr4       1.0  0.28786367177963257  0.14125217497348785  0.025142515078186985  1.0000
  Fe  Fe1       1.0  0.16085588932037334  0.9176985621452329  0.9762963652610778  1.0000
  S   S1        1.0  0.2879211008548737  0.027585761621594467  0.45618823170661926  1.0000
  S   S2        1.0  0.9351912140846252  0.9898805618286133  0.6843214035034179  1.0000
  Tl  Tl1       1.0  0.44859132170677185  0.0064031435176730486  0.5350099205970764  1.0000
  U   U1        1.0  0.9359971284866333  0.5828866362571716  0.4114204049110412  1.0000
  U   U2        1.0  0.7723567485809328  0.5525727868080141  0.8593566417694093  1.0000
