data_image0
_chemical_formula_structural       I2P2PrPt5
_chemical_formula_sum              "I2 P2 Pr1 Pt5"
_cell_length_a       7.19835677510289
_cell_length_b       7.59627306730862
_cell_length_c       7.928630828857422
_cell_angle_alpha    111.62389557029714
_cell_angle_beta     93.50628194740763
_cell_angle_gamma    93.04213700920033

_space_group_name_H-M_alt    "P 1"
_space_group_IT_number       1

loop_
  _space_group_symop_operation_xyz
  'x, y, z'

loop_
  _atom_site_type_symbol
  _atom_site_label
  _atom_site_symmetry_multiplicity
  _atom_site_fract_x
  _atom_site_fract_y
  _atom_site_fract_z
  _atom_site_occupancy
  I   I1        1.0  0.29104146361351013  0.47519260644912725  0.7645654082298279  1.0000
  I   I2        1.0  0.26727333664894104  0.7543062567710878  0.9097368717193605  1.0000
  P   P1        1.0  0.7975233793258667  0.4314455687999726  0.39564743638038635  1.0000
  P   P2        1.0  0.29954397678375244  0.14389626681804657  0.2598450183868408  1.0000
  Pr  Pr1       1.0  0.7789071202278137  0.7358769774436952  0.3562335968017578  1.0000
  Pt  Pt1       1.0  0.7935844659805298  0.14051444828510284  0.7957009077072144  1.0000
  Pt  Pt2       1.0  0.7812299728393555  0.1755349934101105  0.5390365719795227  1.0000
  Pt  Pt3       1.0  0.05122721195220947  0.27473586797714233  0.7940211296081543  1.0000
  Pt  Pt4       1.0  0.013822866603732116  0.4959025382995606  0.7760311961174011  1.0000
  Pt  Pt5       1.0  0.29047706723213196  0.3500912487506867  0.6725326180458069  1.0000
