data_image0
_chemical_formula_structural       GaIKPPbPt4U
_chemical_formula_sum              "Ga1 I1 K1 P1 Pb1 Pt4 U1"
_cell_length_a       5.483028672105526
_cell_length_b       5.55698718131301
_cell_length_c       7.484654426574707
_cell_angle_alpha    95.18299693229339
_cell_angle_beta     97.88469691850834
_cell_angle_gamma    112.16506020409983

_space_group_name_H-M_alt    "P 1"
_space_group_IT_number       1

loop_
  _space_group_symop_operation_xyz
  'x, y, z'

loop_
  _atom_site_type_symbol
  _atom_site_label
  _atom_site_symmetry_multiplicity
  _atom_site_fract_x
  _atom_site_fract_y
  _atom_site_fract_z
  _atom_site_occupancy
  Ga  Ga1       1.0  0.5709711909294128  0.9470983147621155  0.18543909490108493  1.0000
  I   I1        1.0  0.04841037839651108  0.031196841970086098  0.5382818579673767  1.0000
  K   K1        1.0  0.7896717190742493  0.1807274967432022  0.9655972123146057  1.0000
  P   P1        1.0  0.8191094994544983  0.6006426215171814  0.9505024552345276  1.0000
  Pb  Pb1       1.0  0.07975384593009949  0.24082690477371216  0.6849902272224426  1.0000
  Pt  Pt1       1.0  0.7791990637779236  0.7429778575897217  0.14052273333072665  1.0000
  Pt  Pt2       1.0  0.30360737442970276  0.08542299270629883  0.5017741322517395  1.0000
  Pt  Pt3       1.0  0.585206925868988  0.8070001602172852  0.7561027407646179  1.0000
  Pt  Pt4       1.0  0.11193528026342392  0.8319289684295654  0.1907627582550049  1.0000
  U   U1        1.0  0.3030233383178711  0.7962689399719238  0.37329477071762085  1.0000
