data_image0
_chemical_formula_structural       Pt7Te3
_chemical_formula_sum              "Pt7 Te3"
_cell_length_a       11.522940447896994
_cell_length_b       10.755941084404348
_cell_length_c       14.094914436340332
_cell_angle_alpha    104.45573056729994
_cell_angle_beta     104.80823001961775
_cell_angle_gamma    117.90553954181789

_space_group_name_H-M_alt    "P 1"
_space_group_IT_number       1

loop_
  _space_group_symop_operation_xyz
  'x, y, z'

loop_
  _atom_site_type_symbol
  _atom_site_label
  _atom_site_symmetry_multiplicity
  _atom_site_fract_x
  _atom_site_fract_y
  _atom_site_fract_z
  _atom_site_occupancy
  Pt  Pt1       1.0  0.9762569665908813  0.6728819012641907  0.9212504625320435  1.0000
  Pt  Pt2       1.0  0.6647360324859619  0.3924965560436249  0.6357821226119995  1.0000
  Pt  Pt3       1.0  0.008540686219930649  0.5932338237762451  0.292850524187088  1.0000
  Pt  Pt4       1.0  0.6068304777145386  0.7974010109901428  0.12477090209722519  1.0000
  Pt  Pt5       1.0  0.8873733282089233  0.8953273892402649  0.3731197118759155  1.0000
  Pt  Pt6       1.0  0.41799822449684143  0.5190290808677673  0.9775888919830322  1.0000
  Pt  Pt7       1.0  0.042905308306217194  0.17458179593086243  0.1747218817472458  1.0000
  Te  Te1       1.0  0.42077091336250305  0.3748936057090759  0.19791507720947266  1.0000
  Te  Te2       1.0  0.9299706220626831  0.5507710576057434  0.14935609698295593  1.0000
  Te  Te3       1.0  0.9299060106277466  0.12377488613128662  0.6597888469696045  1.0000
