data_image0
_chemical_formula_structural       Ga2HKPt6
_chemical_formula_sum              "Ga2 H1 K1 Pt6"
_cell_length_a       5.453874859552921
_cell_length_b       5.411967837182564
_cell_length_c       7.259760856628418
_cell_angle_alpha    99.2769192771486
_cell_angle_beta     90.97869533135652
_cell_angle_gamma    119.4249924742293

_space_group_name_H-M_alt    "P 1"
_space_group_IT_number       1

loop_
  _space_group_symop_operation_xyz
  'x, y, z'

loop_
  _atom_site_type_symbol
  _atom_site_label
  _atom_site_symmetry_multiplicity
  _atom_site_fract_x
  _atom_site_fract_y
  _atom_site_fract_z
  _atom_site_occupancy
  Ga  Ga1       1.0  0.11251574754714966  0.6371327638626099  0.47631341218948364  1.0000
  Ga  Ga2       1.0  0.05634872987866402  0.46782568097114563  0.2739289700984955  1.0000
  H   H1        1.0  0.594913125038147  0.8285592794418335  0.9849115610122681  1.0000
  K   K1        1.0  0.5038370490074158  0.9380155801773071  0.11225382983684541  1.0000
  Pt  Pt1       1.0  0.029974153265357018  0.339337557554245  0.5585525631904602  1.0000
  Pt  Pt2       1.0  0.5713028907775879  0.8677606582641602  0.8042634725570679  1.0000
  Pt  Pt3       1.0  0.9892791509628296  0.5077058672904968  0.5833961367607117  1.0000
  Pt  Pt4       1.0  0.5302413105964661  0.20862576365470886  0.33909764885902405  1.0000
  Pt  Pt5       1.0  0.5116636753082275  0.33139368891716003  0.4742107391357422  1.0000
  Pt  Pt6       1.0  0.5662915110588074  0.7559275031089783  0.2977035343647003  1.0000
