data_image0
_chemical_formula_structural       Pt9Te
_chemical_formula_sum              "Pt9 Te1"
_cell_length_a       9.117734141981858
_cell_length_b       9.11932431349522
_cell_length_c       13.105955123901367
_cell_angle_alpha    90.30304416360686
_cell_angle_beta     90.51831372317251
_cell_angle_gamma    123.9600668783125

_space_group_name_H-M_alt    "P 1"
_space_group_IT_number       1

loop_
  _space_group_symop_operation_xyz
  'x, y, z'

loop_
  _atom_site_type_symbol
  _atom_site_label
  _atom_site_symmetry_multiplicity
  _atom_site_fract_x
  _atom_site_fract_y
  _atom_site_fract_z
  _atom_site_occupancy
  Pt  Pt1       1.0  0.9215790033340454  0.0385476015508175  0.805431842803955  1.0000
  Pt  Pt2       1.0  0.38644281029701244  0.8162049055099488  0.17572323977947232  1.0000
  Pt  Pt3       1.0  0.11005177348852163  0.5991097688674928  0.744964301586151  1.0000
  Pt  Pt4       1.0  0.0826874971389771  0.40841501951217657  0.23025913536548612  1.0000
  Pt  Pt5       1.0  0.5239604115486145  0.7838072180747987  0.46099799871444697  1.0000
  Pt  Pt6       1.0  0.930678129196167  0.4117421209812165  0.584639310836792  1.0000
  Pt  Pt7       1.0  0.46618708968162537  0.17890541255474093  0.7592825889587401  1.0000
  Pt  Pt8       1.0  0.39093467593193065  0.843449354171753  0.9615774750709533  1.0000
  Pt  Pt9       1.0  0.6188843250274659  0.8830490708351136  0.612953782081604  1.0000
  Te  Te1       1.0  0.3714732229709626  0.7178354263305665  0.4797512292861938  1.0000
