data_image0
_chemical_formula_structural       HfIK2Pt6
_chemical_formula_sum              "Hf1 I1 K2 Pt6"
_cell_length_a       6.084358630128652
_cell_length_b       4.632883827010669
_cell_length_c       6.721161842346191
_cell_angle_alpha    124.45001792070637
_cell_angle_beta     103.58339826046972
_cell_angle_gamma    111.53793953623956

_space_group_name_H-M_alt    "P 1"
_space_group_IT_number       1

loop_
  _space_group_symop_operation_xyz
  'x, y, z'

loop_
  _atom_site_type_symbol
  _atom_site_label
  _atom_site_symmetry_multiplicity
  _atom_site_fract_x
  _atom_site_fract_y
  _atom_site_fract_z
  _atom_site_occupancy
  Hf  Hf1       1.0  0.547767698764801  0.47131550312042236  0.890693724155426  1.0000
  I   I1        1.0  0.526323139667511  0.6068103909492493  0.031151080504059812  1.0000
  K   K1        1.0  0.054472208023071365  0.9525994062423707  0.06581668555736539  1.0000
  K   K2        1.0  0.01023782603442669  0.5021215677261353  0.047675356268882745  1.0000
  Pt  Pt1       1.0  0.03425675258040428  0.8033996820449829  0.48828911781311035  1.0000
  Pt  Pt2       1.0  0.08282726258039477  0.08388988673686987  0.38751518726348877  1.0000
  Pt  Pt3       1.0  0.28810176253318787  0.9858595132827759  0.6217874884605408  1.0000
  Pt  Pt4       1.0  0.21387258172035215  0.44480153918266285  0.46127346158027643  1.0000
  Pt  Pt5       1.0  0.0516999922692775  0.8817663788795469  0.8483675122261046  1.0000
  Pt  Pt6       1.0  0.7747825384140015  0.40775308012962347  0.6233617663383484  1.0000
