data_image0
_chemical_formula_structural       O3Sb2Sc2Tb2
_chemical_formula_sum              "O3 Sb2 Sc2 Tb2"
_cell_length_a       4.77806714903134
_cell_length_b       5.2527342879683685
_cell_length_c       8.376778602600098
_cell_angle_alpha    76.8613508257475
_cell_angle_beta     77.1519206027371
_cell_angle_gamma    62.73119126708364

_space_group_name_H-M_alt    "P 1"
_space_group_IT_number       1

loop_
  _space_group_symop_operation_xyz
  'x, y, z'

loop_
  _atom_site_type_symbol
  _atom_site_label
  _atom_site_symmetry_multiplicity
  _atom_site_fract_x
  _atom_site_fract_y
  _atom_site_fract_z
  _atom_site_occupancy
  O   O1        1.0  0.8411915898323059  0.07372455298900604  0.5215107202529907  1.0000
  O   O2        1.0  0.8318000435829163  0.37261083722114563  0.2541719675064087  1.0000
  O   O3        1.0  0.1572398543357849  0.7272743582725525  0.7997032999992371  1.0000
  Sb  Sb1       1.0  0.3547897934913635  0.35827863216400146  0.2349473237991333  1.0000
  Sb  Sb2       1.0  0.8421031832695007  0.03564200922846794  0.2436942160129547  1.0000
  Sc  Sc1       1.0  0.7416712641716003  0.5837886333465576  0.9923303127288818  1.0000
  Sc  Sc2       1.0  0.710179328918457  0.7390576601028442  0.45221269130706787  1.0000
  Tb  Tb1       1.0  0.3889349699020386  0.023489417508244514  0.006041654385626316  1.0000
  Tb  Tb2       1.0  0.38008204102516174  0.5111203789710999  0.5093580484390259  1.0000
