data_image0
_chemical_formula_structural       CuPS2Si3Zn2Zr
_chemical_formula_sum              "Cu1 P1 S2 Si3 Zn2 Zr1"
_cell_length_a       6.432898066469332
_cell_length_b       6.143040403347184
_cell_length_c       6.499802112579346
_cell_angle_alpha    72.84793582842958
_cell_angle_beta     68.89634384152592
_cell_angle_gamma    66.7965643428662

_space_group_name_H-M_alt    "P 1"
_space_group_IT_number       1

loop_
  _space_group_symop_operation_xyz
  'x, y, z'

loop_
  _atom_site_type_symbol
  _atom_site_label
  _atom_site_symmetry_multiplicity
  _atom_site_fract_x
  _atom_site_fract_y
  _atom_site_fract_z
  _atom_site_occupancy
  Cu  Cu1       1.0  0.20343446731567383  0.6817246675491333  0.747589111328125  1.0000
  P   P1        1.0  0.8804404139518738  0.203303724527359  0.48145064711570745  1.0000
  S   S1        1.0  0.21318824589252472  0.854996383190155  0.12378260493278505  1.0000
  S   S2        1.0  0.932647168636322  0.7736958861351013  0.31344664096832275  1.0000
  Si  Si1       1.0  0.46968555450439453  0.45223140716552734  0.7851225137710571  1.0000
  Si  Si2       1.0  0.4663824737071991  0.9522250890731812  0.9290804266929628  1.0000
  Si  Si3       1.0  0.1961551010608673  0.3941945731639862  0.860438644886017  1.0000
  Zn  Zn1       1.0  0.47283172607421875  0.3657469153404236  0.7021551132202148  1.0000
  Zn  Zn2       1.0  0.46440306305885315  0.0691329836845398  0.8831046819686891  1.0000
  Zr  Zr1       1.0  0.9406173229217529  0.38818538188934326  0.2817056179046631  1.0000
