data_image0
_chemical_formula_structural       CuIS3Si4Zn
_chemical_formula_sum              "Cu1 I1 S3 Si4 Zn1"
_cell_length_a       5.97525308222376
_cell_length_b       5.92594229418376
_cell_length_c       6.501291275024414
_cell_angle_alpha    102.44533888153568
_cell_angle_beta     98.58595402844593
_cell_angle_gamma    89.14355731264767

_space_group_name_H-M_alt    "P 1"
_space_group_IT_number       1

loop_
  _space_group_symop_operation_xyz
  'x, y, z'

loop_
  _atom_site_type_symbol
  _atom_site_label
  _atom_site_symmetry_multiplicity
  _atom_site_fract_x
  _atom_site_fract_y
  _atom_site_fract_z
  _atom_site_occupancy
  Cu  Cu1       1.0  0.696387529373169  0.4163672626018524  0.13169462978839874  1.0000
  I   I1        1.0  0.20740380883216855  0.6360163688659668  0.45616811513900757  1.0000
  S   S1        1.0  0.6993210911750793  0.9852856993675232  0.514039158821106  1.0000
  S   S2        1.0  0.2118987590074539  0.11750812828540802  0.3253374397754669  1.0000
  S   S3        1.0  0.2017617970705032  0.5959901213645935  0.5518151521682739  1.0000
  Si  Si1       1.0  0.3909002244472503  0.29984739422798157  0.9678530097007751  1.0000
  Si  Si2       1.0  0.20493568480014798  0.3543139398097992  0.31413647532463074  1.0000
  Si  Si3       1.0  0.7140594124794006  0.5984517931938171  0.14054855704307556  1.0000
  Si  Si4       1.0  0.7000821828842163  0.6931086182594299  0.12991921603679657  1.0000
  Zn  Zn1       1.0  0.19281548261642453  0.9295459389686584  0.4583505094051361  1.0000
