data_image0
_chemical_formula_structural       CuIPtSSi4SrZn
_chemical_formula_sum              "Cu1 I1 Pt1 S1 Si4 Sr1 Zn1"
_cell_length_a       6.982298829607777
_cell_length_b       6.552946730337067
_cell_length_c       6.787327766418457
_cell_angle_alpha    111.93283529891956
_cell_angle_beta     109.96745518251609
_cell_angle_gamma    110.1143766343944

_space_group_name_H-M_alt    "P 1"
_space_group_IT_number       1

loop_
  _space_group_symop_operation_xyz
  'x, y, z'

loop_
  _atom_site_type_symbol
  _atom_site_label
  _atom_site_symmetry_multiplicity
  _atom_site_fract_x
  _atom_site_fract_y
  _atom_site_fract_z
  _atom_site_occupancy
  Cu  Cu1       1.0  0.24505406618118286  0.06286294758319855  0.06639298796653748  1.0000
  I   I1        1.0  0.24682661890983582  0.2769814729690552  0.5066258311271667  1.0000
  Pt  Pt1       1.0  0.7368840575218201  0.5534639358520508  0.14483575522899628  1.0000
  S   S1        1.0  0.09996416419744492  0.06585968285799026  0.8090696930885315  1.0000
  Si  Si1       1.0  0.9396378397941589  0.12677058577537537  0.02353317104279995  1.0000
  Si  Si2       1.0  0.24223566055297852  0.11497465521097183  0.07540707290172577  1.0000
  Si  Si3       1.0  0.7297540903091431  0.59579998254776  0.830186665058136  1.0000
  Si  Si4       1.0  0.827354371547699  0.39565157890319824  0.5746492743492126  1.0000
  Sr  Sr1       1.0  0.721379280090332  0.2613724172115326  0.6374550461769104  1.0000
  Zn  Zn1       1.0  0.2217378318309784  0.5568328499794006  0.7727800011634827  1.0000
