data_image0
_chemical_formula_structural       Cu2S3Si5
_chemical_formula_sum              "Cu2 S3 Si5"
_cell_length_a       4.688935447122229
_cell_length_b       2.6507318321034883
_cell_length_c       4.300866603851318
_cell_angle_alpha    146.37286723423318
_cell_angle_beta     110.13571243212816
_cell_angle_gamma    103.25047478909532

_space_group_name_H-M_alt    "P 1"
_space_group_IT_number       1

loop_
  _space_group_symop_operation_xyz
  'x, y, z'

loop_
  _atom_site_type_symbol
  _atom_site_label
  _atom_site_symmetry_multiplicity
  _atom_site_fract_x
  _atom_site_fract_y
  _atom_site_fract_z
  _atom_site_occupancy
  Cu  Cu1       1.0  0.3645015358924866  0.3759107887744903  0.705180287361145  1.0000
  Cu  Cu2       1.0  0.886734127998352  0.6185349225997925  0.039866261184215566  1.0000
  S   S1        1.0  0.8946841359138489  0.958925724029541  0.28198152780532837  1.0000
  S   S2        1.0  0.8603020310401917  0.8730894327163699  0.9058481454849244  1.0000
  S   S3        1.0  0.36757346987724304  0.08709318935871128  0.3885284960269928  1.0000
  Si  Si1       1.0  0.8812764286994934  0.8020391464233398  0.06621324270963672  1.0000
  Si  Si2       1.0  0.9199737310409546  0.258935809135437  0.7836532592773438  1.0000
  Si  Si3       1.0  0.8536772727966309  0.3646675050258637  0.3452503681182862  1.0000
  Si  Si4       1.0  0.3758532404899597  0.698039174079895  0.14248646795749664  1.0000
  Si  Si5       1.0  0.4027320146560669  0.14535175263881686  0.8061407804489136  1.0000
