data_image0
_chemical_formula_structural       Cu4Si6
_chemical_formula_sum              "Cu4 Si6"
_cell_length_a       5.895211314609511
_cell_length_b       4.649707320140973
_cell_length_c       4.784584045410156
_cell_angle_alpha    94.66943522079534
_cell_angle_beta     91.47368300042174
_cell_angle_gamma    95.4155931193536

_space_group_name_H-M_alt    "P 1"
_space_group_IT_number       1

loop_
  _space_group_symop_operation_xyz
  'x, y, z'

loop_
  _atom_site_type_symbol
  _atom_site_label
  _atom_site_symmetry_multiplicity
  _atom_site_fract_x
  _atom_site_fract_y
  _atom_site_fract_z
  _atom_site_occupancy
  Cu  Cu1       1.0  0.5451533794403076  0.6129018068313599  0.8842148184776306  1.0000
  Cu  Cu2       1.0  0.4685696363449097  0.5031406879425049  0.13427592813968658  1.0000
  Cu  Cu3       1.0  0.9548068642616273  0.37154778838157654  0.2954944372177124  1.0000
  Cu  Cu4       1.0  0.9647412896156312  0.39191439747810364  0.19173897802829742  1.0000
  Si  Si1       1.0  0.22322446107864383  0.22621914744377136  0.3369722366333008  1.0000
  Si  Si2       1.0  0.46609401702880865  0.8106751441955566  0.16635499894618988  1.0000
  Si  Si3       1.0  0.9742819666862489  0.34082841873168945  0.9705942273139954  1.0000
  Si  Si4       1.0  0.4684406220912934  0.1747773289680481  0.4634958505630493  1.0000
  Si  Si5       1.0  0.4753659367561341  0.7395638823509216  0.1436046063899994  1.0000
  Si  Si6       1.0  0.9667241573333741  0.2170177549123764  0.5652093887329102  1.0000
