data_image0
_chemical_formula_structural       CuFS3Si3Zn2
_chemical_formula_sum              "Cu1 F1 S3 Si3 Zn2"
_cell_length_a       5.374084489062205
_cell_length_b       4.9262561500572515
_cell_length_c       5.974609851837158
_cell_angle_alpha    68.45150591902936
_cell_angle_beta     64.89548570823855
_cell_angle_gamma    56.93017269707419

_space_group_name_H-M_alt    "P 1"
_space_group_IT_number       1

loop_
  _space_group_symop_operation_xyz
  'x, y, z'

loop_
  _atom_site_type_symbol
  _atom_site_label
  _atom_site_symmetry_multiplicity
  _atom_site_fract_x
  _atom_site_fract_y
  _atom_site_fract_z
  _atom_site_occupancy
  Cu  Cu1       1.0  0.6529823541641235  0.928277313709259  0.8817723989486694  1.0000
  F   F1        1.0  0.5517769455909729  0.5981436371803284  0.7894572019577026  1.0000
  S   S1        1.0  0.08778286725282669  0.23152554035186768  0.3728817105293274  1.0000
  S   S2        1.0  0.2612576186656952  0.9824838042259216  0.24972787499427795  1.0000
  S   S3        1.0  0.7280073761940002  0.8220227956771851  0.6040839552879333  1.0000
  Si  Si1       1.0  0.9008765816688539  0.6803730130195618  0.46935969591140747  1.0000
  Si  Si2       1.0  0.577774167060852  0.11667060852050781  0.556131899356842  1.0000
  Si  Si3       1.0  0.5665991306304932  0.8145002722740173  0.14039762318134308  1.0000
  Zn  Zn1       1.0  0.09696049243211746  0.27954432368278503  0.673822283744812  1.0000
  Zn  Zn2       1.0  0.0743851289153099  0.12094312161207199  0.09566029161214828  1.0000
