data_image0
_chemical_formula_structural       AlBaGe3I2InLiO3P
_chemical_formula_sum              "Al1 Ba1 Ge3 I2 In1 Li1 O3 P1"
_cell_length_a       6.471818214496931
_cell_length_b       6.513793813585642
_cell_length_c       7.140113830566406
_cell_angle_alpha    65.91403562360317
_cell_angle_beta     65.19855273433183
_cell_angle_gamma    65.31468434206543

_space_group_name_H-M_alt    "P 1"
_space_group_IT_number       1

loop_
  _space_group_symop_operation_xyz
  'x, y, z'

loop_
  _atom_site_type_symbol
  _atom_site_label
  _atom_site_symmetry_multiplicity
  _atom_site_fract_x
  _atom_site_fract_y
  _atom_site_fract_z
  _atom_site_occupancy
  Al  Al1       1.0  0.9617406129837036  0.35729271173477173  0.12821795046329498  1.0000
  Ba  Ba1       1.0  0.4772897958755493  0.43917834758758545  0.8709096908569337  1.0000
  Ge  Ge1       1.0  0.8358851075172424  0.21999914944171906  0.9773172140121461  1.0000
  Ge  Ge2       1.0  0.8232253193855286  0.9771637916564941  0.9212425947189332  1.0000
  Ge  Ge3       1.0  0.8955240845680237  0.520997166633606  0.9354049563407899  1.0000
  I   I1        1.0  0.42322680354118347  0.3351139724254608  0.7240028977394105  1.0000
  I   I2        1.0  0.9327723383903503  0.5927566289901733  0.8856000304222108  1.0000
  In  In1       1.0  0.9514923691749573  0.9380977749824524  0.8927684426307679  1.0000
  Li  Li1       1.0  0.9105637073516846  0.5997947454452515  0.10872475057840349  1.0000
  O   O1        1.0  0.37184083461761475  0.09741849452257156  0.6861842274665833  1.0000
  O   O2        1.0  0.4704688489437103  0.31574463844299316  0.15114037692546844  1.0000
  O   O3        1.0  0.8948037028312683  0.8784999847412109  0.5079837441444397  1.0000
  P   P1        1.0  0.4418175518512726  0.23522862792015076  0.6170883178710938  1.0000
