data_image0
_chemical_formula_structural       AlBa2DyLiO6Tb2
_chemical_formula_sum              "Al1 Ba2 Dy1 Li1 O6 Tb2"
_cell_length_a       5.633637398151373
_cell_length_b       6.531812355102674
_cell_length_c       7.8591203689575195
_cell_angle_alpha    111.3889225423243
_cell_angle_beta     99.8916662541719
_cell_angle_gamma    121.08224998503609

_space_group_name_H-M_alt    "P 1"
_space_group_IT_number       1

loop_
  _space_group_symop_operation_xyz
  'x, y, z'

loop_
  _atom_site_type_symbol
  _atom_site_label
  _atom_site_symmetry_multiplicity
  _atom_site_fract_x
  _atom_site_fract_y
  _atom_site_fract_z
  _atom_site_occupancy
  Al  Al1       1.0  0.20445778965950012  0.2776990234851837  0.4189198315143586  1.0000
  Ba  Ba1       1.0  0.05539051070809364  0.06279142946004868  0.5548873543739319  1.0000
  Ba  Ba2       1.0  0.2682569921016693  0.4094471335411072  0.965040683746338  1.0000
  Dy  Dy1       1.0  0.7623175382614136  0.9846798181533813  0.4714591503143311  1.0000
  Li  Li1       1.0  0.27597784996032715  0.9627475142478943  0.11833427101373674  1.0000
  O   O1        1.0  0.7153581380844116  0.5171205401420593  0.9839242696762086  1.0000
  O   O2        1.0  0.7304761409759521  0.19369874894618988  0.1842707246541977  1.0000
  O   O3        1.0  0.24201492965221405  0.4766347408294678  0.05167843401432038  1.0000
  O   O4        1.0  0.4436993896961212  0.10208292305469513  0.9390154480934144  1.0000
  O   O5        1.0  0.007900695316493511  0.6621385216712952  0.9640316367149354  1.0000
  O   O6        1.0  0.4583674669265747  0.8041773438453674  0.04126749560236931  1.0000
  Tb  Tb1       1.0  0.9321970343589783  0.4005339443683624  0.49187260866165167  1.0000
  Tb  Tb2       1.0  0.7410818338394165  0.4874778985977173  0.8254449963569642  1.0000
