data_image0
_chemical_formula_structural       AlBi2GeO4Tb4Ti
_chemical_formula_sum              "Al1 Bi2 Ge1 O4 Tb4 Ti1"
_cell_length_a       6.632268714109312
_cell_length_b       7.1524276103339846
_cell_length_c       7.4095001220703125
_cell_angle_alpha    63.665398017864135
_cell_angle_beta     65.26783081122119
_cell_angle_gamma    62.64337800550614

_space_group_name_H-M_alt    "P 1"
_space_group_IT_number       1

loop_
  _space_group_symop_operation_xyz
  'x, y, z'

loop_
  _atom_site_type_symbol
  _atom_site_label
  _atom_site_symmetry_multiplicity
  _atom_site_fract_x
  _atom_site_fract_y
  _atom_site_fract_z
  _atom_site_occupancy
  Al  Al1       1.0  0.50124591588974  0.1455318182706833  0.29658839106559753  1.0000
  Bi  Bi1       1.0  0.241363063454628  0.29765862226486206  0.8170272707939149  1.0000
  Bi  Bi2       1.0  0.15463131666183472  0.6199674606323242  0.38128495216369634  1.0000
  Ge  Ge1       1.0  0.7554320693016052  0.44320011138916016  0.7314871549606324  1.0000
  O   O1        1.0  0.6426477432250977  0.5644180774688721  0.05463018268346787  1.0000
  O   O2        1.0  0.05030006170272827  0.5368632078170776  0.16537466645240786  1.0000
  O   O3        1.0  0.1602141112089157  0.203879714012146  0.36043754220008856  1.0000
  O   O4        1.0  0.6602938771247864  0.6916808485984802  0.6227111816406251  1.0000
  Tb  Tb1       1.0  0.46486902236938477  0.3790499269962311  0.9874519705772401  1.0000
  Tb  Tb2       1.0  0.2558937668800354  0.5845332145690918  0.2267834544181824  1.0000
  Tb  Tb3       1.0  0.5482224225997925  0.0745246410369873  0.5804001092910767  1.0000
  Tb  Tb4       1.0  0.7590311765670776  0.7452253699302673  0.19861625134944919  1.0000
  Ti  Ti1       1.0  0.7535951137542725  0.24866504967212677  0.3514982461929322  1.0000
