data_image0
_chemical_formula_structural       AsBFGeO5PTb2Zr
_chemical_formula_sum              "As1 B1 F1 Ge1 O5 P1 Tb2 Zr1"
_cell_length_a       6.818404645228844
_cell_length_b       7.06104135398098
_cell_length_c       7.2971882820129395
_cell_angle_alpha    59.65756491109573
_cell_angle_beta     60.37967902978535
_cell_angle_gamma    63.491674489536926

_space_group_name_H-M_alt    "P 1"
_space_group_IT_number       1

loop_
  _space_group_symop_operation_xyz
  'x, y, z'

loop_
  _atom_site_type_symbol
  _atom_site_label
  _atom_site_symmetry_multiplicity
  _atom_site_fract_x
  _atom_site_fract_y
  _atom_site_fract_z
  _atom_site_occupancy
  As  As1       1.0  0.17383916676044464  0.3328617811203003  0.09377636015415192  1.0000
  B   B1        1.0  0.7062471508979797  0.9029539823532104  0.19754855334758759  1.0000
  F   F1        1.0  0.6931445002555847  0.01666276343166828  0.22695933282375336  1.0000
  Ge  Ge1       1.0  0.09589294344186783  0.28841131925582886  0.5843302011489868  1.0000
  O   O1        1.0  0.377386212348938  0.13533048331737518  0.302939236164093  1.0000
  O   O2        1.0  0.9328336715698242  0.5232268571853638  0.4010979235172272  1.0000
  O   O3        1.0  0.7602109313011169  0.09968996793031693  0.3202747404575348  1.0000
  O   O4        1.0  0.8555976152420044  0.5613565444946289  0.7154170870780945  1.0000
  O   O5        1.0  0.2034674435853958  0.10274375230073929  0.7891806960105896  1.0000
  P   P1        1.0  0.2932656705379486  0.2779960036277771  0.7508473992347717  1.0000
  Tb  Tb1       1.0  0.14729565382003784  0.6310433149337769  0.8581846952438354  1.0000
  Tb  Tb2       1.0  0.7047968506813049  0.8938034772872925  0.5087229013442993  1.0000
  Zr  Zr1       1.0  0.3686247169971466  0.38371485471725464  0.21227949857711792  1.0000
