data_image0
_chemical_formula_structural       BBaO11
_chemical_formula_sum              "B1 Ba1 O11"
_cell_length_a       6.259257495209635
_cell_length_b       6.504772998681272
_cell_length_c       6.992035388946533
_cell_angle_alpha    82.73603384511226
_cell_angle_beta     74.4569002926585
_cell_angle_gamma    68.75646342602401

_space_group_name_H-M_alt    "P 1"
_space_group_IT_number       1

loop_
  _space_group_symop_operation_xyz
  'x, y, z'

loop_
  _atom_site_type_symbol
  _atom_site_label
  _atom_site_symmetry_multiplicity
  _atom_site_fract_x
  _atom_site_fract_y
  _atom_site_fract_z
  _atom_site_occupancy
  B   B1        1.0  0.4059256911277771  0.40434047579765325  0.042634930461645126  1.0000
  Ba  Ba1       1.0  0.3949296176433563  0.595641016960144  0.5666602849960327  1.0000
  O   O1        1.0  0.09735582768917084  0.18707001209259036  0.13407109677791595  1.0000
  O   O2        1.0  0.9012715220451355  0.1857838183641434  0.5496835708618164  1.0000
  O   O3        1.0  0.6551429033279419  0.18716877698898318  0.7277377843856812  1.0000
  O   O4        1.0  0.9152003526687622  0.4752162396907807  0.8802763819694519  1.0000
  O   O5        1.0  0.4092424213886261  0.6795154213905334  0.7481024861335754  1.0000
  O   O6        1.0  0.9091737866401672  0.7303636074066163  0.5003255605697632  1.0000
  O   O7        1.0  0.40297457575798035  0.11393528431653978  0.8438307642936707  1.0000
  O   O8        1.0  0.45050764083862305  0.5570940971374512  0.6368948817253113  1.0000
  O   O9        1.0  0.40375584363937367  0.9090480208396913  0.3293118178844452  1.0000
  O   O10       1.0  0.4032987356185913  0.11954870074987413  0.03935106843709947  1.0000
  O   O11       1.0  0.9062788486480713  0.7424256801605226  0.4768470525741577  1.0000
