data_image0
_chemical_formula_structural       B2BaO10
_chemical_formula_sum              "B2 Ba1 O10"
_cell_length_a       5.452933388546523
_cell_length_b       5.654191419264524
_cell_length_c       6.877453327178955
_cell_angle_alpha    65.90502925665551
_cell_angle_beta     68.79444234839328
_cell_angle_gamma    60.71541253200226

_space_group_name_H-M_alt    "P 1"
_space_group_IT_number       1

loop_
  _space_group_symop_operation_xyz
  'x, y, z'

loop_
  _atom_site_type_symbol
  _atom_site_label
  _atom_site_symmetry_multiplicity
  _atom_site_fract_x
  _atom_site_fract_y
  _atom_site_fract_z
  _atom_site_occupancy
  B   B1        1.0  0.40822112560272217  0.1140025332570076  0.30433982610702515  1.0000
  B   B2        1.0  0.6174332499504089  0.3068961203098297  0.14742408692836761  1.0000
  Ba  Ba1       1.0  0.946843147277832  0.18467475473880768  0.4665664434432983  1.0000
  O   O1        1.0  0.8630065321922302  0.4643262028694153  0.8415313363075256  1.0000
  O   O2        1.0  0.3610442578792572  0.5239382982254028  0.10247194021940231  1.0000
  O   O3        1.0  0.36020010709762573  0.5338084697723389  0.714352548122406  1.0000
  O   O4        1.0  0.40064147114753723  0.8436382412910461  0.7344109416007996  1.0000
  O   O5        1.0  0.9492822885513306  0.7157219648361206  0.991426408290863  1.0000
  O   O6        1.0  0.6165585517883301  0.1902611255645752  0.9145603775978088  1.0000
  O   O7        1.0  0.8686244487762451  0.5534369349479675  0.2740094065666198  1.0000
  O   O8        1.0  0.2703551650047302  0.23768191039562225  0.45373356342315674  1.0000
  O   O9        1.0  0.3441334366798401  0.9374111890792847  0.820508599281311  1.0000
  O   O10       1.0  0.3594438433647156  0.5278425812721252  0.7639254331588745  1.0000
