data_image0
_chemical_formula_structural       Er2GeO2P3PdSi2
_chemical_formula_sum              "Er2 Ge1 O2 P3 Pd1 Si2"
_cell_length_a       5.552000746355611
_cell_length_b       6.329836210892386
_cell_length_c       6.957668781280518
_cell_angle_alpha    66.91374825089217
_cell_angle_beta     65.4453122220683
_cell_angle_gamma    64.46680928960247

_space_group_name_H-M_alt    "P 1"
_space_group_IT_number       1

loop_
  _space_group_symop_operation_xyz
  'x, y, z'

loop_
  _atom_site_type_symbol
  _atom_site_label
  _atom_site_symmetry_multiplicity
  _atom_site_fract_x
  _atom_site_fract_y
  _atom_site_fract_z
  _atom_site_occupancy
  Er  Er1       1.0  0.5636926293373108  0.0824647918343544  0.9804379940032959  1.0000
  Er  Er2       1.0  0.13923446834087372  0.8433988690376282  0.038085248321294785  1.0000
  Ge  Ge1       1.0  0.23976951837539673  0.4444669187068939  0.9882198572158813  1.0000
  O   O1        1.0  0.804618775844574  0.46482646465301514  0.6734898090362549  1.0000
  O   O2        1.0  0.7528876066207886  0.8880634307861328  0.18512466549873352  1.0000
  P   P1        1.0  0.8743420243263245  0.3451845645904541  0.008974941447377205  1.0000
  P   P2        1.0  0.558455228805542  0.03317861258983612  0.7960497140884399  1.0000
  P   P3        1.0  0.8649455308914185  0.5699483752250671  0.4825231730937957  1.0000
  Pd  Pd1       1.0  0.22038444876670837  0.3119714558124542  0.5714266300201416  1.0000
  Si  Si1       1.0  0.3844987154006958  0.46309345960617065  0.5022037029266357  1.0000
  Si  Si2       1.0  0.9727082252502441  0.5755611062049866  0.5596619844436646  1.0000
