data_image0
_chemical_formula_structural       BrErOP4Pd2SiZr
_chemical_formula_sum              "Br1 Er1 O1 P4 Pd2 Si1 Zr1"
_cell_length_a       5.575972414728231
_cell_length_b       5.897401467360392
_cell_length_c       7.399022579193115
_cell_angle_alpha    66.20317838178123
_cell_angle_beta     65.75266176180543
_cell_angle_gamma    61.74570939236943

_space_group_name_H-M_alt    "P 1"
_space_group_IT_number       1

loop_
  _space_group_symop_operation_xyz
  'x, y, z'

loop_
  _atom_site_type_symbol
  _atom_site_label
  _atom_site_symmetry_multiplicity
  _atom_site_fract_x
  _atom_site_fract_y
  _atom_site_fract_z
  _atom_site_occupancy
  Br  Br1       1.0  0.6061343550682068  0.34253042936325073  0.5628729462623596  1.0000
  Er  Er1       1.0  0.2609359323978424  0.8840858340263367  0.956884205341339  1.0000
  O   O1        1.0  0.9197289943695068  0.4539404213428497  0.5114298462867737  1.0000
  P   P1        1.0  0.2454911172389984  0.08962378650903702  0.20997607707977292  1.0000
  P   P2        1.0  0.2349143624305725  0.052226994186639786  0.4333579838275909  1.0000
  P   P3        1.0  0.39142119884490967  0.4771877825260162  0.19075946509838101  1.0000
  P   P4        1.0  0.7415360808372498  0.9839316606521605  0.7648765444755553  1.0000
  Pd  Pd1       1.0  0.6990324854850769  0.9481932520866393  0.041097704321146004  1.0000
  Pd  Pd2       1.0  0.4986143112182617  0.6094905138015747  0.21822804212570188  1.0000
  Si  Si1       1.0  0.5844058394432068  0.04160936549305916  0.7394065856933593  1.0000
  Zr  Zr1       1.0  0.9520530104637146  0.6080374121665955  0.23597596585750577  1.0000
