data_image0
_chemical_formula_structural       NiOP5Pd2Si2
_chemical_formula_sum              "Ni1 O1 P5 Pd2 Si2"
_cell_length_a       4.707601039265662
_cell_length_b       6.336197436482754
_cell_length_c       7.52283239364624
_cell_angle_alpha    74.16847377009982
_cell_angle_beta     70.67024632676544
_cell_angle_gamma    68.47235424529475

_space_group_name_H-M_alt    "P 1"
_space_group_IT_number       1

loop_
  _space_group_symop_operation_xyz
  'x, y, z'

loop_
  _atom_site_type_symbol
  _atom_site_label
  _atom_site_symmetry_multiplicity
  _atom_site_fract_x
  _atom_site_fract_y
  _atom_site_fract_z
  _atom_site_occupancy
  Ni  Ni1       1.0  0.3435526192188263  0.013669935055077076  0.2573484182357788  1.0000
  O   O1        1.0  0.8004308938980103  0.7160705327987671  0.5727399587631226  1.0000
  P   P1        1.0  0.9836835861206055  0.19727148115634918  0.39304226636886597  1.0000
  P   P2        1.0  0.4878453016281128  0.18861640989780426  0.09389248490333557  1.0000
  P   P3        1.0  0.06667236983776093  0.5382387042045593  0.08357571810483932  1.0000
  P   P4        1.0  0.5372655391693115  0.552291989326477  0.9033216834068298  1.0000
  P   P5        1.0  0.6719250082969666  0.01957324519753456  0.7100965976715088  1.0000
  Pd  Pd1       1.0  0.850421667098999  0.8368414044380188  0.2383739948272705  1.0000
  Pd  Pd2       1.0  0.9577568769454956  0.7539774775505066  0.5381054282188416  1.0000
  Si  Si1       1.0  0.18816523253917694  0.31890615820884705  0.9134600162506104  1.0000
  Si  Si2       1.0  0.5856905579566956  0.5176728367805481  0.43395838141441345  1.0000
