data_image0
_chemical_formula_structural       Er2OPd2SbSiSr4
_chemical_formula_sum              "Er2 O1 Pd2 Sb1 Si1 Sr4"
_cell_length_a       4.697503990107873
_cell_length_b       6.816307369533637
_cell_length_c       6.493505001068115
_cell_angle_alpha    115.33559586334026
_cell_angle_beta     90.11798754800525
_cell_angle_gamma    90.27736033290381

_space_group_name_H-M_alt    "P 1"
_space_group_IT_number       1

loop_
  _space_group_symop_operation_xyz
  'x, y, z'

loop_
  _atom_site_type_symbol
  _atom_site_label
  _atom_site_symmetry_multiplicity
  _atom_site_fract_x
  _atom_site_fract_y
  _atom_site_fract_z
  _atom_site_occupancy
  Er  Er1       1.0  0.03755972534418106  0.9536629915237426  0.9789533019065857  1.0000
  Er  Er2       1.0  0.035384394228458405  0.22183881700038907  0.8392588496208191  1.0000
  O   O1        1.0  0.533750057220459  0.26120126247406006  0.6365816593170166  1.0000
  Pd  Pd1       1.0  0.034885089844465256  0.4452506005764007  0.1531459242105484  1.0000
  Pd  Pd2       1.0  0.5155065059661865  0.5408178567886353  0.6604071259498596  1.0000
  Sb  Sb1       1.0  0.5310365557670593  0.5758625268936157  0.8512851595878601  1.0000
  Si  Si1       1.0  0.021307198330760002  0.7303104400634765  0.40378645062446594  1.0000
  Sr  Sr1       1.0  0.5271814465522766  0.21001698076725003  0.33435869216918945  1.0000
  Sr  Sr2       1.0  0.5343478322029114  0.7389522194862365  0.09104188531637185  1.0000
  Sr  Sr3       1.0  0.018454167991876602  0.1730152070522308  0.4339650869369507  1.0000
  Sr  Sr4       1.0  0.015368271619081497  0.7544680833816527  0.6498398184776306  1.0000
