data_image0
_chemical_formula_structural       BrErHOPdSSb2SiSr2
_chemical_formula_sum              "Br1 Er1 H1 O1 Pd1 S1 Sb2 Si1 Sr2"
_cell_length_a       5.767814691450243
_cell_length_b       5.939377179568821
_cell_length_c       6.407495975494385
_cell_angle_alpha    108.9558172135321
_cell_angle_beta     109.41163726466117
_cell_angle_gamma    99.95040457274136

_space_group_name_H-M_alt    "P 1"
_space_group_IT_number       1

loop_
  _space_group_symop_operation_xyz
  'x, y, z'

loop_
  _atom_site_type_symbol
  _atom_site_label
  _atom_site_symmetry_multiplicity
  _atom_site_fract_x
  _atom_site_fract_y
  _atom_site_fract_z
  _atom_site_occupancy
  Br  Br1       1.0  0.6258414387702942  0.9901882410049438  0.13169093430042267  1.0000
  Er  Er1       1.0  0.5970878601074219  0.22737951576709747  0.7717775106430054  1.0000
  H   H1        1.0  0.9907156229019164  0.4740004539489746  0.6400720477104187  1.0000
  O   O1        1.0  0.6792504787445068  0.9675155282020569  0.3549500703811645  1.0000
  Pd  Pd1       1.0  0.4147186875343322  0.5219873189926147  0.38845589756965637  1.0000
  S   S1        1.0  0.3334924876689911  0.8668622374534607  0.06141836568713188  1.0000
  Sb  Sb1       1.0  0.8628337383270263  0.32258284091949463  0.16683512926101685  1.0000
  Sb  Sb2       1.0  0.13934628665447235  0.47640329599380493  0.5739616751670837  1.0000
  Si  Si1       1.0  0.13625986874103546  0.9838850498199463  0.4622885286808014  1.0000
  Sr  Sr1       1.0  0.27265942096710205  0.8195189833641052  0.9025825262069702  1.0000
  Sr  Sr2       1.0  0.7286208868026733  0.7474324703216553  0.3805826902389526  1.0000
