data_image0
_chemical_formula_structural       ErHOP3Pd3Si2
_chemical_formula_sum              "Er1 H1 O1 P3 Pd3 Si2"
_cell_length_a       4.824258474076735
_cell_length_b       6.341432052889994
_cell_length_c       6.554709434509277
_cell_angle_alpha    69.98530152345825
_cell_angle_beta     67.87124403928462
_cell_angle_gamma    68.32027138839901

_space_group_name_H-M_alt    "P 1"
_space_group_IT_number       1

loop_
  _space_group_symop_operation_xyz
  'x, y, z'

loop_
  _atom_site_type_symbol
  _atom_site_label
  _atom_site_symmetry_multiplicity
  _atom_site_fract_x
  _atom_site_fract_y
  _atom_site_fract_z
  _atom_site_occupancy
  Er  Er1       1.0  0.14451521635055542  0.6256698966026306  0.4523641765117645  1.0000
  H   H1        1.0  0.7853905558586121  0.7732293009757996  0.14784885942935944  1.0000
  O   O1        1.0  0.6041758060455322  0.12521521747112274  0.8692359328269958  1.0000
  P   P1        1.0  0.11513487994670868  0.6183968186378479  0.924004077911377  1.0000
  P   P2        1.0  0.41243129968643183  0.8464259505271913  0.29175952076911926  1.0000
  P   P3        1.0  0.6235429048538208  0.6214250326156616  0.99236661195755  1.0000
  Pd  Pd1       1.0  0.6894443035125732  0.33143287897109985  0.9233242273330688  1.0000
  Pd  Pd2       1.0  0.20768526196479797  0.27646690607070923  0.7225490212440491  1.0000
  Pd  Pd3       1.0  0.8305946588516235  0.12933316826820374  0.34889230132102966  1.0000
  Si  Si1       1.0  0.1523519903421402  0.1703486293554306  0.6932843923568726  1.0000
  Si  Si2       1.0  0.6343380212783813  0.6350250244140625  0.9062501788139343  1.0000
