data_image0
_chemical_formula_structural       Cd2Cl2CoPt3
_chemical_formula_sum              "Cd2 Cl2 Co1 Pt3"
_cell_length_a       5.86460717557926
_cell_length_b       6.631018753577605
_cell_length_c       6.856711387634277
_cell_angle_alpha    122.91818533800772
_cell_angle_beta     91.82838074938111
_cell_angle_gamma    89.54718835598452

_space_group_name_H-M_alt    "P 1"
_space_group_IT_number       1

loop_
  _space_group_symop_operation_xyz
  'x, y, z'

loop_
  _atom_site_type_symbol
  _atom_site_label
  _atom_site_symmetry_multiplicity
  _atom_site_fract_x
  _atom_site_fract_y
  _atom_site_fract_z
  _atom_site_occupancy
  Cd  Cd1       1.0  0.17124319076538086  0.46527463197708135  0.09086880087852481  1.0000
  Cd  Cd2       1.0  0.6665681600570679  0.5932921767234802  0.01741238310933113  1.0000
  Cl  Cl1       1.0  0.08013400435447693  0.6905574202537537  0.1385276764631272  1.0000
  Cl  Cl2       1.0  0.6611934900283813  0.5894607901573181  0.5056642889976501  1.0000
  Co  Co1       1.0  0.16697797179222107  0.6134507656097412  0.4351745545864105  1.0000
  Pt  Pt1       1.0  0.6686446666717529  0.9514387845993043  0.34564569592475897  1.0000
  Pt  Pt2       1.0  0.6606858372688293  0.1464720219373703  0.39421528577804565  1.0000
  Pt  Pt3       1.0  0.15848329663276672  0.7269415259361267  0.08065150678157812  1.0000
