data_image0
_chemical_formula_structural       FGa2Li4Pt3
_chemical_formula_sum              "F1 Ga2 Li4 Pt3"
_cell_length_a       4.427666598423222
_cell_length_b       4.080932060242071
_cell_length_c       5.736861228942871
_cell_angle_alpha    98.48083596268889
_cell_angle_beta     94.0288987432116
_cell_angle_gamma    133.13459556597314

_space_group_name_H-M_alt    "P 1"
_space_group_IT_number       1

loop_
  _space_group_symop_operation_xyz
  'x, y, z'

loop_
  _atom_site_type_symbol
  _atom_site_label
  _atom_site_symmetry_multiplicity
  _atom_site_fract_x
  _atom_site_fract_y
  _atom_site_fract_z
  _atom_site_occupancy
  F   F1        1.0  0.15998050570487976  0.09430041164159773  0.7003266215324402  1.0000
  Ga  Ga1       1.0  0.5825384259223938  0.5622106194496155  0.2515579164028168  1.0000
  Ga  Ga2       1.0  0.3436405956745147  0.3788382411003112  0.3110358715057373  1.0000
  Li  Li1       1.0  0.3711758255958556  0.9943816661834716  0.778321385383606  1.0000
  Li  Li2       1.0  0.8616405725479125  0.9762096405029296  0.22727009654045102  1.0000
  Li  Li3       1.0  0.3542347550392151  0.5250656008720398  0.7461799383163452  1.0000
  Li  Li4       1.0  0.8664087057113647  0.09960758686065672  0.030934782698750492  1.0000
  Pt  Pt1       1.0  0.8824935555458069  0.5552757978439331  0.10154575854539871  1.0000
  Pt  Pt2       1.0  0.8445422053337097  0.47570535540580744  0.3966316282749176  1.0000
  Pt  Pt3       1.0  0.3172425627708434  0.7043669223785399  0.5699194669723511  1.0000
