data_image0
_chemical_formula_structural       FLi4Pt5
_chemical_formula_sum              "F1 Li4 Pt5"
_cell_length_a       5.3540485572328596
_cell_length_b       5.0952313850121715
_cell_length_c       5.928797721862793
_cell_angle_alpha    88.80076841640611
_cell_angle_beta     88.6740354213094
_cell_angle_gamma    106.17482118170383

_space_group_name_H-M_alt    "P 1"
_space_group_IT_number       1

loop_
  _space_group_symop_operation_xyz
  'x, y, z'

loop_
  _atom_site_type_symbol
  _atom_site_label
  _atom_site_symmetry_multiplicity
  _atom_site_fract_x
  _atom_site_fract_y
  _atom_site_fract_z
  _atom_site_occupancy
  F   F1        1.0  0.7998769283294678  0.24828487634658813  0.7777420282363892  1.0000
  Li  Li1       1.0  0.47905105352401733  0.2816666066646576  0.5505131483078003  1.0000
  Li  Li2       1.0  0.47074374556541443  0.2432589828968048  0.3004036843776703  1.0000
  Li  Li3       1.0  0.47717440128326416  0.5197219848632812  0.21810075640678406  1.0000
  Li  Li4       1.0  0.26004737615585327  0.8035416007041931  0.9791156649589539  1.0000
  Pt  Pt1       1.0  0.48843082785606384  0.9884116649627686  0.7626879811286926  1.0000
  Pt  Pt2       1.0  0.9892590045928955  0.4656331539154053  0.7812504768371582  1.0000
  Pt  Pt3       1.0  0.9912341237068176  0.9285116791725159  0.40117380023002625  1.0000
  Pt  Pt4       1.0  0.44686204195022583  0.8905839920043945  0.8240689039230346  1.0000
  Pt  Pt5       1.0  0.4837915897369385  0.22545240819454193  0.10837788879871368  1.0000
