data_image0
_chemical_formula_structural       FGa2Li4Pt3
_chemical_formula_sum              "F1 Ga2 Li4 Pt3"
_cell_length_a       5.2119752594924185
_cell_length_b       5.123878975137845
_cell_length_c       5.521026134490967
_cell_angle_alpha    87.86471646741009
_cell_angle_beta     85.71519828221052
_cell_angle_gamma    88.60968615643687

_space_group_name_H-M_alt    "P 1"
_space_group_IT_number       1

loop_
  _space_group_symop_operation_xyz
  'x, y, z'

loop_
  _atom_site_type_symbol
  _atom_site_label
  _atom_site_symmetry_multiplicity
  _atom_site_fract_x
  _atom_site_fract_y
  _atom_site_fract_z
  _atom_site_occupancy
  F   F1        1.0  0.5391213893890381  0.6281619668006897  0.7275978922843933  1.0000
  Ga  Ga1       1.0  0.02750608883798122  0.7996522188186646  0.40530455112457275  1.0000
  Ga  Ga2       1.0  0.05258774757385254  0.45756205916404724  0.2726866602897644  1.0000
  Li  Li1       1.0  0.539261519908905  0.42869308590888977  0.7470091581344604  1.0000
  Li  Li2       1.0  0.06549225002527237  0.6554833054542542  0.2679579555988312  1.0000
  Li  Li3       1.0  0.026727765798568726  0.6330052018165588  0.9351804852485657  1.0000
  Li  Li4       1.0  0.03272825479507446  0.37440332770347595  0.8880789279937744  1.0000
  Pt  Pt1       1.0  0.5635085105895996  0.17295478284358978  0.7127822041511536  1.0000
  Pt  Pt2       1.0  0.038444798439741135  0.3881571888923645  0.7614503502845764  1.0000
  Pt  Pt3       1.0  0.33965885639190674  0.7099300622940063  0.5841897130012512  1.0000
