data_image0
_chemical_formula_structural       Ga2InLi5PPt
_chemical_formula_sum              "Ga2 In1 Li5 P1 Pt1"
_cell_length_a       6.035017429400075
_cell_length_b       4.101752949883329
_cell_length_c       5.8700032234191895
_cell_angle_alpha    4.0423026217022615
_cell_angle_beta     57.91155738754494
_cell_angle_gamma    60.7804354158618

_space_group_name_H-M_alt    "P 1"
_space_group_IT_number       1

loop_
  _space_group_symop_operation_xyz
  'x, y, z'

loop_
  _atom_site_type_symbol
  _atom_site_label
  _atom_site_symmetry_multiplicity
  _atom_site_fract_x
  _atom_site_fract_y
  _atom_site_fract_z
  _atom_site_occupancy
  Ga  Ga1       1.0  0.893928110599518  0.2792749106884005  0.7068622112274169  1.0000
  Ga  Ga2       1.0  0.5177085995674133  0.1763204634189606  0.8140801787376404  1.0000
  In  In1       1.0  0.2187058925628662  0.332535207271576  0.2870908677577972  1.0000
  Li  Li1       1.0  0.35669127106666565  0.41814881563186657  0.7815048694610595  1.0000
  Li  Li2       1.0  0.23222039639949799  0.4982303082942964  0.45956665277481074  1.0000
  Li  Li3       1.0  0.7574177980422974  0.5175179839134217  0.6983402967453002  1.0000
  Li  Li4       1.0  0.8647611737251282  0.14949828386306768  0.24896809458732594  1.0000
  Li  Li5       1.0  0.3362586796283722  0.038177490234375  0.002877369057387099  1.0000
  P   P1        1.0  0.16674262285232544  0.7245836853981019  0.7140832543373107  1.0000
  Pt  Pt1       1.0  0.7886125445365906  0.28009518980979947  0.7546486854553222  1.0000
