data_image0
_chemical_formula_structural       FLi6Pt3
_chemical_formula_sum              "F1 Li6 Pt3"
_cell_length_a       4.408146031019935
_cell_length_b       4.585078796604247
_cell_length_c       6.30010986328125
_cell_angle_alpha    65.62964404595212
_cell_angle_beta     72.19177176268836
_cell_angle_gamma    59.910707252446386

_space_group_name_H-M_alt    "P 1"
_space_group_IT_number       1

loop_
  _space_group_symop_operation_xyz
  'x, y, z'

loop_
  _atom_site_type_symbol
  _atom_site_label
  _atom_site_symmetry_multiplicity
  _atom_site_fract_x
  _atom_site_fract_y
  _atom_site_fract_z
  _atom_site_occupancy
  F   F1        1.0  0.8964512944221497  0.9940925240516663  0.928651750087738  1.0000
  Li  Li1       1.0  0.4041624963283539  0.41236141324043274  0.1256759762763977  1.0000
  Li  Li2       1.0  0.49540695548057556  0.015743035823106766  0.11061181873083115  1.0000
  Li  Li3       1.0  0.9962031245231628  0.5313056111335754  0.9789968729019165  1.0000
  Li  Li4       1.0  0.7455567717552185  0.7975610494613647  0.058231040835380554  1.0000
  Li  Li5       1.0  0.9715838432312012  0.697906494140625  0.7611804008483887  1.0000
  Li  Li6       1.0  0.7616673111915588  0.2541857957839966  0.5396611094474792  1.0000
  Pt  Pt1       1.0  0.8871641755104065  0.9059825539588928  0.767526388168335  1.0000
  Pt  Pt2       1.0  0.21747316420078278  0.5534840226173401  0.02030220627784729  1.0000
  Pt  Pt3       1.0  0.880232036113739  0.09610249847173691  0.9045774936676025  1.0000
