data_image0
_chemical_formula_structural       FLi7Pt2
_chemical_formula_sum              "F1 Li7 Pt2"
_cell_length_a       4.282586551445769
_cell_length_b       3.882317057302397
_cell_length_c       4.76353120803833
_cell_angle_alpha    67.78566640773847
_cell_angle_beta     69.08039348275044
_cell_angle_gamma    56.709525042003115

_space_group_name_H-M_alt    "P 1"
_space_group_IT_number       1

loop_
  _space_group_symop_operation_xyz
  'x, y, z'

loop_
  _atom_site_type_symbol
  _atom_site_label
  _atom_site_symmetry_multiplicity
  _atom_site_fract_x
  _atom_site_fract_y
  _atom_site_fract_z
  _atom_site_occupancy
  F   F1        1.0  0.4060218036174774  0.1472903937101364  0.1525965929031372  1.0000
  Li  Li1       1.0  0.40137383341789246  0.17350810766220093  0.2810157239437103  1.0000
  Li  Li2       1.0  0.875600278377533  0.5997906923294067  0.015622443519532679  1.0000
  Li  Li3       1.0  0.8807530999183655  0.263573557138443  0.1027221605181694  1.0000
  Li  Li4       1.0  0.3614152669906616  0.0611724853515625  0.9412965178489685  1.0000
  Li  Li5       1.0  0.8623058199882507  0.6011523008346558  0.9130420088768005  1.0000
  Li  Li6       1.0  0.8955247402191162  0.07211768627166748  0.5349462032318115  1.0000
  Li  Li7       1.0  0.3679955303668976  0.9275299906730652  0.6486963033676147  1.0000
  Pt  Pt1       1.0  0.39115047454833984  0.638752281665802  0.8842490315437317  1.0000
  Pt  Pt2       1.0  0.8619673252105713  0.8064035773277283  0.5641889572143555  1.0000
