data_image0
_chemical_formula_structural       AsEuIPRu4ZnZr
_chemical_formula_sum              "As1 Eu1 I1 P1 Ru4 Zn1 Zr1"
_cell_length_a       5.268390275841109
_cell_length_b       5.503814764475506
_cell_length_c       6.861127853393555
_cell_angle_alpha    93.62476090388986
_cell_angle_beta     90.52465191416695
_cell_angle_gamma    93.83618669849716

_space_group_name_H-M_alt    "P 1"
_space_group_IT_number       1

loop_
  _space_group_symop_operation_xyz
  'x, y, z'

loop_
  _atom_site_type_symbol
  _atom_site_label
  _atom_site_symmetry_multiplicity
  _atom_site_fract_x
  _atom_site_fract_y
  _atom_site_fract_z
  _atom_site_occupancy
  As  As1       1.0  0.7842519283294678  0.8556790947914124  0.43699774146080017  1.0000
  Eu  Eu1       1.0  0.7934574484825134  0.26175734400749207  0.5679018497467041  1.0000
  I   I1        1.0  0.29265570640563965  0.3979330062866211  0.05148226022720337  1.0000
  P   P1        1.0  0.2810324728488922  0.8545588850975037  0.6269385814666748  1.0000
  Ru  Ru1       1.0  0.2922739088535309  0.4967588782310486  0.9393783807754517  1.0000
  Ru  Ru2       1.0  0.7904489636421204  0.8712652325630188  0.6713671684265137  1.0000
  Ru  Ru3       1.0  0.7845227122306824  0.5968629717826843  0.4584166407585144  1.0000
  Ru  Ru4       1.0  0.2920483648777008  0.5835942625999451  0.39937156438827515  1.0000
  Zn  Zn1       1.0  0.28755325078964233  0.9063320755958557  0.345610648393631  1.0000
  Zr  Zr1       1.0  0.7963091135025024  0.44492003321647644  0.6760126948356628  1.0000
