data_image0
_chemical_formula_structural       GaMgOPRu6
_chemical_formula_sum              "Ga1 Mg1 O1 P1 Ru6"
_cell_length_a       4.80621166350748
_cell_length_b       5.313954640535278
_cell_length_c       6.939461708068848
_cell_angle_alpha    91.42000651594952
_cell_angle_beta     90.14969822737888
_cell_angle_gamma    104.85388396171892

_space_group_name_H-M_alt    "P 1"
_space_group_IT_number       1

loop_
  _space_group_symop_operation_xyz
  'x, y, z'

loop_
  _atom_site_type_symbol
  _atom_site_label
  _atom_site_symmetry_multiplicity
  _atom_site_fract_x
  _atom_site_fract_y
  _atom_site_fract_z
  _atom_site_occupancy
  Ga  Ga1       1.0  0.6946002840995789  0.4165659546852112  0.12708236277103424  1.0000
  Mg  Mg1       1.0  0.6571467518806458  0.6258549690246582  0.7948856949806213  1.0000
  O   O1        1.0  0.21809211373329163  0.9756449460983276  0.8170965313911438  1.0000
  P   P1        1.0  0.17886848747730255  0.6754708290100098  0.39589613676071167  1.0000
  Ru  Ru1       1.0  0.6887900233268738  0.5924501419067383  0.7914118766784668  1.0000
  Ru  Ru2       1.0  0.18951880931854248  0.7418323159217834  0.03481752425432205  1.0000
  Ru  Ru3       1.0  0.6597325801849365  0.12363497912883759  0.25102245807647705  1.0000
  Ru  Ru4       1.0  0.15308760106563568  0.030012505128979683  0.7377524375915527  1.0000
  Ru  Ru5       1.0  0.17282213270664215  0.7622086405754089  0.1496148705482483  1.0000
  Ru  Ru6       1.0  0.6883947849273682  0.690194845199585  0.16537564992904663  1.0000
