data_image0
_chemical_formula_structural       ClGaLuRu5ZnZr
_chemical_formula_sum              "Cl1 Ga1 Lu1 Ru5 Zn1 Zr1"
_cell_length_a       4.923014300279764
_cell_length_b       5.669797237152047
_cell_length_c       5.9882283210754395
_cell_angle_alpha    117.49738158444936
_cell_angle_beta     95.7372853157852
_cell_angle_gamma    91.30462976105127

_space_group_name_H-M_alt    "P 1"
_space_group_IT_number       1

loop_
  _space_group_symop_operation_xyz
  'x, y, z'

loop_
  _atom_site_type_symbol
  _atom_site_label
  _atom_site_symmetry_multiplicity
  _atom_site_fract_x
  _atom_site_fract_y
  _atom_site_fract_z
  _atom_site_occupancy
  Cl  Cl1       1.0  0.23925483226776123  0.34695547819137573  0.5337019562721252  1.0000
  Ga  Ga1       1.0  0.7205421328544617  0.569364070892334  0.48204752802848816  1.0000
  Lu  Lu1       1.0  0.21679265797138214  0.34229516983032227  0.01985739730298519  1.0000
  Ru  Ru1       1.0  0.7191766500473022  0.9948564767837524  0.24471375346183777  1.0000
  Ru  Ru2       1.0  0.2240077257156372  0.1377250701189041  0.4198063015937805  1.0000
  Ru  Ru3       1.0  0.21901221573352814  0.9782030582427979  0.23792816698551178  1.0000
  Ru  Ru4       1.0  0.22479067742824554  0.836836576461792  0.9403090476989746  1.0000
  Ru  Ru5       1.0  0.7215498089790344  0.6217107176780701  0.0005064819124527414  1.0000
  Zn  Zn1       1.0  0.720855176448822  0.6232848763465881  0.20369680225849152  1.0000
  Zr  Zr1       1.0  0.22494447231292725  0.6998261213302612  0.24378517270088196  1.0000
