data_image0
_chemical_formula_structural       ClRu9
_chemical_formula_sum              "Cl1 Ru9"
_cell_length_a       4.586236042632497
_cell_length_b       5.4255151941052935
_cell_length_c       6.237391471862793
_cell_angle_alpha    111.43596006069406
_cell_angle_beta     88.80779213355588
_cell_angle_gamma    91.42085864177749

_space_group_name_H-M_alt    "P 1"
_space_group_IT_number       1

loop_
  _space_group_symop_operation_xyz
  'x, y, z'

loop_
  _atom_site_type_symbol
  _atom_site_label
  _atom_site_symmetry_multiplicity
  _atom_site_fract_x
  _atom_site_fract_y
  _atom_site_fract_z
  _atom_site_occupancy
  Cl  Cl1       1.0  0.08368851244449615  0.09909792989492416  0.04772409424185753  1.0000
  Ru  Ru1       1.0  0.5929465293884277  0.05192704126238823  0.5701544284820557  1.0000
  Ru  Ru2       1.0  0.5906291007995605  0.27649810910224915  0.9049574136734009  1.0000
  Ru  Ru3       1.0  0.09370666742324829  0.986362099647522  0.7633760571479797  1.0000
  Ru  Ru4       1.0  0.5943266749382019  0.9179793000221252  0.7973390221595764  1.0000
  Ru  Ru5       1.0  0.0985470861196518  0.0726257935166359  0.10416100919246674  1.0000
  Ru  Ru6       1.0  0.5923892855644226  0.0671127662062645  0.42716702818870544  1.0000
  Ru  Ru7       1.0  0.09087453037500381  0.3532010614871979  0.22006121277809143  1.0000
  Ru  Ru8       1.0  0.09413357079029083  0.008650312200188637  0.7993942499160767  1.0000
  Ru  Ru9       1.0  0.5935825109481812  0.19595566391944885  0.8866480588912964  1.0000
