data_image0
_chemical_formula_structural       ClRu9
_chemical_formula_sum              "Cl1 Ru9"
_cell_length_a       4.135717564549631
_cell_length_b       4.7118392196619405
_cell_length_c       5.084440231323242
_cell_angle_alpha    111.1001276865045
_cell_angle_beta     90.27425696416528
_cell_angle_gamma    90.78232060820694

_space_group_name_H-M_alt    "P 1"
_space_group_IT_number       1

loop_
  _space_group_symop_operation_xyz
  'x, y, z'

loop_
  _atom_site_type_symbol
  _atom_site_label
  _atom_site_symmetry_multiplicity
  _atom_site_fract_x
  _atom_site_fract_y
  _atom_site_fract_z
  _atom_site_occupancy
  Cl  Cl1       1.0  0.43179646134376526  0.2190506011247635  0.7636563777923584  1.0000
  Ru  Ru1       1.0  0.9318134188652039  0.6389324069023132  0.29428562521934504  1.0000
  Ru  Ru2       1.0  0.9317121505737305  0.9719828963279724  0.6679507493972778  1.0000
  Ru  Ru3       1.0  0.4328896105289459  0.8246927857398987  0.3966705799102783  1.0000
  Ru  Ru4       1.0  0.9331062436103821  0.741702675819397  0.5202227234840393  1.0000
  Ru  Ru5       1.0  0.43386712670326233  0.33926641941070557  0.5643090605735778  1.0000
  Ru  Ru6       1.0  0.4313119649887085  0.0020271248649805784  0.3497866988182068  1.0000
  Ru  Ru7       1.0  0.9334779977798462  0.3410337567329407  0.8161391615867615  1.0000
  Ru  Ru8       1.0  0.9348312616348267  0.8356688618659973  0.9530695676803589  1.0000
  Ru  Ru9       1.0  0.4310237169265747  0.05288315191864967  0.8541821837425232  1.0000
