data_image0
_chemical_formula_structural       InLa8P
_chemical_formula_sum              "In1 La8 P1"
_cell_length_a       5.438870269530896
_cell_length_b       6.607125236456496
_cell_length_c       8.36558723449707
_cell_angle_alpha    118.44928781422662
_cell_angle_beta     108.70948949972724
_cell_angle_gamma    90.56711818086332

_space_group_name_H-M_alt    "P 1"
_space_group_IT_number       1

loop_
  _space_group_symop_operation_xyz
  'x, y, z'

loop_
  _atom_site_type_symbol
  _atom_site_label
  _atom_site_symmetry_multiplicity
  _atom_site_fract_x
  _atom_site_fract_y
  _atom_site_fract_z
  _atom_site_occupancy
  In  In1       1.0  0.5874668955802917  0.27474644780158997  0.8222455382347107  1.0000
  La  La1       1.0  0.10469898581504822  0.8150907754898071  0.4141618311405182  1.0000
  La  La2       1.0  0.0864778682589531  0.2066487818956375  0.315926194190979  1.0000
  La  La3       1.0  0.11146803945302963  0.9520431160926819  0.6898974776268005  1.0000
  La  La4       1.0  0.5781829953193665  0.1798757165670395  0.9186142086982727  1.0000
  La  La5       1.0  0.10185002535581589  0.38900521397590637  0.017813891172409085  1.0000
  La  La6       1.0  0.09470360726118088  0.06268790364265442  0.4595837891101837  1.0000
  La  La7       1.0  0.5915041565895081  0.14810943603515625  0.9390352964401245  1.0000
  La  La8       1.0  0.6112136840820312  0.5354917645454407  0.5341487526893616  1.0000
  P   P1        1.0  0.09925737231969833  0.8468431830406189  0.1921403408050537  1.0000
