data_image0
_chemical_formula_structural       GaILa5PTiU
_chemical_formula_sum              "Ga1 I1 La5 P1 Ti1 U1"
_cell_length_a       5.93472652332662
_cell_length_b       7.8347475788721574
_cell_length_c       9.742668151855469
_cell_angle_alpha    117.62520188573382
_cell_angle_beta     95.59262184878598
_cell_angle_gamma    93.58776296680955

_space_group_name_H-M_alt    "P 1"
_space_group_IT_number       1

loop_
  _space_group_symop_operation_xyz
  'x, y, z'

loop_
  _atom_site_type_symbol
  _atom_site_label
  _atom_site_symmetry_multiplicity
  _atom_site_fract_x
  _atom_site_fract_y
  _atom_site_fract_z
  _atom_site_occupancy
  Ga  Ga1       1.0  0.7736229300498964  0.4154817759990692  0.20288777351379397  1.0000
  I   I1        1.0  0.276595801115036  0.4240456819534302  0.3707854151725769  1.0000
  La  La1       1.0  0.7786319851875306  0.130121111869812  0.15540926158428192  1.0000
  La  La2       1.0  0.775643289089203  0.22432026267051697  0.5772185921669006  1.0000
  La  La3       1.0  0.2742725908756256  0.4853675663471222  0.6857705116271973  1.0000
  La  La4       1.0  0.7802829742431642  0.4818135201931  0.49078866839408875  1.0000
  La  La5       1.0  0.7721024155616761  0.9785017967224121  0.09273772686719894  1.0000
  P   P1        1.0  0.2756999135017395  0.21900437772274017  0.5057016015052795  1.0000
  Ti  Ti1       1.0  0.28145357966423035  0.27770864963531494  0.41095128655433655  1.0000
  U   U1        1.0  0.04328782483935357  0.5415452122688293  0.6182448267936707  1.0000
