data_image0
_chemical_formula_structural       La10
_chemical_formula_sum              "La10"
_cell_length_a       6.2966009222661095
_cell_length_b       5.222372229897796
_cell_length_c       7.498200416564941
_cell_angle_alpha    111.02429886148691
_cell_angle_beta     111.28030282697004
_cell_angle_gamma    133.76344368941554

_space_group_name_H-M_alt    "P 1"
_space_group_IT_number       1

loop_
  _space_group_symop_operation_xyz
  'x, y, z'

loop_
  _atom_site_type_symbol
  _atom_site_label
  _atom_site_symmetry_multiplicity
  _atom_site_fract_x
  _atom_site_fract_y
  _atom_site_fract_z
  _atom_site_occupancy
  La  La1       1.0  0.8355687260627747  0.65170955657959  0.6494798660278321  1.0000
  La  La2       1.0  0.29549589753150957  0.8851492404937746  0.7879652976989747  1.0000
  La  La3       1.0  0.3598288595676424  0.33295804262161277  0.6301990151405336  1.0000
  La  La4       1.0  0.3969483673572541  0.69159734249115  0.33666554093360906  1.0000
  La  La5       1.0  0.3034545481204987  0.8021868467330934  0.0064414455555380475  1.0000
  La  La6       1.0  0.5523182153701783  0.6301763057708741  0.887280821800232  1.0000
  La  La7       1.0  0.9208024740219116  0.3165414929389953  0.5954788327217102  1.0000
  La  La8       1.0  0.47466415166854836  0.8098194599151608  0.8425508737564086  1.0000
  La  La9       1.0  0.6002368927001953  0.7374553084373474  0.29969719052314764  1.0000
  La  La10      1.0  0.8446012139320374  0.7540008425712584  0.9650062918663025  1.0000
