data_image0
_chemical_formula_structural       La10
_chemical_formula_sum              "La10"
_cell_length_a       5.126475372758415
_cell_length_b       4.934851121079529
_cell_length_c       8.63749885559082
_cell_angle_alpha    99.628692481022
_cell_angle_beta     112.97932630735261
_cell_angle_gamma    95.27698513628677

_space_group_name_H-M_alt    "P 1"
_space_group_IT_number       1

loop_
  _space_group_symop_operation_xyz
  'x, y, z'

loop_
  _atom_site_type_symbol
  _atom_site_label
  _atom_site_symmetry_multiplicity
  _atom_site_fract_x
  _atom_site_fract_y
  _atom_site_fract_z
  _atom_site_occupancy
  La  La1       1.0  0.9761959314346313  0.6930475234985352  0.49437403678894043  1.0000
  La  La2       1.0  0.5185089111328125  0.36508050560951233  0.7896320223808289  1.0000
  La  La3       1.0  0.9824994802474976  0.6545826196670532  0.5481112599372864  1.0000
  La  La4       1.0  0.2654879093170166  0.9173306226730347  0.16107355058193207  1.0000
  La  La5       1.0  0.8443950414657593  0.42187097668647766  0.5218802094459534  1.0000
  La  La6       1.0  0.2815439999103546  0.28735241293907166  0.2994925379753113  1.0000
  La  La7       1.0  0.49084004759788513  0.4222443997859955  0.7346617579460144  1.0000
  La  La8       1.0  0.9830488562583923  0.6064536571502686  0.10108309239149094  1.0000
  La  La9       1.0  0.4833972156047821  0.8311423659324646  0.9357175230979919  1.0000
  La  La10      1.0  0.43458327651023865  0.37731754779815674  0.31386053562164307  1.0000
