data_image0
_chemical_formula_structural       GeInLa6PTb
_chemical_formula_sum              "Ge1 In1 La6 P1 Tb1"
_cell_length_a       7.115630863239118
_cell_length_b       7.472062607685319
_cell_length_c       8.398978233337402
_cell_angle_alpha    108.87576017368134
_cell_angle_beta     110.42843570494297
_cell_angle_gamma    104.7285008610715

_space_group_name_H-M_alt    "P 1"
_space_group_IT_number       1

loop_
  _space_group_symop_operation_xyz
  'x, y, z'

loop_
  _atom_site_type_symbol
  _atom_site_label
  _atom_site_symmetry_multiplicity
  _atom_site_fract_x
  _atom_site_fract_y
  _atom_site_fract_z
  _atom_site_occupancy
  Ge  Ge1       1.0  0.6905263662338257  0.30003076791763306  0.8741280436515808  1.0000
  In  In1       1.0  0.0038334177806973457  0.35414424538612366  0.5435404777526855  1.0000
  La  La1       1.0  0.5526900887489319  0.9205594658851624  0.8728716969490051  1.0000
  La  La2       1.0  0.2123357057571411  0.8652762174606323  0.7740061283111572  1.0000
  La  La3       1.0  0.8661997318267822  0.3950827717781067  0.11237893253564835  1.0000
  La  La4       1.0  0.18700820207595825  0.9662781953811646  0.3560362756252289  1.0000
  La  La5       1.0  0.18835841119289398  0.4855974614620209  0.7644389867782593  1.0000
  La  La6       1.0  0.38741129636764526  0.8197473287582397  0.8909642696380615  1.0000
  P   P1        1.0  0.6401711702346802  0.5706247687339783  0.6062989830970764  1.0000
  Tb  Tb1       1.0  0.7218858003616333  0.34226399660110474  0.3918050229549408  1.0000
