data_image0
_chemical_formula_structural       La9V
_chemical_formula_sum              "La9 V1"
_cell_length_a       5.5553898486349675
_cell_length_b       5.992453609456868
_cell_length_c       10.971915245056152
_cell_angle_alpha    112.70186092905016
_cell_angle_beta     102.43308170513791
_cell_angle_gamma    87.71470472496443

_space_group_name_H-M_alt    "P 1"
_space_group_IT_number       1

loop_
  _space_group_symop_operation_xyz
  'x, y, z'

loop_
  _atom_site_type_symbol
  _atom_site_label
  _atom_site_symmetry_multiplicity
  _atom_site_fract_x
  _atom_site_fract_y
  _atom_site_fract_z
  _atom_site_occupancy
  La  La1       1.0  0.48176446557044983  0.943568229675293  0.2268018126487732  1.0000
  La  La2       1.0  0.9858283996582031  0.6413363218307495  0.6796799898147583  1.0000
  La  La3       1.0  0.990439772605896  0.8985238075256348  0.488387793302536  1.0000
  La  La4       1.0  0.4851095378398895  0.5240228176116943  0.2752143442630768  1.0000
  La  La5       1.0  0.4892674386501312  0.5807961821556091  0.1284102201461792  1.0000
  La  La6       1.0  0.988806962966919  0.25921475887298584  0.3614223599433899  1.0000
  La  La7       1.0  0.48785898089408875  0.7436002492904663  0.9241579174995422  1.0000
  La  La8       1.0  0.9896844029426575  0.25074973702430725  0.8594449758529663  1.0000
  La  La9       1.0  0.48848146200180054  0.6294260621070862  0.4791487455368042  1.0000
  V   V1        1.0  0.989098072052002  0.5568922162055969  0.2801866829395294  1.0000
