data_image0
_chemical_formula_structural       As2HP6PdSbTiV
_chemical_formula_sum              "As2 H1 P6 Pd1 Sb1 Ti1 V1"
_cell_length_a       5.193934041483468
_cell_length_b       6.272439833310919
_cell_length_c       7.380419731140137
_cell_angle_alpha    121.41357742622908
_cell_angle_beta     89.87442070839188
_cell_angle_gamma    93.81279753782968

_space_group_name_H-M_alt    "P 1"
_space_group_IT_number       1

loop_
  _space_group_symop_operation_xyz
  'x, y, z'

loop_
  _atom_site_type_symbol
  _atom_site_label
  _atom_site_symmetry_multiplicity
  _atom_site_fract_x
  _atom_site_fract_y
  _atom_site_fract_z
  _atom_site_occupancy
  As  As1       1.0  0.14201195538043976  0.38180220127105713  0.8603370189666748  1.0000
  As  As2       1.0  0.6559445261955261  0.6236261129379272  0.7834895849227905  1.0000
  H   H1        1.0  0.13838553428649902  0.7460645437240601  0.7721982598304749  1.0000
  P   P1        1.0  0.6519138216972351  0.1369507610797882  0.4779792428016663  1.0000
  P   P2        1.0  0.6384609341621399  0.007901995442807674  0.7846623659133911  1.0000
  P   P3        1.0  0.17502832412719727  0.2734612822532654  0.9279347062110901  1.0000
  P   P4        1.0  0.19501741230487823  0.09068301320075989  0.004430892411619425  1.0000
  P   P5        1.0  0.1370585709810257  0.028114287182688713  0.1313585340976715  1.0000
  P   P6        1.0  0.17294864356517792  0.5840039849281311  0.6038736701011658  1.0000
  Pd  Pd1       1.0  0.15655507147312164  0.7291678190231323  0.3633363842964172  1.0000
  Sb  Sb1       1.0  0.6450186371803284  0.6813461184501648  0.9957018494606019  1.0000
  Ti  Ti1       1.0  0.6747425198554993  0.6002205610275269  0.9142528176307678  1.0000
  V   V1        1.0  0.9627888798713684  0.8214799761772156  0.4565902054309846  1.0000
