data_image0
_chemical_formula_structural       GeLi3OP6TiZr
_chemical_formula_sum              "Ge1 Li3 O1 P6 Ti1 Zr1"
_cell_length_a       5.885936743032222
_cell_length_b       6.244047584511903
_cell_length_c       7.567724227905273
_cell_angle_alpha    79.6948740995698
_cell_angle_beta     67.67832282133035
_cell_angle_gamma    67.67843663608592

_space_group_name_H-M_alt    "P 1"
_space_group_IT_number       1

loop_
  _space_group_symop_operation_xyz
  'x, y, z'

loop_
  _atom_site_type_symbol
  _atom_site_label
  _atom_site_symmetry_multiplicity
  _atom_site_fract_x
  _atom_site_fract_y
  _atom_site_fract_z
  _atom_site_occupancy
  Ge  Ge1       1.0  0.7135354280471802  0.47004127502441406  0.11465711891651154  1.0000
  Li  Li1       1.0  0.43733683228492737  0.20529049634933472  0.4473802447319031  1.0000
  Li  Li2       1.0  0.7101988196372986  0.8952139019966125  0.14385294914245605  1.0000
  Li  Li3       1.0  0.4251362979412079  0.505521833896637  0.8094915151596069  1.0000
  O   O1        1.0  0.937471866607666  0.24150127172470093  0.7398363351821899  1.0000
  P   P1        1.0  0.01555243507027626  0.737262487411499  0.9983378648757935  1.0000
  P   P2        1.0  0.9648362398147583  0.5749216079711914  0.1836809515953064  1.0000
  P   P3        1.0  0.2089863270521164  0.9705933332443237  0.5951957106590271  1.0000
  P   P4        1.0  0.9771730303764343  0.26378026604652405  0.6625953912734985  1.0000
  P   P5        1.0  0.5137108564376831  0.7562651634216309  0.4907940924167633  1.0000
  P   P6        1.0  0.4606179893016815  0.17494802176952362  0.3264234960079193  1.0000
  Ti  Ti1       1.0  0.9857813119888306  0.12133035063743591  0.131111428141594  1.0000
  Zr  Zr1       1.0  0.4896823763847351  0.09892713278532028  0.48297613859176636  1.0000
