data_image0
_chemical_formula_structural       Li4Na2O4P3
_chemical_formula_sum              "Li4 Na2 O4 P3"
_cell_length_a       4.695885094510636
_cell_length_b       5.830754912526949
_cell_length_c       6.576205253601074
_cell_angle_alpha    112.98457141530042
_cell_angle_beta     103.65152164335747
_cell_angle_gamma    89.7143551260895

_space_group_name_H-M_alt    "P 1"
_space_group_IT_number       1

loop_
  _space_group_symop_operation_xyz
  'x, y, z'

loop_
  _atom_site_type_symbol
  _atom_site_label
  _atom_site_symmetry_multiplicity
  _atom_site_fract_x
  _atom_site_fract_y
  _atom_site_fract_z
  _atom_site_occupancy
  Li  Li1       1.0  0.5355814695358276  0.5283254384994507  0.8765842318534851  1.0000
  Li  Li2       1.0  0.5365504622459412  0.720217764377594  0.32402095198631287  1.0000
  Li  Li3       1.0  0.034708451479673386  0.8470868468284607  0.8618817925453186  1.0000
  Li  Li4       1.0  0.0314214788377285  0.5292479991912842  0.13183026015758517  1.0000
  Na  Na1       1.0  0.4846860468387604  0.430277556180954  0.4003133177757263  1.0000
  Na  Na2       1.0  0.4788435399532318  0.9771944284439087  0.08639223873615272  1.0000
  O   O1        1.0  0.5103894472122192  0.49235597252845764  0.10488031804561615  1.0000
  O   O2        1.0  0.521155595779419  0.6667109727859497  0.046559806913137436  1.0000
  O   O3        1.0  0.537123441696167  0.09485965967178345  0.8545469045639038  1.0000
  O   O4        1.0  0.5331557989120483  0.1399867683649063  0.588005781173706  1.0000
  P   P1        1.0  0.034070659428834915  0.786704957485199  0.8338614106178284  1.0000
  P   P2        1.0  0.014770261012017727  0.07774358242750168  0.970546841621399  1.0000
  P   P3        1.0  0.0174802765250206  0.5945635437965393  0.6851840019226074  1.0000
