data_image0
_chemical_formula_structural       LaLi4Na3NdO3P
_chemical_formula_sum              "La1 Li4 Na3 Nd1 O3 P1"
_cell_length_a       5.156616491095211
_cell_length_b       3.9335816229018783
_cell_length_c       6.641570568084717
_cell_angle_alpha    115.00406807125285
_cell_angle_beta     107.33117733316215
_cell_angle_gamma    131.6146431211402

_space_group_name_H-M_alt    "P 1"
_space_group_IT_number       1

loop_
  _space_group_symop_operation_xyz
  'x, y, z'

loop_
  _atom_site_type_symbol
  _atom_site_label
  _atom_site_symmetry_multiplicity
  _atom_site_fract_x
  _atom_site_fract_y
  _atom_site_fract_z
  _atom_site_occupancy
  La  La1       1.0  0.01338317617773987  0.5798914432525631  0.6240631937980651  1.0000
  Li  Li1       1.0  0.3615944683551789  0.8751619458198548  0.18925790488719946  1.0000
  Li  Li2       1.0  0.7622230052947998  0.9720792770385743  0.10095622390508657  1.0000
  Li  Li3       1.0  0.20527195930480924  0.4334822595119472  0.8368606567382811  1.0000
  Li  Li4       1.0  0.45980128645896906  0.2950272858142853  0.130801722407341  1.0000
  Na  Na1       1.0  0.4573497176170348  0.9689314365386962  0.9380924105644226  1.0000
  Na  Na2       1.0  0.30877918004989624  0.9689439535140991  0.2179825007915497  1.0000
  Na  Na3       1.0  0.9667060375213621  0.11141750216484039  0.6748371720314025  1.0000
  Nd  Nd1       1.0  0.8478692770004272  0.9615511298179628  0.1868272870779038  1.0000
  O   O1        1.0  0.6126872301101685  0.3961786627769471  0.595397412776947  1.0000
  O   O2        1.0  0.14951774477958657  0.2557878494262692  0.8932020068168639  1.0000
  O   O3        1.0  0.9090373516082763  0.8017059564590453  0.4142867624759674  1.0000
  P   P1        1.0  0.2569533884525299  0.6070730686187744  0.18215395510196689  1.0000
