data_image0
_chemical_formula_structural       HLi4O2P5V
_chemical_formula_sum              "H1 Li4 O2 P5 V1"
_cell_length_a       4.679698009972705
_cell_length_b       5.7900664503437
_cell_length_c       7.265452861785889
_cell_angle_alpha    93.55890812784922
_cell_angle_beta     87.12937067209923
_cell_angle_gamma    112.77821461703923

_space_group_name_H-M_alt    "P 1"
_space_group_IT_number       1

loop_
  _space_group_symop_operation_xyz
  'x, y, z'

loop_
  _atom_site_type_symbol
  _atom_site_label
  _atom_site_symmetry_multiplicity
  _atom_site_fract_x
  _atom_site_fract_y
  _atom_site_fract_z
  _atom_site_occupancy
  H   H1        1.0  0.9157842993736268  0.5737560987472534  0.5687078833580017  1.0000
  Li  Li1       1.0  0.9152048230171205  0.22343195974826816  0.18931210041046143  1.0000
  Li  Li2       1.0  0.4610200226306916  0.6798772215843201  0.7926338911056519  1.0000
  Li  Li3       1.0  0.5712319612503052  0.31093472242355347  0.8236430883407593  1.0000
  Li  Li4       1.0  0.6625579595565796  0.3529270589351654  0.47640442848205566  1.0000
  O   O1        1.0  0.7347556948661804  0.6211631298065186  0.01246064994484186  1.0000
  O   O2        1.0  0.22478657960891726  0.5731509327888489  0.8386127352714539  1.0000
  P   P1        1.0  0.7800132632255554  0.4166167676448822  0.36298051476478577  1.0000
  P   P2        1.0  0.37907904386520386  0.3754613697528839  0.7324758172035217  1.0000
  P   P3        1.0  0.9391456246376039  0.6744981408119202  0.08790946006774902  1.0000
  P   P4        1.0  0.06370686739683151  0.7197365164756775  0.26933351159095764  1.0000
  P   P5        1.0  0.32779785990715027  0.587479829788208  0.9300567507743835  1.0000
  V   V1        1.0  0.3359304666519165  0.5436887741088867  0.21668113768100739  1.0000
