data_image0
_chemical_formula_structural       Ge2Li5OP5
_chemical_formula_sum              "Ge2 Li5 O1 P5"
_cell_length_a       4.542871607276052
_cell_length_b       6.337243124093853
_cell_length_c       7.540958881378174
_cell_angle_alpha    102.66086739328614
_cell_angle_beta     88.21901072851566
_cell_angle_gamma    92.20251416550072

_space_group_name_H-M_alt    "P 1"
_space_group_IT_number       1

loop_
  _space_group_symop_operation_xyz
  'x, y, z'

loop_
  _atom_site_type_symbol
  _atom_site_label
  _atom_site_symmetry_multiplicity
  _atom_site_fract_x
  _atom_site_fract_y
  _atom_site_fract_z
  _atom_site_occupancy
  Ge  Ge1       1.0  0.2095988541841507  0.35515865683555603  0.11881498247385025  1.0000
  Ge  Ge2       1.0  0.6674031019210815  0.21380522847175598  0.9586003422737122  1.0000
  Li  Li1       1.0  0.7084525227546692  0.7275676727294922  0.83540278673172  1.0000
  Li  Li2       1.0  0.21433772146701813  0.4432545304298401  0.6986377835273743  1.0000
  Li  Li3       1.0  0.6975653767585754  0.7582376003265381  0.3558736741542816  1.0000
  Li  Li4       1.0  0.1503504365682602  0.6738433241844177  0.022537685930728912  1.0000
  Li  Li5       1.0  0.18570710718631744  0.021930916234850883  0.3849591016769409  1.0000
  O   O1        1.0  0.5742069482803345  0.6368958950042725  0.2302209585905075  1.0000
  P   P1        1.0  0.6814588904380798  0.20272839069366455  0.5435036420822144  1.0000
  P   P2        1.0  0.6912151575088501  0.8263188004493713  0.6233710646629333  1.0000
  P   P3        1.0  0.1856391727924347  0.41858476400375366  0.6415552496910095  1.0000
  P   P4        1.0  0.6862413883209229  0.30549103021621704  0.354826420545578  1.0000
  P   P5        1.0  0.18330277502536774  0.8363869190216064  0.36978626251220703  1.0000
