data_image0
_chemical_formula_structural       MgMn3Sb3
_chemical_formula_sum              "Mg1 Mn3 Sb3"
_cell_length_a       4.851940430334269
_cell_length_b       5.284717807616942
_cell_length_c       6.117087364196777
_cell_angle_alpha    89.6561457045569
_cell_angle_beta     89.57526608864059
_cell_angle_gamma    98.50051318544651

_space_group_name_H-M_alt    "P 1"
_space_group_IT_number       1

loop_
  _space_group_symop_operation_xyz
  'x, y, z'

loop_
  _atom_site_type_symbol
  _atom_site_label
  _atom_site_symmetry_multiplicity
  _atom_site_fract_x
  _atom_site_fract_y
  _atom_site_fract_z
  _atom_site_occupancy
  Mg  Mg1       1.0  0.27786198258399963  0.7204453349113464  0.10411909222602844  1.0000
  Mn  Mn1       1.0  0.27746137976646423  0.2810558080673218  0.4360756278038025  1.0000
  Mn  Mn2       1.0  0.7779576778411865  0.758927047252655  0.2313772439956665  1.0000
  Mn  Mn3       1.0  0.2770695686340332  0.2566964030265808  0.4720194935798645  1.0000
  Sb  Sb1       1.0  0.7860558032989502  0.6080849766731262  0.2749404013156891  1.0000
  Sb  Sb2       1.0  0.27699312567710876  0.9064657688140869  0.6049047112464905  1.0000
  Sb  Sb3       1.0  0.2712971866130829  0.9260804057121277  0.5698100924491882  1.0000
