data_image0
_chemical_formula_structural       AsIMn2PbSbTb
_chemical_formula_sum              "As1 I1 Mn2 Pb1 Sb1 Tb1"
_cell_length_a       6.60157725825533
_cell_length_b       6.885954286608061
_cell_length_c       7.06316614151001
_cell_angle_alpha    68.40110608841387
_cell_angle_beta     61.11759205268975
_cell_angle_gamma    61.168075659502726

_space_group_name_H-M_alt    "P 1"
_space_group_IT_number       1

loop_
  _space_group_symop_operation_xyz
  'x, y, z'

loop_
  _atom_site_type_symbol
  _atom_site_label
  _atom_site_symmetry_multiplicity
  _atom_site_fract_x
  _atom_site_fract_y
  _atom_site_fract_z
  _atom_site_occupancy
  As  As1       1.0  0.8250941038131714  0.2839542627334595  0.6344861388206482  1.0000
  I   I1        1.0  0.1395183801651001  0.5963336229324341  0.04663646221160889  1.0000
  Mn  Mn1       1.0  0.2069542407989502  0.09715750068426132  0.48453620076179504  1.0000
  Mn  Mn2       1.0  0.6952546834945679  0.06105361506342888  0.9663864374160767  1.0000
  Pb  Pb1       1.0  0.3361685872077942  0.8497851490974426  0.42033177614212036  1.0000
  Sb  Sb1       1.0  0.340991735458374  0.2361738383769989  0.32951098680496216  1.0000
  Tb  Tb1       1.0  0.7436222434043884  0.3748894929885864  0.5811071991920471  1.0000
