data_image0
_chemical_formula_structural       AsCsGaGeIOPbSe2Zr2
_chemical_formula_sum              "As1 Cs1 Ga1 Ge1 I1 O1 Pb1 Se2 Zr2"
_cell_length_a       5.730117892256837
_cell_length_b       7.002359915315183
_cell_length_c       8.182689666748047
_cell_angle_alpha    82.22421295132426
_cell_angle_beta     72.77075166400516
_cell_angle_gamma    70.36061731346025

_space_group_name_H-M_alt    "P 1"
_space_group_IT_number       1

loop_
  _space_group_symop_operation_xyz
  'x, y, z'

loop_
  _atom_site_type_symbol
  _atom_site_label
  _atom_site_symmetry_multiplicity
  _atom_site_fract_x
  _atom_site_fract_y
  _atom_site_fract_z
  _atom_site_occupancy
  As  As1       1.0  0.22662070393562317  0.36805400252342224  0.08532533049583435  1.0000
  Cs  Cs1       1.0  0.2343272864818573  0.09913598001003265  0.9477402567863463  1.0000
  Ga  Ga1       1.0  0.7379043102264404  0.41832107305526733  0.33526477217674255  1.0000
  Ge  Ge1       1.0  0.7395761609077454  0.89139062166214  0.31169840693473816  1.0000
  I   I1        1.0  0.2334892600774765  0.015555226244032385  0.4798069298267365  1.0000
  O   O1        1.0  0.7472482323646545  0.5415583252906799  0.32621780037879944  1.0000
  Pb  Pb1       1.0  0.23995363712310788  0.8936232924461366  0.5230251550674438  1.0000
  Se  Se1       1.0  0.24740797281265256  0.9125362634658815  0.6206398010253906  1.0000
  Se  Se2       1.0  0.73247891664505  0.9393344521522523  0.15215159952640533  1.0000
  Zr  Zr1       1.0  0.7451133131980896  0.4949291050434113  0.4252268671989441  1.0000
  Zr  Zr2       1.0  0.24059675633907318  0.16299833357334137  0.2960836887359619  1.0000
