data_image0
_chemical_formula_structural       AsCoCsGeHIn2PbSeTbV
_chemical_formula_sum              "As1 Co1 Cs1 Ge1 H1 In2 Pb1 Se1 Tb1 V1"
_cell_length_a       4.507426070446849
_cell_length_b       6.976707113793011
_cell_length_c       9.073062896728516
_cell_angle_alpha    89.57988837551511
_cell_angle_beta     90.80007882296624
_cell_angle_gamma    93.7976369897657

_space_group_name_H-M_alt    "P 1"
_space_group_IT_number       1

loop_
  _space_group_symop_operation_xyz
  'x, y, z'

loop_
  _atom_site_type_symbol
  _atom_site_label
  _atom_site_symmetry_multiplicity
  _atom_site_fract_x
  _atom_site_fract_y
  _atom_site_fract_z
  _atom_site_occupancy
  As  As1       1.0  0.8010777235031128  0.8972514867782593  0.6647802591323853  1.0000
  Co  Co1       1.0  0.7812072038650513  0.3254396319389343  0.17273028194904327  1.0000
  Cs  Cs1       1.0  0.5261809825897217  0.19117482006549835  0.7306717038154602  1.0000
  Ge  Ge1       1.0  0.5425084233283997  0.11781571060419083  0.9332250356674194  1.0000
  H   H1        1.0  0.5542469024658203  0.8324897885322571  0.5796975493431091  1.0000
  In  In1       1.0  0.049786318093538284  0.9269611835479736  0.5830190777778625  1.0000
  In  In2       1.0  0.5362412929534912  0.6868391036987305  0.46224716305732727  1.0000
  Pb  Pb1       1.0  0.02572597749531269  0.26532748341560364  0.9125017523765564  1.0000
  Se  Se1       1.0  0.17682120203971863  0.5227345824241638  0.4608619213104248  1.0000
  Tb  Tb1       1.0  0.2717735469341278  0.9661005735397339  0.8703106045722961  1.0000
  V   V1        1.0  0.4475426971912384  0.8083003163337708  0.9375296831130981  1.0000
