data_image0
_chemical_formula_structural       Cr7RhSe3
_chemical_formula_sum              "Cr7 Rh1 Se3"
_cell_length_a       6.1598082952247095
_cell_length_b       5.925867050283554
_cell_length_c       6.266249656677246
_cell_angle_alpha    63.10317672468092
_cell_angle_beta     61.015328906284815
_cell_angle_gamma    63.04227388269642

_space_group_name_H-M_alt    "P 1"
_space_group_IT_number       1

loop_
  _space_group_symop_operation_xyz
  'x, y, z'

loop_
  _atom_site_type_symbol
  _atom_site_label
  _atom_site_symmetry_multiplicity
  _atom_site_fract_x
  _atom_site_fract_y
  _atom_site_fract_z
  _atom_site_occupancy
  Cr  Cr1       1.0  0.48124691843986517  0.24077579379081726  0.5677759647369384  1.0000
  Cr  Cr2       1.0  0.6935190558433533  0.3214414417743683  0.32913970947265614  1.0000
  Cr  Cr3       1.0  0.9776587486267091  0.9176990389823914  0.5793592929840088  1.0000
  Cr  Cr4       1.0  0.9831233620643617  0.40924182534217834  0.11320549994707106  1.0000
  Cr  Cr5       1.0  0.666043758392334  0.45320484042167664  0.8202099204063414  1.0000
  Cr  Cr6       1.0  0.48087570071220404  0.11762240529060364  0.5862603783607483  1.0000
  Cr  Cr7       1.0  0.9895856380462648  0.7730353474617004  0.45152181386947626  1.0000
  Rh  Rh1       1.0  0.9765436053276063  0.34998366236686707  0.6328855156898496  1.0000
  Se  Se1       1.0  0.4848058223724366  0.5813312530517578  0.8340188860893248  1.0000
  Se  Se2       1.0  0.20077294111251834  0.33809807896614075  0.42142978310585016  1.0000
  Se  Se3       1.0  0.6900501251220703  0.8725705146789551  0.9282293319702147  1.0000
