data_image0
_chemical_formula_structural       AsH2Pd2Se3Tb2Zn
_chemical_formula_sum              "As1 H2 Pd2 Se3 Tb2 Zn1"
_cell_length_a       4.194461360211299
_cell_length_b       6.773827223321323
_cell_length_c       7.118067264556885
_cell_angle_alpha    119.42701812004277
_cell_angle_beta     87.94468269218234
_cell_angle_gamma    89.26373219596019

_space_group_name_H-M_alt    "P 1"
_space_group_IT_number       1

loop_
  _space_group_symop_operation_xyz
  'x, y, z'

loop_
  _atom_site_type_symbol
  _atom_site_label
  _atom_site_symmetry_multiplicity
  _atom_site_fract_x
  _atom_site_fract_y
  _atom_site_fract_z
  _atom_site_occupancy
  As  As1       1.0  0.07126033306121826  0.6188895106315613  0.21099069714546204  1.0000
  H   H1        1.0  0.5731534361839294  0.06455610692501068  0.9110469818115234  1.0000
  H   H2        1.0  0.5691574215888977  0.07149120420217514  0.6058877110481262  1.0000
  Pd  Pd1       1.0  0.5737651586532593  0.9132940769195556  0.36164939403533936  1.0000
  Pd  Pd2       1.0  0.5722072124481201  0.3888554573059082  0.022204440087080002  1.0000
  Se  Se1       1.0  0.07510427385568619  0.6882259249687195  0.988598644733429  1.0000
  Se  Se2       1.0  0.07494357973337173  0.628578245639801  0.06704067438840866  1.0000
  Se  Se3       1.0  0.5724721550941467  0.08941537886857986  0.35917800664901733  1.0000
  Tb  Tb1       1.0  0.5682918429374695  0.35057640075683594  0.2033366858959198  1.0000
  Tb  Tb2       1.0  0.0680907741189003  0.5787971615791321  0.6902270913124084  1.0000
  Zn  Zn1       1.0  0.06834672391414642  0.5659072399139404  0.2740073502063751  1.0000
