data_image0
_chemical_formula_structural       Cr8Se3
_chemical_formula_sum              "Cr8 Se3"
_cell_length_a       3.8754243658869596
_cell_length_b       4.332443719556361
_cell_length_c       7.461200714111328
_cell_angle_alpha    109.31721193261181
_cell_angle_beta     86.44002524421009
_cell_angle_gamma    85.59713139876722

_space_group_name_H-M_alt    "P 1"
_space_group_IT_number       1

loop_
  _space_group_symop_operation_xyz
  'x, y, z'

loop_
  _atom_site_type_symbol
  _atom_site_label
  _atom_site_symmetry_multiplicity
  _atom_site_fract_x
  _atom_site_fract_y
  _atom_site_fract_z
  _atom_site_occupancy
  Cr  Cr1       1.0  0.3578741252422333  0.4203255772590637  0.31860393285751337  1.0000
  Cr  Cr2       1.0  0.5903388857841492  0.8649300336837769  0.18032900989055634  1.0000
  Cr  Cr3       1.0  0.8707850575447083  0.46197691559791565  0.8609659671783446  1.0000
  Cr  Cr4       1.0  0.8662344217300415  0.8316954970359802  0.7189391255378722  1.0000
  Cr  Cr5       1.0  0.36583638191223145  0.7601498365402222  0.6415749192237853  1.0000
  Cr  Cr6       1.0  0.3575778007507324  0.1905381679534912  0.9685654640197753  1.0000
  Cr  Cr7       1.0  0.33635157346725464  0.6604738831520081  0.0018405084265396146  1.0000
  Cr  Cr8       1.0  0.8722379207611084  0.652550220489502  0.8961336612701415  1.0000
  Se  Se1       1.0  0.8671713471412659  0.8790029287338257  0.48646953701972956  1.0000
  Se  Se2       1.0  0.8081924915313721  0.4925781786441803  0.07823513448238374  1.0000
  Se  Se3       1.0  0.3123534619808197  0.5104705691337585  0.6753694415092467  1.0000
