data_image0
_chemical_formula_structural       GeIPPbRuSSe2V2Zr
_chemical_formula_sum              "Ge1 I1 P1 Pb1 Ru1 S1 Se2 V2 Zr1"
_cell_length_a       4.243680699204792
_cell_length_b       7.524150532648336
_cell_length_c       8.015250205993652
_cell_angle_alpha    91.85783169009406
_cell_angle_beta     91.30757740711289
_cell_angle_gamma    90.47374706246744

_space_group_name_H-M_alt    "P 1"
_space_group_IT_number       1

loop_
  _space_group_symop_operation_xyz
  'x, y, z'

loop_
  _atom_site_type_symbol
  _atom_site_label
  _atom_site_symmetry_multiplicity
  _atom_site_fract_x
  _atom_site_fract_y
  _atom_site_fract_z
  _atom_site_occupancy
  Ge  Ge1       1.0  0.8550604581832886  0.2382970303297043  0.5986473560333252  1.0000
  I   I1        1.0  0.3433428406715393  0.7546637654304506  0.003970443736761808  1.0000
  P   P1        1.0  0.8602277040481567  0.33147370815277105  0.5012639760971069  1.0000
  Pb  Pb1       1.0  0.8561418652534485  0.16857542097568515  0.2246815711259842  1.0000
  Ru  Ru1       1.0  0.3498343527317047  0.4130637645721436  0.44731655716896057  1.0000
  S   S1        1.0  0.3614092767238617  0.5080292224884033  0.3785341680049896  1.0000
  Se  Se1       1.0  0.3543669581413269  0.9995042681694032  0.9155376553535461  1.0000
  Se  Se2       1.0  0.3638095259666443  0.13026069104671478  0.652768611907959  1.0000
  V   V1        1.0  0.3429605960845947  0.8491555452346803  0.21893839538097382  1.0000
  V   V2        1.0  0.35806378722190857  0.45776662230491644  0.5613812804222107  1.0000
  Zr  Zr1       1.0  0.858166515827179  0.07122586667537689  0.8561473488807678  1.0000
