data_image0
_chemical_formula_structural       Al2Nb4Zr
_chemical_formula_sum              "Al2 Nb4 Zr1"
_cell_length_a       5.014878453987297
_cell_length_b       4.918084535150118
_cell_length_c       4.85169792175293
_cell_angle_alpha    58.920866412333076
_cell_angle_beta     59.27829177547714
_cell_angle_gamma    59.25641826382771

_space_group_name_H-M_alt    "P 1"
_space_group_IT_number       1

loop_
  _space_group_symop_operation_xyz
  'x, y, z'

loop_
  _atom_site_type_symbol
  _atom_site_label
  _atom_site_symmetry_multiplicity
  _atom_site_fract_x
  _atom_site_fract_y
  _atom_site_fract_z
  _atom_site_occupancy
  Al  Al1       1.0  0.5343078374862671  0.8924357891082763  0.7956447601318359  1.0000
  Al  Al2       1.0  0.34295466542243963  0.9172967672348021  0.795982837677002  1.0000
  Nb  Nb1       1.0  0.6368389129638672  0.9520802497863768  0.6681690216064453  1.0000
  Nb  Nb2       1.0  0.3410083055496216  0.11926017701625823  0.47970747947692877  1.0000
  Nb  Nb3       1.0  0.35137939453125  0.438823252916336  0.02238377556204796  1.0000
  Nb  Nb4       1.0  0.8736380338668823  0.45879766345024103  0.27712488174438477  1.0000
  Zr  Zr1       1.0  0.8760077357292175  0.44199886918067927  0.00494607025757432  1.0000
