data_image0
_chemical_formula_structural       Al2Nb4S
_chemical_formula_sum              "Al2 Nb4 S1"
_cell_length_a       5.216488571564583
_cell_length_b       5.321374735323032
_cell_length_c       5.865787029266357
_cell_angle_alpha    63.705793260506475
_cell_angle_beta     62.0546003071321
_cell_angle_gamma    61.60277805440619

_space_group_name_H-M_alt    "P 1"
_space_group_IT_number       1

loop_
  _space_group_symop_operation_xyz
  'x, y, z'

loop_
  _atom_site_type_symbol
  _atom_site_label
  _atom_site_symmetry_multiplicity
  _atom_site_fract_x
  _atom_site_fract_y
  _atom_site_fract_z
  _atom_site_occupancy
  Al  Al1       1.0  0.0007295608520507812  0.37542539834976196  0.36124545335769653  1.0000
  Al  Al2       1.0  0.5758910775184631  0.5511254072189331  0.06202280893921852  1.0000
  Nb  Nb1       1.0  0.009106622077524662  0.9421853423118591  0.6874426603317261  1.0000
  Nb  Nb2       1.0  0.42100271582603455  0.29186269640922546  0.014131329022347927  1.0000
  Nb  Nb3       1.0  0.40676411986351013  0.3070262670516968  0.6143864393234253  1.0000
  Nb  Nb4       1.0  0.42602285742759705  0.8000084161758423  0.6034764051437378  1.0000
  S   S1        1.0  0.760962188243866  0.5906789302825928  0.20318503677845  1.0000
