data_image0
_chemical_formula_structural       Al5Nb2
_chemical_formula_sum              "Al5 Nb2"
_cell_length_a       4.227984389709851
_cell_length_b       4.936885799288261
_cell_length_c       5.977849960327148
_cell_angle_alpha    78.86215385932218
_cell_angle_beta     70.34426598637909
_cell_angle_gamma    63.524652098375235

_space_group_name_H-M_alt    "P 1"
_space_group_IT_number       1

loop_
  _space_group_symop_operation_xyz
  'x, y, z'

loop_
  _atom_site_type_symbol
  _atom_site_label
  _atom_site_symmetry_multiplicity
  _atom_site_fract_x
  _atom_site_fract_y
  _atom_site_fract_z
  _atom_site_occupancy
  Al  Al1       1.0  0.6520833969116211  0.8031365871429443  0.08362363278865814  1.0000
  Al  Al2       1.0  0.9760695695877075  0.29520276188850403  0.9967914819717407  1.0000
  Al  Al3       1.0  0.9809852838516235  0.7975547313690186  0.33673179149627686  1.0000
  Al  Al4       1.0  0.4242019057273865  0.577116847038269  0.2773558795452118  1.0000
  Al  Al5       1.0  0.4244645833969116  0.04752872511744499  0.7761423587799072  1.0000
  Nb  Nb1       1.0  0.4313011169433594  0.27338123321533203  0.25763440132141113  1.0000
  Nb  Nb2       1.0  0.4304026961326599  0.2915642261505127  0.8053147792816162  1.0000
