data_image0
_chemical_formula_structural       F4O3S
_chemical_formula_sum              "F4 O3 S1"
_cell_length_a       5.489481589780926
_cell_length_b       5.56655094073531
_cell_length_c       6.225710391998291
_cell_angle_alpha    111.00292125459042
_cell_angle_beta     109.246914098148
_cell_angle_gamma    106.67721731112694

_space_group_name_H-M_alt    "P 1"
_space_group_IT_number       1

loop_
  _space_group_symop_operation_xyz
  'x, y, z'

loop_
  _atom_site_type_symbol
  _atom_site_label
  _atom_site_symmetry_multiplicity
  _atom_site_fract_x
  _atom_site_fract_y
  _atom_site_fract_z
  _atom_site_occupancy
  F   F1        1.0  0.407274067401886  0.7813066840171814  0.36293917894363403  1.0000
  F   F2        1.0  0.2025517076253891  0.5806375741958618  0.00814827065914873  1.0000
  F   F3        1.0  0.9322736263275146  0.5435068607330322  0.20440302789211273  1.0000
  F   F4        1.0  0.7097927927970886  0.301478773355484  0.9089597463607789  1.0000
  O   O1        1.0  0.2193271666765213  0.0338100828230381  0.11183743923902513  1.0000
  O   O2        1.0  0.06823745369911194  0.2984161078929901  0.6027776002883911  1.0000
  O   O3        1.0  0.4723849594593048  0.3706318736076355  0.7885008454322815  1.0000
  S   S1        1.0  0.8946186304092407  0.7678877711296082  0.1294587403535843  1.0000
