data_image0
_chemical_formula_structural       CaFI2Ni3SZr
_chemical_formula_sum              "Ca1 F1 I2 Ni3 S1 Zr1"
_cell_length_a       5.489162508969824
_cell_length_b       5.333700962650805
_cell_length_c       6.857507705688477
_cell_angle_alpha    89.58520075320529
_cell_angle_beta     89.1879601261144
_cell_angle_gamma    102.96898657733742

_space_group_name_H-M_alt    "P 1"
_space_group_IT_number       1

loop_
  _space_group_symop_operation_xyz
  'x, y, z'

loop_
  _atom_site_type_symbol
  _atom_site_label
  _atom_site_symmetry_multiplicity
  _atom_site_fract_x
  _atom_site_fract_y
  _atom_site_fract_z
  _atom_site_occupancy
  Ca  Ca1       1.0  0.9918996095657349  0.4223031997680664  0.829985499382019  1.0000
  F   F1        1.0  0.33107513189315796  0.9119625687599182  0.5928770899772644  1.0000
  I   I1        1.0  0.4792570471763611  0.1650172472000122  0.645919919013977  1.0000
  I   I2        1.0  0.7095023393630981  0.6865005493164062  0.7525050640106201  1.0000
  Ni  Ni1       1.0  0.48978185653686523  0.28947192430496216  0.938581645488739  1.0000
  Ni  Ni2       1.0  0.003607993945479393  0.5898758769035339  0.7513284683227539  1.0000
  Ni  Ni3       1.0  0.4872332811355591  0.08993206918239594  0.5675457119941711  1.0000
  S   S1        1.0  0.481630802154541  0.3723061680793762  0.68971848487854  1.0000
  Zr  Zr1       1.0  0.9787092208862305  0.7769055366516113  0.15812206268310547  1.0000
