data_image0
_chemical_formula_structural       I2Ni3PS2Zr
_chemical_formula_sum              "I2 Ni3 P1 S2 Zr1"
_cell_length_a       5.871294801737392
_cell_length_b       5.322605257093137
_cell_length_c       7.250068664550781
_cell_angle_alpha    89.50638008524011
_cell_angle_beta     89.6688643292896
_cell_angle_gamma    114.65460120510618

_space_group_name_H-M_alt    "P 1"
_space_group_IT_number       1

loop_
  _space_group_symop_operation_xyz
  'x, y, z'

loop_
  _atom_site_type_symbol
  _atom_site_label
  _atom_site_symmetry_multiplicity
  _atom_site_fract_x
  _atom_site_fract_y
  _atom_site_fract_z
  _atom_site_occupancy
  I   I1        1.0  0.6770395636558533  0.6388052105903625  0.22297681868076327  1.0000
  I   I2        1.0  0.16410230100154877  0.1292964071035385  0.8505350351333619  1.0000
  Ni  Ni1       1.0  0.9818587899208069  0.43021902441978455  0.026565231382846836  1.0000
  Ni  Ni2       1.0  0.8844878673553467  0.13069798052310944  0.6408334970474243  1.0000
  Ni  Ni3       1.0  0.18158365786075592  0.9637259840965271  0.8633475899696351  1.0000
  P   P1        1.0  0.4896141290664673  0.19843775033950806  0.8304893970489503  1.0000
  S   S1        1.0  0.4854167401790619  0.8607434034347534  0.8572357296943666  1.0000
  S   S2        1.0  0.4816633462905884  0.24329021573066711  0.11743964999914171  1.0000
  Zr  Zr1       1.0  0.9815413355827332  0.5486464500427246  0.6281132102012634  1.0000
