data_image0
_chemical_formula_structural       KNi5S3
_chemical_formula_sum              "K1 Ni5 S3"
_cell_length_a       5.1815787779562195
_cell_length_b       4.965538191782311
_cell_length_c       5.541700839996338
_cell_angle_alpha    60.43538491613207
_cell_angle_beta     60.47237644546362
_cell_angle_gamma    64.5879128429477

_space_group_name_H-M_alt    "P 1"
_space_group_IT_number       1

loop_
  _space_group_symop_operation_xyz
  'x, y, z'

loop_
  _atom_site_type_symbol
  _atom_site_label
  _atom_site_symmetry_multiplicity
  _atom_site_fract_x
  _atom_site_fract_y
  _atom_site_fract_z
  _atom_site_occupancy
  K   K1        1.0  0.700933039188385  0.95024573802948  0.8909381628036499  1.0000
  Ni  Ni1       1.0  0.10866096615791321  0.7706716656684875  0.06264713406562805  1.0000
  Ni  Ni2       1.0  0.6083377003669739  0.6883907318115234  0.03045518510043621  1.0000
  Ni  Ni3       1.0  0.344516783952713  0.09918314963579178  0.2316858172416687  1.0000
  Ni  Ni4       1.0  0.9000113010406494  0.7334768772125244  0.6461637020111084  1.0000
  Ni  Ni5       1.0  0.02710140310227871  0.9934108853340149  0.9257810115814209  1.0000
  S   S1        1.0  0.4399651885032654  0.5442469716072083  0.2794673442840576  1.0000
  S   S2        1.0  0.08577536791563034  0.7900024652481079  0.7254366278648376  1.0000
  S   S3        1.0  0.4018397927284241  0.10201895236968994  0.739029586315155  1.0000
