data_image0
_chemical_formula_structural       Al2HLiO6PtTlYb
_chemical_formula_sum              "Al2 H1 Li1 O6 Pt1 Tl1 Yb1"
_cell_length_a       5.000802515832761
_cell_length_b       6.29091357005845
_cell_length_c       5.939298629760742
_cell_angle_alpha    73.48434799234303
_cell_angle_beta     67.34912382358503
_cell_angle_gamma    66.61927937530933

_space_group_name_H-M_alt    "P 1"
_space_group_IT_number       1

loop_
  _space_group_symop_operation_xyz
  'x, y, z'

loop_
  _atom_site_type_symbol
  _atom_site_label
  _atom_site_symmetry_multiplicity
  _atom_site_fract_x
  _atom_site_fract_y
  _atom_site_fract_z
  _atom_site_occupancy
  Al  Al1       1.0  0.5233039259910583  0.86466646194458  0.8494240641593933  1.0000
  Al  Al2       1.0  0.8565793037414551  0.395275741815567  0.43823355436325073  1.0000
  H   H1        1.0  0.4559362530708313  0.4287805259227752  0.7307614684104919  1.0000
  Li  Li1       1.0  0.21414788067340856  0.9726462364196776  0.29181110858917236  1.0000
  O   O1        1.0  0.6779053211212158  0.8363796472549437  0.07228682190179825  1.0000
  O   O2        1.0  0.1866476982831955  0.7110982537269592  0.37478524446487427  1.0000
  O   O3        1.0  0.5485495924949646  0.6347344517707825  0.6897405385971069  1.0000
  O   O4        1.0  0.7924058437347412  0.0474320612847805  0.8046941757202148  1.0000
  O   O5        1.0  0.9937613606452942  0.37203142046928406  0.7757455110549927  1.0000
  O   O6        1.0  0.8861680626869202  0.9257596731185912  0.7796460390090942  1.0000
  Pt  Pt1       1.0  0.20976090431213384  0.8290318846702575  0.7277403473854065  1.0000
  Tl  Tl1       1.0  0.3363274931907654  0.5040238499641418  0.562955379486084  1.0000
  Yb  Yb1       1.0  0.05707373842597008  0.17515787482261658  0.8815032243728638  1.0000
