data_image0
_chemical_formula_structural       H2Li3O4PtTl3
_chemical_formula_sum              "H2 Li3 O4 Pt1 Tl3"
_cell_length_a       6.515223541425134
_cell_length_b       6.647745749855906
_cell_length_c       6.5737504959106445
_cell_angle_alpha    60.52422059229447
_cell_angle_beta     60.71348502853112
_cell_angle_gamma    59.9312307971012

_space_group_name_H-M_alt    "P 1"
_space_group_IT_number       1

loop_
  _space_group_symop_operation_xyz
  'x, y, z'

loop_
  _atom_site_type_symbol
  _atom_site_label
  _atom_site_symmetry_multiplicity
  _atom_site_fract_x
  _atom_site_fract_y
  _atom_site_fract_z
  _atom_site_occupancy
  H   H1        1.0  0.44927331805229187  0.2273474633693695  0.31854599714279175  1.0000
  H   H2        1.0  0.9502195715904236  0.21229027211666107  0.7384389638900757  1.0000
  Li  Li1       1.0  0.6457958221435547  0.16066612303256989  0.7477107048034668  1.0000
  Li  Li2       1.0  0.08561565726995468  0.662033200263977  0.7517278790473938  1.0000
  Li  Li3       1.0  0.4221477210521698  0.02648623287677765  0.5724577307701111  1.0000
  O   O1        1.0  0.006864461582154036  0.33036094903945923  0.06588470190763478  1.0000
  O   O2        1.0  0.052951615303754807  0.5437997579574585  0.8894801139831543  1.0000
  O   O3        1.0  0.5462392568588257  0.5935721397399902  0.9160059690475464  1.0000
  O   O4        1.0  0.002038016682490726  0.698219358921051  0.08165574073791504  1.0000
  Pt  Pt1       1.0  0.4265761077404022  0.5368208885192871  0.2519448399543762  1.0000
  Tl  Tl1       1.0  0.13856326043605804  0.6636695861816406  0.22528961300849915  1.0000
  Tl  Tl2       1.0  0.04011813551187515  0.5305684804916382  0.0790026187896729  1.0000
  Tl  Tl3       1.0  0.6057636141777039  0.019551757723093033  0.7205949425697327  1.0000
