data_image0
_chemical_formula_structural       FHLi2O6TlYb2
_chemical_formula_sum              "F1 H1 Li2 O6 Tl1 Yb2"
_cell_length_a       5.38452973833999
_cell_length_b       6.1466682876804954
_cell_length_c       6.268940448760986
_cell_angle_alpha    68.70167043868184
_cell_angle_beta     65.22721622889688
_cell_angle_gamma    61.21124901147542

_space_group_name_H-M_alt    "P 1"
_space_group_IT_number       1

loop_
  _space_group_symop_operation_xyz
  'x, y, z'

loop_
  _atom_site_type_symbol
  _atom_site_label
  _atom_site_symmetry_multiplicity
  _atom_site_fract_x
  _atom_site_fract_y
  _atom_site_fract_z
  _atom_site_occupancy
  F   F1        1.0  0.43398579955101013  0.2015165090560913  0.3153915703296661  1.0000
  H   H1        1.0  0.2251955270767212  0.9746543169021606  0.2607828974723816  1.0000
  Li  Li1       1.0  0.11997833847999573  0.41119474172592163  0.9348922371864319  1.0000
  Li  Li2       1.0  0.5839416980743408  0.14680001139640808  0.8676063418388367  1.0000
  O   O1        1.0  0.4105483889579773  0.375753253698349  0.5413171052932739  1.0000
  O   O2        1.0  0.8109200596809387  0.9737868309020996  0.5811067223548889  1.0000
  O   O3        1.0  0.21978461742401123  0.9197037816047668  0.9573127031326294  1.0000
  O   O4        1.0  0.7001268267631531  0.6343764066696167  0.44923898577690125  1.0000
  O   O5        1.0  0.1920376867055893  0.6190760135650635  0.07208467274904251  1.0000
  O   O6        1.0  0.720731258392334  0.8951114416122437  0.173902228474617  1.0000
  Tl  Tl1       1.0  0.8620750904083252  0.5187813639640808  0.4340782165527344  1.0000
  Yb  Yb1       1.0  0.3383934199810028  0.1792675405740738  0.697597861289978  1.0000
  Yb  Yb2       1.0  0.9357963800430298  0.7304310202598572  0.802920937538147  1.0000
