data_image0
_chemical_formula_structural       BrH2LiO6PtTbTl
_chemical_formula_sum              "Br1 H2 Li1 O6 Pt1 Tb1 Tl1"
_cell_length_a       4.770148867985373
_cell_length_b       6.4509090825527045
_cell_length_c       7.567171096801758
_cell_angle_alpha    94.3115582546244
_cell_angle_beta     90.11525216428738
_cell_angle_gamma    106.02369689826041

_space_group_name_H-M_alt    "P 1"
_space_group_IT_number       1

loop_
  _space_group_symop_operation_xyz
  'x, y, z'

loop_
  _atom_site_type_symbol
  _atom_site_label
  _atom_site_symmetry_multiplicity
  _atom_site_fract_x
  _atom_site_fract_y
  _atom_site_fract_z
  _atom_site_occupancy
  Br  Br1       1.0  0.44352850317955017  0.690966010093689  0.19638970494270325  1.0000
  H   H1        1.0  0.09926988929510112  0.8418146967887877  0.36953243613243103  1.0000
  H   H2        1.0  0.6218003034591675  0.5471654534339905  0.7084899544715881  1.0000
  Li  Li1       1.0  0.1802136898040771  0.9460450410842894  0.12614279985427856  1.0000
  O   O1        1.0  0.7132468223571777  0.15710704028606415  0.1236325353384018  1.0000
  O   O2        1.0  0.7410244941711426  0.4753825962543487  0.13448384404182434  1.0000
  O   O3        1.0  0.9849939346313477  0.49292185902595514  0.7530134320259094  1.0000
  O   O4        1.0  0.7195578813552856  0.12514692544937134  0.5100084543228149  1.0000
  O   O5        1.0  0.11996725946664806  0.9417925477027892  0.6772385835647583  1.0000
  O   O6        1.0  0.009299354627728462  0.27854448556900024  0.42179515957832336  1.0000
  Pt  Pt1       1.0  0.19535750150680542  0.14709359407424927  0.6882495880126953  1.0000
  Tb  Tb1       1.0  0.4588550925254822  0.44652134180068964  0.9511184096336365  1.0000
  Tl  Tl1       1.0  0.44914135336875916  0.9456799626350402  0.5372439026832581  1.0000
