data_image0
_chemical_formula_structural       Br2H2LiMnO4Tb3
_chemical_formula_sum              "Br2 H2 Li1 Mn1 O4 Tb3"
_cell_length_a       4.390953276422664
_cell_length_b       7.022037667059654
_cell_length_c       7.236329555511475
_cell_angle_alpha    94.11020562544289
_cell_angle_beta     89.95043524549534
_cell_angle_gamma    89.03721927197586

_space_group_name_H-M_alt    "P 1"
_space_group_IT_number       1

loop_
  _space_group_symop_operation_xyz
  'x, y, z'

loop_
  _atom_site_type_symbol
  _atom_site_label
  _atom_site_symmetry_multiplicity
  _atom_site_fract_x
  _atom_site_fract_y
  _atom_site_fract_z
  _atom_site_occupancy
  Br  Br1       1.0  0.1221264898777008  0.7458383440971375  0.9189314842224122  1.0000
  Br  Br2       1.0  0.6202952861785889  0.30198392271995544  0.18617421388626101  1.0000
  H   H1        1.0  0.6404398083686829  0.24066351354122162  0.02550149150192738  1.0000
  H   H2        1.0  0.13395807147026062  0.5450297594070435  0.8559433817863465  1.0000
  Li  Li1       1.0  0.6221230626106262  0.7244135141372681  0.6441950798034669  1.0000
  Mn  Mn1       1.0  0.6216217875480652  0.4985676407814026  0.8509432077407838  1.0000
  O   O1        1.0  0.13506069779396057  0.6901617050170898  0.16936495900154117  1.0000
  O   O2        1.0  0.5935314893722534  0.9227960109710693  0.6511471271514894  1.0000
  O   O3        1.0  0.15644867718219757  0.581267237663269  0.210481271147728  1.0000
  O   O4        1.0  0.6302756071090698  0.005831572692841291  0.9882822036743165  1.0000
  Tb  Tb1       1.0  0.1534828394651413  0.9603708386421204  0.2033110857009888  1.0000
  Tb  Tb2       1.0  0.6517080068588257  0.18479891121387482  0.7018492221832277  1.0000
  Tb  Tb3       1.0  0.8509265184402466  0.9838793873786926  0.16902595758438113  1.0000
