data_image0
_chemical_formula_structural       Br2H3LiO5Tb2
_chemical_formula_sum              "Br2 H3 Li1 O5 Tb2"
_cell_length_a       4.931687109777164
_cell_length_b       6.650311672391387
_cell_length_c       7.006642818450928
_cell_angle_alpha    97.5193796093064
_cell_angle_beta     85.05161407449515
_cell_angle_gamma    88.44942264989977

_space_group_name_H-M_alt    "P 1"
_space_group_IT_number       1

loop_
  _space_group_symop_operation_xyz
  'x, y, z'

loop_
  _atom_site_type_symbol
  _atom_site_label
  _atom_site_symmetry_multiplicity
  _atom_site_fract_x
  _atom_site_fract_y
  _atom_site_fract_z
  _atom_site_occupancy
  Br  Br1       1.0  0.0761955976486206  0.2253212332725525  0.5972371101379395  1.0000
  Br  Br2       1.0  0.5711919665336609  0.23197230696678162  0.5585630536079407  1.0000
  H   H1        1.0  0.7347829937934875  0.11414067447185516  0.8469300270080566  1.0000
  H   H2        1.0  0.3492339253425598  0.743901252746582  0.6617368459701538  1.0000
  H   H3        1.0  0.2166467308998108  0.9288254976272583  0.45620468258857727  1.0000
  Li  Li1       1.0  0.3514004051685333  0.5533665418624878  0.16079269349575043  1.0000
  O   O1        1.0  0.8321102261543274  0.7990105152130127  0.44917312264442444  1.0000
  O   O2        1.0  0.8480250835418701  0.6651784181594849  0.9741185307502747  1.0000
  O   O3        1.0  0.7938589453697205  0.5602598190307617  0.8447379469871521  1.0000
  O   O4        1.0  0.3476658761501312  0.1796143352985382  0.1568000316619873  1.0000
  O   O5        1.0  0.3042203187942505  0.6634027361869812  0.13478559255599976  1.0000
  Tb  Tb1       1.0  0.09300367534160614  0.6668149828910828  0.7415390014648438  1.0000
  Tb  Tb2       1.0  0.7877629995346069  0.3668251633644104  0.6393719911575317  1.0000
