data_image0
_chemical_formula_structural       As3ClCoGa5Ir
_chemical_formula_sum              "As3 Cl1 Co1 Ga5 Ir1"
_cell_length_a       5.675570458475633
_cell_length_b       5.829239495847086
_cell_length_c       6.702690601348877
_cell_angle_alpha    90.33542582544433
_cell_angle_beta     89.86520694818269
_cell_angle_gamma    88.69026364369083

_space_group_name_H-M_alt    "P 1"
_space_group_IT_number       1

loop_
  _space_group_symop_operation_xyz
  'x, y, z'

loop_
  _atom_site_type_symbol
  _atom_site_label
  _atom_site_symmetry_multiplicity
  _atom_site_fract_x
  _atom_site_fract_y
  _atom_site_fract_z
  _atom_site_occupancy
  As  As1       1.0  0.984041154384613  0.8978708982467651  0.051334816962480545  1.0000
  As  As2       1.0  0.9534887671470642  0.671116828918457  0.3847784101963043  1.0000
  As  As3       1.0  0.4896756112575531  0.33089911937713623  0.10443723946809769  1.0000
  Cl  Cl1       1.0  0.15814930200576782  0.47487565875053406  0.20825976133346558  1.0000
  Co  Co1       1.0  0.2629912197589874  0.01939241774380207  0.3058249056339264  1.0000
  Ga  Ga1       1.0  0.26817646622657776  0.31523382663726807  0.6787102818489075  1.0000
  Ga  Ga2       1.0  0.605201244354248  0.03351045027375221  0.22180800139904025  1.0000
  Ga  Ga3       1.0  0.6026096940040588  0.8453566431999207  0.6909033060073853  1.0000
  Ga  Ga4       1.0  0.7086785435676575  0.36542391777038574  0.4733720123767853  1.0000
  Ga  Ga5       1.0  0.7791725397109985  0.35921889543533325  0.7729676365852356  1.0000
  Ir  Ir1       1.0  0.9313626289367676  0.7062411308288574  0.7950849533081055  1.0000
