data_image0
_chemical_formula_structural       AsGa6GeIrVW
_chemical_formula_sum              "As1 Ga6 Ge1 Ir1 V1 W1"
_cell_length_a       5.945020717500145
_cell_length_b       6.054144170516557
_cell_length_c       6.182765007019043
_cell_angle_alpha    114.1326318608167
_cell_angle_beta     90.44087134755725
_cell_angle_gamma    92.97771486725989

_space_group_name_H-M_alt    "P 1"
_space_group_IT_number       1

loop_
  _space_group_symop_operation_xyz
  'x, y, z'

loop_
  _atom_site_type_symbol
  _atom_site_label
  _atom_site_symmetry_multiplicity
  _atom_site_fract_x
  _atom_site_fract_y
  _atom_site_fract_z
  _atom_site_occupancy
  As  As1       1.0  0.5037804841995239  0.7810090184211731  0.14755740761756894  1.0000
  Ga  Ga1       1.0  0.9937005043029785  0.8308677673339844  0.16830980777740473  1.0000
  Ga  Ga2       1.0  0.3694412112236023  0.328252911567688  0.6776525378227234  1.0000
  Ga  Ga3       1.0  0.46693384647369385  0.02490943670272827  0.5083270072937012  1.0000
  Ga  Ga4       1.0  0.8605366945266724  0.4740077257156372  0.8135843276977539  1.0000
  Ga  Ga5       1.0  0.0024927700869739056  0.6882283687591553  0.2701033651828766  1.0000
  Ga  Ga6       1.0  0.979827344417572  0.06498658657073975  0.4087286591529846  1.0000
  Ge  Ge1       1.0  0.30502980947494507  0.8063479065895081  0.2834833264350891  1.0000
  Ir  Ir1       1.0  0.49790361523628235  0.5207408666610718  0.23702333867549893  1.0000
  V   V1        1.0  0.896921694278717  0.19985999166965485  0.563325047492981  1.0000
  W   W1        1.0  0.9830089807510376  0.8048757910728455  0.5194886326789856  1.0000
