data_image0
_chemical_formula_structural       Ga3Ir2K4Ta2
_chemical_formula_sum              "Ga3 Ir2 K4 Ta2"
_cell_length_a       5.876985749747116
_cell_length_b       6.2833050656429394
_cell_length_c       7.862493991851807
_cell_angle_alpha    81.80264237416118
_cell_angle_beta     71.94533173872338
_cell_angle_gamma    67.81987854720099

_space_group_name_H-M_alt    "P 1"
_space_group_IT_number       1

loop_
  _space_group_symop_operation_xyz
  'x, y, z'

loop_
  _atom_site_type_symbol
  _atom_site_label
  _atom_site_symmetry_multiplicity
  _atom_site_fract_x
  _atom_site_fract_y
  _atom_site_fract_z
  _atom_site_occupancy
  Ga  Ga1       1.0  0.6249004602432251  0.20263883471488953  0.23430655896663663  1.0000
  Ga  Ga2       1.0  0.16180811822414398  0.6297808885574341  0.01612006314098835  1.0000
  Ga  Ga3       1.0  0.03800715133547783  0.13034871220588684  0.10678536444902419  1.0000
  Ir  Ir1       1.0  0.18878309428691864  0.9350950717926025  0.7074308991432189  1.0000
  Ir  Ir2       1.0  0.691006064414978  0.1549106240272522  0.1608677953481674  1.0000
  K   K1        1.0  0.6918236017227173  0.6788632273674011  0.5805948376655579  1.0000
  K   K2        1.0  0.16958652436733246  0.9148900508880615  0.3934307992458343  1.0000
  K   K3        1.0  0.6778035759925842  0.8923866152763367  0.14891663193702698  1.0000
  K   K4        1.0  0.19290786981582642  0.3899974226951599  0.6513293385505675  1.0000
  Ta  Ta1       1.0  0.6835690140724182  0.9855349063873291  0.8791092038154601  1.0000
  Ta  Ta2       1.0  0.1819559782743454  0.8832595348358154  0.7905686497688292  1.0000
