data_image0
_chemical_formula_structural       AsCoF2Ga5IrZr
_chemical_formula_sum              "As1 Co1 F2 Ga5 Ir1 Zr1"
_cell_length_a       5.93008465318601
_cell_length_b       5.871047002190114
_cell_length_c       7.5391998291015625
_cell_angle_alpha    88.32059275434204
_cell_angle_beta     87.54892713127381
_cell_angle_gamma    88.49427042702098

_space_group_name_H-M_alt    "P 1"
_space_group_IT_number       1

loop_
  _space_group_symop_operation_xyz
  'x, y, z'

loop_
  _atom_site_type_symbol
  _atom_site_label
  _atom_site_symmetry_multiplicity
  _atom_site_fract_x
  _atom_site_fract_y
  _atom_site_fract_z
  _atom_site_occupancy
  As  As1       1.0  0.4131283164024353  0.2630592882633209  0.8118104338645935  1.0000
  Co  Co1       1.0  0.15759874880313873  0.10537446290254592  0.5567888617515564  1.0000
  F   F1        1.0  0.13307709991931915  0.31902432441711426  0.9913394451141359  1.0000
  F   F2        1.0  0.710532009601593  0.6674801707267761  0.3608965277671814  1.0000
  Ga  Ga1       1.0  0.15330611169338226  0.42532348632812494  0.6243168115615845  1.0000
  Ga  Ga2       1.0  0.40153074264526367  0.5490665435791016  0.2635514438152313  1.0000
  Ga  Ga3       1.0  0.8815559148788452  0.11228983104228972  0.40404510498046875  1.0000
  Ga  Ga4       1.0  0.9070413112640382  0.24898758530616757  0.43966478109359747  1.0000
  Ga  Ga5       1.0  0.9036813974380493  0.11832229048013686  0.22703070938587191  1.0000
  Ir  Ir1       1.0  0.6732885837554932  0.7306439876556396  0.20396466553211212  1.0000
  Zr  Zr1       1.0  0.16530491411685944  0.9194406270980834  0.3661029636859894  1.0000
