data_image0
_chemical_formula_structural       Ga5K3V2Zr
_chemical_formula_sum              "Ga5 K3 V2 Zr1"
_cell_length_a       4.970622884283659
_cell_length_b       5.190834220896795
_cell_length_c       6.015955924987793
_cell_angle_alpha    88.77035359098872
_cell_angle_beta     90.17337297400894
_cell_angle_gamma    89.15291048107524

_space_group_name_H-M_alt    "P 1"
_space_group_IT_number       1

loop_
  _space_group_symop_operation_xyz
  'x, y, z'

loop_
  _atom_site_type_symbol
  _atom_site_label
  _atom_site_symmetry_multiplicity
  _atom_site_fract_x
  _atom_site_fract_y
  _atom_site_fract_z
  _atom_site_occupancy
  Ga  Ga1       1.0  0.15656745433807373  0.21605701744556427  0.20967651903629306  1.0000
  Ga  Ga2       1.0  0.6357855200767517  0.6057724356651306  0.49909004569053655  1.0000
  Ga  Ga3       1.0  0.08891431987285614  0.4967845678329468  0.6024894118309021  1.0000
  Ga  Ga4       1.0  0.1404821127653122  0.8549855351448059  0.043092310428619385  1.0000
  Ga  Ga5       1.0  0.6934391260147095  0.861282467842102  0.7713745236396791  1.0000
  K   K1        1.0  0.140818253159523  0.0835956558585167  0.40678209066390997  1.0000
  K   K2        1.0  0.6552531123161316  0.7604711651802063  0.6907751560211182  1.0000
  K   K3        1.0  0.6472216248512268  0.6205651760101318  0.29894745349884033  1.0000
  V   V1        1.0  0.14349882304668427  0.49100613594055176  0.42592030763626104  1.0000
  V   V2        1.0  0.643957257270813  0.22360490262508392  0.4134911596775056  1.0000
  Zr  Zr1       1.0  0.6698019504547119  0.392914354801178  0.059973463416099555  1.0000
