data_image0
_chemical_formula_structural       Ga5IrK5
_chemical_formula_sum              "Ga5 Ir1 K5"
_cell_length_a       6.198652815249677
_cell_length_b       7.0995724892133145
_cell_length_c       7.684563636779785
_cell_angle_alpha    115.74699026809911
_cell_angle_beta     91.26976827266661
_cell_angle_gamma    92.98477996410976

_space_group_name_H-M_alt    "P 1"
_space_group_IT_number       1

loop_
  _space_group_symop_operation_xyz
  'x, y, z'

loop_
  _atom_site_type_symbol
  _atom_site_label
  _atom_site_symmetry_multiplicity
  _atom_site_fract_x
  _atom_site_fract_y
  _atom_site_fract_z
  _atom_site_occupancy
  Ga  Ga1       1.0  0.5364651679992676  0.941730797290802  0.6108991503715515  1.0000
  Ga  Ga2       1.0  0.5265016555786133  0.8039767742156982  0.15427532792091364  1.0000
  Ga  Ga3       1.0  0.4941133260726929  0.44794321060180664  0.24810594320297238  1.0000
  Ga  Ga4       1.0  0.1636943370103836  0.952612042427063  0.7420583963394165  1.0000
  Ga  Ga5       1.0  0.005506274290382862  0.23196382820606232  0.8061607480049132  1.0000
  Ir  Ir1       1.0  0.4878173470497132  0.5677381753921509  0.029972389340400668  1.0000
  K   K1        1.0  0.2031078934669495  0.06404310464859009  0.960665762424469  1.0000
  K   K2        1.0  0.4890409111976624  0.9913339018821716  0.22646155953407282  1.0000
  K   K3        1.0  0.9833873510360719  0.6572844386100769  0.8829081058502197  1.0000
  K   K4        1.0  0.9838931560516359  0.6142485737800598  0.8841294050216675  1.0000
  K   K5        1.0  0.46445837616920477  0.9152474999427795  0.5431565642356873  1.0000
