data_image0
_chemical_formula_structural       Cr3K3Na2
_chemical_formula_sum              "Cr3 K3 Na2"
_cell_length_a       5.817914720105123
_cell_length_b       5.910507587610238
_cell_length_c       7.716521263122559
_cell_angle_alpha    69.77846028389811
_cell_angle_beta     68.00115392747686
_cell_angle_gamma    60.56768339744493

_space_group_name_H-M_alt    "P 1"
_space_group_IT_number       1

loop_
  _space_group_symop_operation_xyz
  'x, y, z'

loop_
  _atom_site_type_symbol
  _atom_site_label
  _atom_site_symmetry_multiplicity
  _atom_site_fract_x
  _atom_site_fract_y
  _atom_site_fract_z
  _atom_site_occupancy
  Cr  Cr1       1.0  0.37568390369415283  0.42726239562034607  0.5599631667137146  1.0000
  Cr  Cr2       1.0  0.7767966985702515  0.23979902267456055  0.33285170793533325  1.0000
  Cr  Cr3       1.0  0.30826622247695923  0.24809035658836365  0.3320472836494446  1.0000
  K   K1        1.0  0.8062357306480408  0.6802397966384888  0.46837863326072693  1.0000
  K   K2        1.0  0.3658006191253662  0.9425424337387085  0.7477539777755737  1.0000
  K   K3        1.0  0.6828804612159729  0.2287617176771164  0.9200896620750427  1.0000
  Na  Na1       1.0  0.29472815990448  0.8204843997955322  0.21835926175117493  1.0000
  Na  Na2       1.0  0.006224632263183594  0.5302111506462097  0.9797324538230895  1.0000
