data_image0
_chemical_formula_structural       BrErGeLiNaPTeU
_chemical_formula_sum              "Br1 Er1 Ge1 Li1 Na1 P1 Te1 U1"
_cell_length_a       5.869365820965612
_cell_length_b       5.847842518993768
_cell_length_c       5.852595806121826
_cell_angle_alpha    89.93337871273238
_cell_angle_beta     90.07031871977158
_cell_angle_gamma    89.9865114734941

_space_group_name_H-M_alt    "P 1"
_space_group_IT_number       1

loop_
  _space_group_symop_operation_xyz
  'x, y, z'

loop_
  _atom_site_type_symbol
  _atom_site_label
  _atom_site_symmetry_multiplicity
  _atom_site_fract_x
  _atom_site_fract_y
  _atom_site_fract_z
  _atom_site_occupancy
  Br  Br1       1.0  0.9650997519493103  0.6230224967002869  0.7133989334106445  1.0000
  Er  Er1       1.0  0.9645354747772217  0.12389334291219711  0.7132821679115297  1.0000
  Ge  Ge1       1.0  0.4650117754936218  0.6245601177215576  0.2115065306425095  1.0000
  Li  Li1       1.0  0.4651621878147125  0.6240023374557495  0.7164904475212097  1.0000
  Na  Na1       1.0  0.9666469097137451  0.625117838382721  0.2126721292734146  1.0000
  P   P1        1.0  0.9620620608329773  0.12347906082868576  0.2111463099718094  1.0000
  Te  Te1       1.0  0.46282899379730225  0.12368061393499374  0.7123399972915648  1.0000
  U   U1        1.0  0.4631013870239258  0.1234772577881813  0.21208667755126953  1.0000
