data_image0
_chemical_formula_structural       CoLaNd4SSb4
_chemical_formula_sum              "Co1 La1 Nd4 S1 Sb4"
_cell_length_a       5.219156321127522
_cell_length_b       7.488174262933111
_cell_length_c       8.22908878326416
_cell_angle_alpha    120.54093215017302
_cell_angle_beta     100.3645883377872
_cell_angle_gamma    87.13100871549007

_space_group_name_H-M_alt    "P 1"
_space_group_IT_number       1

loop_
  _space_group_symop_operation_xyz
  'x, y, z'

loop_
  _atom_site_type_symbol
  _atom_site_label
  _atom_site_symmetry_multiplicity
  _atom_site_fract_x
  _atom_site_fract_y
  _atom_site_fract_z
  _atom_site_occupancy
  Co  Co1       1.0  0.29508176445961  0.417985200881958  0.7719001173973083  1.0000
  La  La1       1.0  0.7407304644584656  0.9525481462478639  0.6220889687538147  1.0000
  Nd  Nd1       1.0  0.48124805092811584  0.7075932025909424  0.3624057173728943  1.0000
  Nd  Nd2       1.0  0.4742875099182129  0.09597045928239822  0.3753066062927246  1.0000
  Nd  Nd3       1.0  0.9962691068649292  0.26325833797454834  0.5273039937019348  1.0000
  Nd  Nd4       1.0  0.2041485756635666  0.5454226136207581  0.24759680032730103  1.0000
  S   S1        1.0  0.9746953248977661  0.7088840007781982  0.8644717335700989  1.0000
  Sb  Sb1       1.0  0.4955297112464905  0.6406241655349731  0.1312408745288849  1.0000
  Sb  Sb2       1.0  0.5023798942565918  0.9634526371955873  0.07462719827890396  1.0000
  Sb  Sb3       1.0  0.9786921143531799  0.42644932866096497  0.8764379024505615  1.0000
  Sb  Sb4       1.0  0.992091953754425  0.3019714653491974  0.8274163603782654  1.0000
