data_image0
_chemical_formula_structural       CuLaNd3SSb4Zn
_chemical_formula_sum              "Cu1 La1 Nd3 S1 Sb4 Zn1"
_cell_length_a       5.89017403812664
_cell_length_b       7.826145025259222
_cell_length_c       8.26294231414795
_cell_angle_alpha    117.7086160071922
_cell_angle_beta     107.66510555714385
_cell_angle_gamma    89.07520707987531

_space_group_name_H-M_alt    "P 1"
_space_group_IT_number       1

loop_
  _space_group_symop_operation_xyz
  'x, y, z'

loop_
  _atom_site_type_symbol
  _atom_site_label
  _atom_site_symmetry_multiplicity
  _atom_site_fract_x
  _atom_site_fract_y
  _atom_site_fract_z
  _atom_site_occupancy
  Cu  Cu1       1.0  0.7810381650924683  0.08532197028398512  0.930587887763977  1.0000
  La  La1       1.0  0.16738484799861908  0.7393192648887633  0.018030678853392546  1.0000
  Nd  Nd1       1.0  0.5522169470787048  0.1926554441452026  0.5520484447479248  1.0000
  Nd  Nd2       1.0  0.673405647277832  0.7985066175460814  0.02875416725873947  1.0000
  Nd  Nd3       1.0  0.11485188454389572  0.06168032065033912  0.17414069175720215  1.0000
  S   S1        1.0  0.8462610244750977  0.2038726210594177  0.08778252452611923  1.0000
  Sb  Sb1       1.0  0.44479912519454956  0.829752206802368  0.32173001766204823  1.0000
  Sb  Sb2       1.0  0.9705184698104858  0.3357532024383545  0.6252913475036621  1.0000
  Sb  Sb3       1.0  0.4933381676673889  0.38797429203987116  0.44652342796325684  1.0000
  Sb  Sb4       1.0  0.2039075642824173  0.3391289412975311  0.8809484243392944  1.0000
  Zn  Zn1       1.0  0.08926518261432646  0.9267234802246093  0.24296827614307398  1.0000
