data_image0
_chemical_formula_structural       Cu3Nd3Sb5
_chemical_formula_sum              "Cu3 Nd3 Sb5"
_cell_length_a       5.930397335672366
_cell_length_b       7.146766564240526
_cell_length_c       7.671021938323975
_cell_angle_alpha    116.38667019363828
_cell_angle_beta     111.65238382221942
_cell_angle_gamma    89.5364425433394

_space_group_name_H-M_alt    "P 1"
_space_group_IT_number       1

loop_
  _space_group_symop_operation_xyz
  'x, y, z'

loop_
  _atom_site_type_symbol
  _atom_site_label
  _atom_site_symmetry_multiplicity
  _atom_site_fract_x
  _atom_site_fract_y
  _atom_site_fract_z
  _atom_site_occupancy
  Cu  Cu1       1.0  0.2241467833518982  0.31443801522254944  0.967670977115631  1.0000
  Cu  Cu2       1.0  0.31283771991729736  0.038356564939022064  0.4687280356884002  1.0000
  Cu  Cu3       1.0  0.26568087935447693  0.5508963465690613  0.22438089549541465  1.0000
  Nd  Nd1       1.0  0.11718905717134476  0.5635628700256348  0.042207073420286116  1.0000
  Nd  Nd2       1.0  0.6295161843299866  0.08943895250558853  0.11140157282352443  1.0000
  Nd  Nd3       1.0  0.9040408134460449  0.5645220875740051  0.4477082192897795  1.0000
  Sb  Sb1       1.0  0.2699905037879944  0.5668460130691528  0.9593007564544677  1.0000
  Sb  Sb2       1.0  0.03374926373362541  0.054143719375133514  0.44465681910514826  1.0000
  Sb  Sb3       1.0  0.1721024364233017  0.5292283296585083  0.6894659996032714  1.0000
  Sb  Sb4       1.0  0.14577755331993103  0.08155430108308792  0.136469691991806  1.0000
  Sb  Sb5       1.0  0.7820674180984497  0.50899338722229  0.4527047872543334  1.0000
