data_image0
_chemical_formula_structural       Cu5Nd4SbTb
_chemical_formula_sum              "Cu5 Nd4 Sb1 Tb1"
_cell_length_a       4.739912901133129
_cell_length_b       6.815106441725319
_cell_length_c       7.439061641693115
_cell_angle_alpha    116.39941529578873
_cell_angle_beta     103.93834636591251
_cell_angle_gamma    88.64003315829908

_space_group_name_H-M_alt    "P 1"
_space_group_IT_number       1

loop_
  _space_group_symop_operation_xyz
  'x, y, z'

loop_
  _atom_site_type_symbol
  _atom_site_label
  _atom_site_symmetry_multiplicity
  _atom_site_fract_x
  _atom_site_fract_y
  _atom_site_fract_z
  _atom_site_occupancy
  Cu  Cu1       1.0  0.8999627232551575  0.1659323126077652  0.38048622012138367  1.0000
  Cu  Cu2       1.0  0.8910043239593506  0.7190567851066589  0.18257579207420355  1.0000
  Cu  Cu3       1.0  0.10577874630689621  0.7170562744140625  0.046863578259944916  1.0000
  Cu  Cu4       1.0  0.5590181946754456  0.15479980409145355  0.48942437767982483  1.0000
  Cu  Cu5       1.0  0.3483360707759857  0.20638689398765564  0.7397902011871338  1.0000
  Nd  Nd1       1.0  0.4297253489494324  0.9218695163726808  0.20302441716194153  1.0000
  Nd  Nd2       1.0  0.36738184094429016  0.652709424495697  0.37875089049339294  1.0000
  Nd  Nd3       1.0  0.38077613711357117  0.38843148946762085  0.328581839799881  1.0000
  Nd  Nd4       1.0  0.505510687828064  0.2140330970287323  0.04485493525862694  1.0000
  Sb  Sb1       1.0  0.8955273032188416  0.39667510986328125  0.7821651101112366  1.0000
  Tb  Tb1       1.0  0.4410147964954376  0.6885955333709717  0.7085358500480652  1.0000
