data_image0
_chemical_formula_structural       Cu2Nd2Sb6Sc
_chemical_formula_sum              "Cu2 Nd2 Sb6 Sc1"
_cell_length_a       6.87329670470526
_cell_length_b       6.96980009529328
_cell_length_c       7.293638229370117
_cell_angle_alpha    64.46298396738729
_cell_angle_beta     63.48297875269654
_cell_angle_gamma    61.1821233311051

_space_group_name_H-M_alt    "P 1"
_space_group_IT_number       1

loop_
  _space_group_symop_operation_xyz
  'x, y, z'

loop_
  _atom_site_type_symbol
  _atom_site_label
  _atom_site_symmetry_multiplicity
  _atom_site_fract_x
  _atom_site_fract_y
  _atom_site_fract_z
  _atom_site_occupancy
  Cu  Cu1       1.0  0.9790608882904053  0.5879520773887634  0.674618661403656  1.0000
  Cu  Cu2       1.0  0.668330729007721  0.5926190614700317  0.5955995917320251  1.0000
  Nd  Nd1       1.0  0.374407559633255  0.5705950856208801  0.9569313526153564  1.0000
  Nd  Nd2       1.0  0.668251633644104  0.2770147919654846  0.5648748278617859  1.0000
  Sb  Sb1       1.0  0.9793890118598938  0.5301832556724548  0.6056902408599854  1.0000
  Sb  Sb2       1.0  0.3810805082321167  0.07457111775875092  0.7312556505203247  1.0000
  Sb  Sb3       1.0  0.37546196579933167  0.5572943687438965  0.17203867435455322  1.0000
  Sb  Sb4       1.0  0.06013430282473564  0.2643274962902069  0.9129632115364075  1.0000
  Sb  Sb5       1.0  0.05277067422866821  0.9650088548660278  0.9074630737304688  1.0000
  Sb  Sb6       1.0  0.7508478164672852  0.07992931455373764  0.36466237902641296  1.0000
  Sc  Sc1       1.0  0.9378603100776672  0.02270176075398922  0.6248276829719543  1.0000
