data_image0
_chemical_formula_structural       Cu7Nd2Sb2
_chemical_formula_sum              "Cu7 Nd2 Sb2"
_cell_length_a       5.4920619572701534
_cell_length_b       6.34741620401448
_cell_length_c       6.617947101593018
_cell_angle_alpha    72.44407379199434
_cell_angle_beta     63.71580551673749
_cell_angle_gamma    60.916769234534

_space_group_name_H-M_alt    "P 1"
_space_group_IT_number       1

loop_
  _space_group_symop_operation_xyz
  'x, y, z'

loop_
  _atom_site_type_symbol
  _atom_site_label
  _atom_site_symmetry_multiplicity
  _atom_site_fract_x
  _atom_site_fract_y
  _atom_site_fract_z
  _atom_site_occupancy
  Cu  Cu1       1.0  0.3457455635070801  0.32582318782806396  0.8233426213264466  1.0000
  Cu  Cu2       1.0  0.3072272837162018  0.32066482305526733  0.8202489018440248  1.0000
  Cu  Cu3       1.0  0.8436440825462341  0.27675533294677734  0.36930885910987854  1.0000
  Cu  Cu4       1.0  0.04710807278752327  0.8860352635383606  0.07878673076629639  1.0000
  Cu  Cu5       1.0  0.024424612522125244  0.3918892443180084  0.9682016968727113  1.0000
  Cu  Cu6       1.0  0.2778477966785431  0.6702892184257507  0.748354971408844  1.0000
  Cu  Cu7       1.0  0.547749936580658  0.9138035178184509  0.09246186167001724  1.0000
  Nd  Nd1       1.0  0.020701315253973007  0.3574405014514923  0.31053733825683594  1.0000
  Nd  Nd2       1.0  0.6922575831413269  0.3659464120864868  0.7829355597496034  1.0000
  Sb  Sb1       1.0  0.736355185508728  0.06547831743955612  0.77646142244339  1.0000
  Sb  Sb2       1.0  0.26595062017440796  0.6863298416137695  0.7398965358734131  1.0000
