data_image0
_chemical_formula_structural       CaFI6P
_chemical_formula_sum              "Ca1 F1 I6 P1"
_cell_length_a       6.136782760451929
_cell_length_b       6.002586854640562
_cell_length_c       7.908101558685303
_cell_angle_alpha    103.34110617389835
_cell_angle_beta     95.22716254709903
_cell_angle_gamma    113.66661565112499

_space_group_name_H-M_alt    "P 1"
_space_group_IT_number       1

loop_
  _space_group_symop_operation_xyz
  'x, y, z'

loop_
  _atom_site_type_symbol
  _atom_site_label
  _atom_site_symmetry_multiplicity
  _atom_site_fract_x
  _atom_site_fract_y
  _atom_site_fract_z
  _atom_site_occupancy
  Ca  Ca1       1.0  0.766017496585846  0.8609607815742493  0.13936200737953186  1.0000
  F   F1        1.0  0.7627736330032349  0.2333156317472458  0.0770823135972023  1.0000
  I   I1        1.0  0.7464186549186707  0.3907129466533661  0.9955195784568787  1.0000
  I   I2        1.0  0.2986321747303009  0.33844032883644104  0.7600253820419312  1.0000
  I   I3        1.0  0.0023116671945899725  0.05311721935868263  0.6148390173912048  1.0000
  I   I4        1.0  0.9972860813140869  0.803946852684021  0.18973129987716675  1.0000
  I   I5        1.0  0.24417932331562042  0.8703559637069702  0.3629154860973358  1.0000
  I   I6        1.0  0.24664708971977234  0.6696240305900574  0.8806251883506775  1.0000
  P   P1        1.0  0.770602822303772  0.0796005055308342  0.9939669966697693  1.0000
