data_image0
_chemical_formula_structural       I5Tm4
_chemical_formula_sum              "I5 Tm4"
_cell_length_a       7.928369522141476
_cell_length_b       7.29018190556752
_cell_length_c       7.5075297355651855
_cell_angle_alpha    108.32526731363086
_cell_angle_beta     119.36249742069803
_cell_angle_gamma    114.54871734060741

_space_group_name_H-M_alt    "P 1"
_space_group_IT_number       1

loop_
  _space_group_symop_operation_xyz
  'x, y, z'

loop_
  _atom_site_type_symbol
  _atom_site_label
  _atom_site_symmetry_multiplicity
  _atom_site_fract_x
  _atom_site_fract_y
  _atom_site_fract_z
  _atom_site_occupancy
  I   I1        1.0  0.745876133441925  0.8690083622932434  0.0949217826128006  1.0000
  I   I2        1.0  0.11686377227306366  0.7184548377990723  0.6435714364051819  1.0000
  I   I3        1.0  0.8370373845100403  0.16557230055332184  0.2904348969459533  1.0000
  I   I4        1.0  0.32647037506103516  0.7010927796363831  0.7213760614395142  1.0000
  I   I5        1.0  0.1117343157529831  0.625656008720398  0.1779945343732834  1.0000
  Tm  Tm1       1.0  0.6537071466445923  0.00011250824172748253  0.6598336100578308  1.0000
  Tm  Tm2       1.0  0.4676041901111603  0.42479997873306274  0.1042022705078125  1.0000
  Tm  Tm3       1.0  0.6501273512840271  0.20316778123378754  0.04388164356350899  1.0000
  Tm  Tm4       1.0  0.6599182486534119  0.943821370601654  0.13697941601276387  1.0000
