data_image0
_chemical_formula_structural       I5Tm4
_chemical_formula_sum              "I5 Tm4"
_cell_length_a       5.314336838852991
_cell_length_b       5.86298532463128
_cell_length_c       11.353522300720215
_cell_angle_alpha    89.94658949922753
_cell_angle_beta     113.66327945632622
_cell_angle_gamma    109.26224010337577

_space_group_name_H-M_alt    "P 1"
_space_group_IT_number       1

loop_
  _space_group_symop_operation_xyz
  'x, y, z'

loop_
  _atom_site_type_symbol
  _atom_site_label
  _atom_site_symmetry_multiplicity
  _atom_site_fract_x
  _atom_site_fract_y
  _atom_site_fract_z
  _atom_site_occupancy
  I   I1        1.0  0.8404256105422974  0.4481216669082642  0.16841533780097961  1.0000
  I   I2        1.0  0.32716038823127747  0.6984360218048096  0.48710092902183527  1.0000
  I   I3        1.0  0.3164162933826447  0.8359436988830568  0.12154823541641237  1.0000
  I   I4        1.0  0.8002446889877319  0.7586236000061035  0.3129657506942749  1.0000
  I   I5        1.0  0.12890712916851046  0.44527283310890203  0.30141693353652954  1.0000
  Tm  Tm1       1.0  0.8811301589012146  0.8492821455001832  0.9468873739242553  1.0000
  Tm  Tm2       1.0  0.4586787521839142  0.9004188179969789  0.2215294390916824  1.0000
  Tm  Tm3       1.0  0.12744097411632538  0.19201235473155975  0.6401913166046143  1.0000
  Tm  Tm4       1.0  0.14529350399971017  0.976494073867798  0.1603244245052338  1.0000
