data_image0
_chemical_formula_structural       C2I7
_chemical_formula_sum              "C2 I7"
_cell_length_a       7.0580348534549975
_cell_length_b       6.640378750280874
_cell_length_c       8.127033233642578
_cell_angle_alpha    115.22594694233982
_cell_angle_beta     118.18102013235014
_cell_angle_gamma    90.93747195823174

_space_group_name_H-M_alt    "P 1"
_space_group_IT_number       1

loop_
  _space_group_symop_operation_xyz
  'x, y, z'

loop_
  _atom_site_type_symbol
  _atom_site_label
  _atom_site_symmetry_multiplicity
  _atom_site_fract_x
  _atom_site_fract_y
  _atom_site_fract_z
  _atom_site_occupancy
  C   C1        1.0  0.24184876680374146  0.21579943597316742  0.697259247303009  1.0000
  C   C2        1.0  0.9192030429840088  0.93666672706604  0.3769046664237976  1.0000
  I   I1        1.0  0.8849358558654785  0.41865724325180054  0.8863528370857239  1.0000
  I   I2        1.0  0.21082612872123718  0.5909042954444885  0.13670462369918823  1.0000
  I   I3        1.0  0.6924081444740295  0.5375046730041504  0.5540635585784912  1.0000
  I   I4        1.0  0.5287773609161377  0.05470864847302437  0.5262237191200256  1.0000
  I   I5        1.0  0.7162287831306458  0.5977796316146851  0.022101622074842453  1.0000
  I   I6        1.0  0.19850368797779083  0.7514799237251282  0.39539510011672974  1.0000
  I   I7        1.0  0.044720906764268875  0.7393307685852051  0.8984767198562622  1.0000
