data_image0
_chemical_formula_structural       CGaI6P
_chemical_formula_sum              "C1 Ga1 I6 P1"
_cell_length_a       5.8963274294824535
_cell_length_b       6.84633706780439
_cell_length_c       7.572295665740967
_cell_angle_alpha    99.57724659035648
_cell_angle_beta     90.2734817075242
_cell_angle_gamma    89.41729798532408

_space_group_name_H-M_alt    "P 1"
_space_group_IT_number       1

loop_
  _space_group_symop_operation_xyz
  'x, y, z'

loop_
  _atom_site_type_symbol
  _atom_site_label
  _atom_site_symmetry_multiplicity
  _atom_site_fract_x
  _atom_site_fract_y
  _atom_site_fract_z
  _atom_site_occupancy
  C   C1        1.0  0.8192703127861023  0.38389289379119873  0.535949170589447  1.0000
  Ga  Ga1       1.0  0.9227328896522522  0.5450308322906494  0.5721191167831421  1.0000
  I   I1        1.0  0.4065797030925751  0.42389291524887085  0.34424495697021484  1.0000
  I   I2        1.0  0.4275088310241699  0.011321168392896652  0.46820992231369013  1.0000
  I   I3        1.0  0.8231714963912964  0.5888552069664001  0.8876665830612183  1.0000
  I   I4        1.0  0.9170122742652893  0.4529109597206116  0.3728826344013214  1.0000
  I   I5        1.0  0.4257565438747406  0.4029204249382019  0.28302133083343506  1.0000
  I   I6        1.0  0.32633695006370544  0.7369663715362549  0.9916353821754454  1.0000
  P   P1        1.0  0.3179260194301605  0.8374701142311096  0.49098816514015203  1.0000
