data_image0
_chemical_formula_structural       ClHf3ScSn2
_chemical_formula_sum              "Cl1 Hf3 Sc1 Sn2"
_cell_length_a       4.739509585779545
_cell_length_b       4.961077538972006
_cell_length_c       7.536012172698975
_cell_angle_alpha    89.80004885821913
_cell_angle_beta     94.5055019564165
_cell_angle_gamma    87.9853658232554

_space_group_name_H-M_alt    "P 1"
_space_group_IT_number       1

loop_
  _space_group_symop_operation_xyz
  'x, y, z'

loop_
  _atom_site_type_symbol
  _atom_site_label
  _atom_site_symmetry_multiplicity
  _atom_site_fract_x
  _atom_site_fract_y
  _atom_site_fract_z
  _atom_site_occupancy
  Cl  Cl1       1.0  0.16602347791194916  0.3656708896160126  0.3621085584163665  1.0000
  Hf  Hf1       1.0  0.08507297188043594  0.8781166076660156  0.4182183146476745  1.0000
  Hf  Hf2       1.0  0.6965457201004028  0.11545878648757935  0.7884246110916137  1.0000
  Hf  Hf3       1.0  0.6711483001708984  0.38163256645202637  0.9055041074752807  1.0000
  Sc  Sc1       1.0  0.3787285387516022  0.10149981826543808  0.141537144780159  1.0000
  Sn  Sn1       1.0  0.8653066158294678  0.6106061339378357  0.1005258336663246  1.0000
  Sn  Sn2       1.0  0.5435930490493774  0.9015586972236633  0.5493292212486267  1.0000
