data_image0
_chemical_formula_structural       ClHf3PtSn2
_chemical_formula_sum              "Cl1 Hf3 Pt1 Sn2"
_cell_length_a       5.154927833513809
_cell_length_b       5.421892978032296
_cell_length_c       7.132655143737793
_cell_angle_alpha    93.93266093352622
_cell_angle_beta     92.60809433009284
_cell_angle_gamma    88.67701550205122

_space_group_name_H-M_alt    "P 1"
_space_group_IT_number       1

loop_
  _space_group_symop_operation_xyz
  'x, y, z'

loop_
  _atom_site_type_symbol
  _atom_site_label
  _atom_site_symmetry_multiplicity
  _atom_site_fract_x
  _atom_site_fract_y
  _atom_site_fract_z
  _atom_site_occupancy
  Cl  Cl1       1.0  0.20959268510341647  0.15214170515537262  0.6722238063812256  1.0000
  Hf  Hf1       1.0  0.051164176315069206  0.6650809049606323  0.9347530007362366  1.0000
  Hf  Hf2       1.0  0.7228511571884155  0.1679992377758026  0.05296127498149872  1.0000
  Hf  Hf3       1.0  0.5356196165084839  0.6685202717781067  0.45010051131248474  1.0000
  Pt  Pt1       1.0  0.5112420916557312  0.17337341606616974  0.7102137804031372  1.0000
  Sn  Sn1       1.0  0.2284687161445618  0.17424649000167847  0.2104036808013916  1.0000
  Sn  Sn2       1.0  0.7398184537887573  0.6661679744720459  0.7476987242698669  1.0000
