data_image0
_chemical_formula_structural       Hf3Sn4
_chemical_formula_sum              "Hf3 Sn4"
_cell_length_a       5.677504900881748
_cell_length_b       6.320869641398008
_cell_length_c       6.020382404327393
_cell_angle_alpha    127.6403723689482
_cell_angle_beta     92.48032107238964
_cell_angle_gamma    90.0466602311565

_space_group_name_H-M_alt    "P 1"
_space_group_IT_number       1

loop_
  _space_group_symop_operation_xyz
  'x, y, z'

loop_
  _atom_site_type_symbol
  _atom_site_label
  _atom_site_symmetry_multiplicity
  _atom_site_fract_x
  _atom_site_fract_y
  _atom_site_fract_z
  _atom_site_occupancy
  Hf  Hf1       1.0  0.41655856370925903  0.2796040177345276  0.2937959134578705  1.0000
  Hf  Hf2       1.0  0.41766953468322754  0.23268504440784454  0.6952710747718811  1.0000
  Hf  Hf3       1.0  0.418504923582077  0.6736845970153809  0.35070526599884033  1.0000
  Sn  Sn1       1.0  0.9201239347457886  0.6600897908210754  0.01584124006330967  1.0000
  Sn  Sn2       1.0  0.4263961613178253  0.3377867043018341  0.5537596344947815  1.0000
  Sn  Sn3       1.0  0.9109435677528381  0.6664051413536072  0.9236652851104736  1.0000
  Sn  Sn4       1.0  0.9185420274734497  0.9315147995948792  0.4401392936706543  1.0000
