data_image0
_chemical_formula_structural       ClHf2PSn3
_chemical_formula_sum              "Cl1 Hf2 P1 Sn3"
_cell_length_a       4.837005192494433
_cell_length_b       5.139945753256373
_cell_length_c       8.661371231079102
_cell_angle_alpha    89.54440427371011
_cell_angle_beta     91.1386606681176
_cell_angle_gamma    89.73347024868207

_space_group_name_H-M_alt    "P 1"
_space_group_IT_number       1

loop_
  _space_group_symop_operation_xyz
  'x, y, z'

loop_
  _atom_site_type_symbol
  _atom_site_label
  _atom_site_symmetry_multiplicity
  _atom_site_fract_x
  _atom_site_fract_y
  _atom_site_fract_z
  _atom_site_occupancy
  Cl  Cl1       1.0  0.6821348071098328  0.5015687942504883  0.2852206528186798  1.0000
  Hf  Hf1       1.0  0.5736291408538818  0.22346355020999908  0.28701555728912354  1.0000
  Hf  Hf2       1.0  0.9074825644493103  0.7328325510025024  0.9820916652679443  1.0000
  P   P1        1.0  0.5692760348320007  0.021511852741241455  0.7823126316070557  1.0000
  Sn  Sn1       1.0  0.33943888545036316  0.8224970698356628  0.7891201972961426  1.0000
  Sn  Sn2       1.0  0.1540110558271408  0.4836798310279846  0.28656619787216187  1.0000
  Sn  Sn3       1.0  0.08915688097476959  0.17238005995750427  0.49041420221328735  1.0000
