data_image0
_chemical_formula_structural       Fe2Y4
_chemical_formula_sum              "Fe2 Y4"
_cell_length_a       4.1421597948141065
_cell_length_b       6.371170357343927
_cell_length_c       6.327143669128418
_cell_angle_alpha    120.422097675607
_cell_angle_beta     94.82288969476083
_cell_angle_gamma    88.20165766160711

_space_group_name_H-M_alt    "P 1"
_space_group_IT_number       1

loop_
  _space_group_symop_operation_xyz
  'x, y, z'

loop_
  _atom_site_type_symbol
  _atom_site_label
  _atom_site_symmetry_multiplicity
  _atom_site_fract_x
  _atom_site_fract_y
  _atom_site_fract_z
  _atom_site_occupancy
  Fe  Fe1       1.0  0.3667898178100586  0.17596350610256195  0.1999834626913071  1.0000
  Fe  Fe2       1.0  0.3079625368118286  0.5316420197486877  0.38806492090225225  1.0000
  Y   Y1        1.0  0.10412454605102539  0.961965024471283  0.9175620079040528  1.0000
  Y   Y2        1.0  0.6217717528343201  0.7657321095466614  0.8276039958000184  1.0000
  Y   Y3        1.0  0.6261818408966064  0.4553332030773163  0.5165053606033325  1.0000
  Y   Y4        1.0  0.12995854020118713  0.4397790729999542  0.696196973323822  1.0000
