data_image0
_chemical_formula_structural       Fe2Y4
_chemical_formula_sum              "Fe2 Y4"
_cell_length_a       4.503390577071986
_cell_length_b       5.7626952032154115
_cell_length_c       5.849578380584717
_cell_angle_alpha    122.13700636479619
_cell_angle_beta     100.59194875784024
_cell_angle_gamma    89.19037025333583

_space_group_name_H-M_alt    "P 1"
_space_group_IT_number       1

loop_
  _space_group_symop_operation_xyz
  'x, y, z'

loop_
  _atom_site_type_symbol
  _atom_site_label
  _atom_site_symmetry_multiplicity
  _atom_site_fract_x
  _atom_site_fract_y
  _atom_site_fract_z
  _atom_site_occupancy
  Fe  Fe1       1.0  0.9878718256950378  0.7397825717926025  0.18177983164787292  1.0000
  Fe  Fe2       1.0  0.44093039631843567  0.05470513179898263  0.5858040452003479  1.0000
  Y   Y1        1.0  0.1356302797794342  0.2882109582424164  0.23691172897815704  1.0000
  Y   Y2        1.0  0.6296951174736023  0.492291271686554  0.05562484636902809  1.0000
  Y   Y3        1.0  0.9798080921173096  0.05320492759346963  0.05821470916271208  1.0000
  Y   Y4        1.0  0.638635516166687  0.75691819190979  0.5694003701210022  1.0000
