data_image0
_chemical_formula_structural       Fe2Y4
_chemical_formula_sum              "Fe2 Y4"
_cell_length_a       4.38445036695768
_cell_length_b       4.73610824284246
_cell_length_c       4.784411907196045
_cell_angle_alpha    67.71454010149762
_cell_angle_beta     72.12805522260469
_cell_angle_gamma    67.9757170909151

_space_group_name_H-M_alt    "P 1"
_space_group_IT_number       1

loop_
  _space_group_symop_operation_xyz
  'x, y, z'

loop_
  _atom_site_type_symbol
  _atom_site_label
  _atom_site_symmetry_multiplicity
  _atom_site_fract_x
  _atom_site_fract_y
  _atom_site_fract_z
  _atom_site_occupancy
  Fe  Fe1       1.0  0.6223704814910889  0.35529428720474243  0.36127403378486633  1.0000
  Fe  Fe2       1.0  0.3480190336704254  0.8472135066986084  0.6248782873153687  1.0000
  Y   Y1        1.0  0.7516728639602661  0.4520784318447113  0.6364363431930542  1.0000
  Y   Y2        1.0  0.7812271118164062  0.38407132029533386  0.22497405111789703  1.0000
  Y   Y3        1.0  0.24679945409297943  0.5219504237174988  0.8740794062614441  1.0000
  Y   Y4        1.0  0.24997512996196747  0.8679041862487793  0.34693053364753723  1.0000
