data_image0
_chemical_formula_structural       Fe3Y3
_chemical_formula_sum              "Fe3 Y3"
_cell_length_a       3.989177124449488
_cell_length_b       4.212996455499801
_cell_length_c       3.895296335220337
_cell_angle_alpha    75.26271260455009
_cell_angle_beta     56.022408791018336
_cell_angle_gamma    66.12558515427557

_space_group_name_H-M_alt    "P 1"
_space_group_IT_number       1

loop_
  _space_group_symop_operation_xyz
  'x, y, z'

loop_
  _atom_site_type_symbol
  _atom_site_label
  _atom_site_symmetry_multiplicity
  _atom_site_fract_x
  _atom_site_fract_y
  _atom_site_fract_z
  _atom_site_occupancy
  Fe  Fe1       1.0  0.001179217593744414  0.5759283304214478  0.9321348071098329  1.0000
  Fe  Fe2       1.0  0.3975733518600464  0.10357534885406494  0.3080782294273377  1.0000
  Fe  Fe3       1.0  0.6922032237052917  0.37767186760902405  0.8372886776924134  1.0000
  Y   Y1        1.0  0.36815986037254333  0.12867966294288635  0.026407824829220748  1.0000
  Y   Y2        1.0  0.9656730294227601  0.8345271348953247  0.33583796024322515  1.0000
  Y   Y3        1.0  0.4000447392463684  0.8807824850082397  0.834196448326111  1.0000
