data_image0
_chemical_formula_structural       Cd2Cl6Cs3
_chemical_formula_sum              "Cd2 Cl6 Cs3"
_cell_length_a       5.858539731572548
_cell_length_b       6.7431769504909225
_cell_length_c       11.957823753356934
_cell_angle_alpha    89.75191735250404
_cell_angle_beta     89.93747703985822
_cell_angle_gamma    90.02583984790981

_space_group_name_H-M_alt    "P 1"
_space_group_IT_number       1

loop_
  _space_group_symop_operation_xyz
  'x, y, z'

loop_
  _atom_site_type_symbol
  _atom_site_label
  _atom_site_symmetry_multiplicity
  _atom_site_fract_x
  _atom_site_fract_y
  _atom_site_fract_z
  _atom_site_occupancy
  Cd  Cd1       1.0  0.48337417840957636  0.8086694478988647  0.9695567488670349  1.0000
  Cd  Cd2       1.0  0.0012401361018419266  0.05661730095744133  0.15783149003982544  1.0000
  Cl  Cl1       1.0  0.8317196965217589  0.05929001048207283  0.45779067277908325  1.0000
  Cl  Cl2       1.0  0.9728528857231139  0.3119126856327057  0.7595623135566711  1.0000
  Cl  Cl3       1.0  0.484048843383789  0.5116773843765259  0.9912256598472595  1.0000
  Cl  Cl4       1.0  0.19023330509662625  0.8108628392219543  0.4264044463634491  1.0000
  Cl  Cl5       1.0  0.1625262349843979  0.8003536462783813  0.14468230307102203  1.0000
  Cl  Cl6       1.0  0.0329204760491848  0.5592177510261536  0.6683838367462158  1.0000
  Cs  Cs1       1.0  0.48361906409263605  0.06641793996095657  0.5537879467010498  1.0000
  Cs  Cs2       1.0  0.8940082788467406  0.06054580584168434  0.8933862447738647  1.0000
  Cs  Cs3       1.0  0.44964206218719477  0.7995346784591675  0.9398422837257385  1.0000
