data_image0
_chemical_formula_structural       Cd2Cl8Cs
_chemical_formula_sum              "Cd2 Cl8 Cs1"
_cell_length_a       6.5522981037815775
_cell_length_b       7.019098545476332
_cell_length_c       9.166720390319824
_cell_angle_alpha    108.02002987579108
_cell_angle_beta     107.62580065058953
_cell_angle_gamma    98.26644339678394

_space_group_name_H-M_alt    "P 1"
_space_group_IT_number       1

loop_
  _space_group_symop_operation_xyz
  'x, y, z'

loop_
  _atom_site_type_symbol
  _atom_site_label
  _atom_site_symmetry_multiplicity
  _atom_site_fract_x
  _atom_site_fract_y
  _atom_site_fract_z
  _atom_site_occupancy
  Cd  Cd1       1.0  0.9184467196464539  0.698154389858246  0.5016044974327087  1.0000
  Cd  Cd2       1.0  0.5898719429969788  0.23785740137100223  0.725957453250885  1.0000
  Cl  Cl1       1.0  0.8998563289642334  0.5156514644622803  0.04802302271127701  1.0000
  Cl  Cl2       1.0  0.7515760660171509  0.9688551425933839  0.27980682253837585  1.0000
  Cl  Cl3       1.0  0.5840461850166321  0.2239959686994553  0.6992628574371338  1.0000
  Cl  Cl4       1.0  0.7458805441856384  0.9624585509300233  0.9084837436676025  1.0000
  Cl  Cl5       1.0  0.4250166714191437  0.4863106012344361  0.5523239970207214  1.0000
  Cl  Cl6       1.0  0.1796429604291916  0.004268847405910492  0.1905791461467743  1.0000
  Cl  Cl7       1.0  0.5764341950416565  0.4682901501655579  0.04609875753521919  1.0000
  Cl  Cl8       1.0  0.9286288619041443  0.6246420741081238  0.48971205949783325  1.0000
  Cs  Cs1       1.0  0.7949098348617554  0.9338368177413942  0.9797952771186829  1.0000
