data_image0
_chemical_formula_structural       Cd10Cl
_chemical_formula_sum              "Cd10 Cl1"
_cell_length_a       8.150615334793054
_cell_length_b       9.60784523673806
_cell_length_c       9.657818794250488
_cell_angle_alpha    118.24717250554299
_cell_angle_beta     87.92101334748966
_cell_angle_gamma    89.28315581275005

_space_group_name_H-M_alt    "P 1"
_space_group_IT_number       1

loop_
  _space_group_symop_operation_xyz
  'x, y, z'

loop_
  _atom_site_type_symbol
  _atom_site_label
  _atom_site_symmetry_multiplicity
  _atom_site_fract_x
  _atom_site_fract_y
  _atom_site_fract_z
  _atom_site_occupancy
  Cd  Cd1       1.0  0.027786748483777046  0.9070005416870117  0.03652874752879143  1.0000
  Cd  Cd2       1.0  0.7439459562301636  0.4029395282268524  0.5560019016265869  1.0000
  Cd  Cd3       1.0  0.7811209559440613  0.43884387612342834  0.1729021072387695  1.0000
  Cd  Cd4       1.0  0.30675381422042847  0.9280028343200684  0.1090669259428978  1.0000
  Cd  Cd5       1.0  0.029132770374417305  0.42111608386039734  0.8132391571998595  1.0000
  Cd  Cd6       1.0  0.4870281219482422  0.407682329416275  0.5407360196113586  1.0000
  Cd  Cd7       1.0  0.7370254993438721  0.9226407408714294  0.9739680886268616  1.0000
  Cd  Cd8       1.0  0.27891525626182556  0.26357853412628174  0.8919149041175842  1.0000
  Cd  Cd9       1.0  0.23706649243831635  0.41540098190307617  0.3181079924106598  1.0000
  Cd  Cd10      1.0  0.804715096950531  0.8811318874359131  0.49403879046440113  1.0000
  Cl  Cl1       1.0  0.3115019202232361  0.9217970371246338  0.29665011167526245  1.0000
