data_image0
_chemical_formula_structural       Cd2Cl7Cs2
_chemical_formula_sum              "Cd2 Cl7 Cs2"
_cell_length_a       6.908831631249241
_cell_length_b       7.964706722831846
_cell_length_c       10.250066757202148
_cell_angle_alpha    102.07599411524596
_cell_angle_beta     103.9628905608583
_cell_angle_gamma    89.10143383193305

_space_group_name_H-M_alt    "P 1"
_space_group_IT_number       1

loop_
  _space_group_symop_operation_xyz
  'x, y, z'

loop_
  _atom_site_type_symbol
  _atom_site_label
  _atom_site_symmetry_multiplicity
  _atom_site_fract_x
  _atom_site_fract_y
  _atom_site_fract_z
  _atom_site_occupancy
  Cd  Cd1       1.0  0.9893468618392943  0.48866334557533264  0.9453575611114502  1.0000
  Cd  Cd2       1.0  0.13269346952438354  0.019034368917346  0.40247851610183716  1.0000
  Cl  Cl1       1.0  0.2772262394428253  0.49528583884239197  0.12064456939697266  1.0000
  Cl  Cl2       1.0  0.2757205069065094  0.006250417325645685  0.1841360330581665  1.0000
  Cl  Cl3       1.0  0.49183505773544306  0.4604855179786682  0.6606360077857971  1.0000
  Cl  Cl4       1.0  0.9478964805603026  0.14389553666114807  0.6172003149986267  1.0000
  Cl  Cl5       1.0  0.6544506549835205  0.7659993171691895  0.3324524462223053  1.0000
  Cl  Cl6       1.0  0.48839890956878657  0.49842485785484314  0.9184971451759338  1.0000
  Cl  Cl7       1.0  0.5797945261001587  0.6046489477157593  0.20959331095218658  1.0000
  Cs  Cs1       1.0  0.05091122537851333  0.28479573130607605  0.6413267850875854  1.0000
  Cs  Cs2       1.0  0.6295817494392395  0.7892613410949707  0.06889178603887558  1.0000
