data_image0
_chemical_formula_structural       Cd2Cl8Cs
_chemical_formula_sum              "Cd2 Cl8 Cs1"
_cell_length_a       6.415113372034865
_cell_length_b       7.658422300483379
_cell_length_c       9.058140754699707
_cell_angle_alpha    109.05886633014227
_cell_angle_beta     110.0871861520216
_cell_angle_gamma    89.55911958798596

_space_group_name_H-M_alt    "P 1"
_space_group_IT_number       1

loop_
  _space_group_symop_operation_xyz
  'x, y, z'

loop_
  _atom_site_type_symbol
  _atom_site_label
  _atom_site_symmetry_multiplicity
  _atom_site_fract_x
  _atom_site_fract_y
  _atom_site_fract_z
  _atom_site_occupancy
  Cd  Cd1       1.0  0.9273537397384644  0.5517281889915466  0.52534019947052  1.0000
  Cd  Cd2       1.0  0.7870866060256958  0.3523864448070526  0.5417290329933167  1.0000
  Cl  Cl1       1.0  0.4350205659866333  0.2458338439464569  0.8100736737251282  1.0000
  Cl  Cl2       1.0  0.5713444352149963  0.05075721815228462  0.5314801931381226  1.0000
  Cl  Cl3       1.0  0.7476650476455688  0.5254843235015869  0.3590063154697418  1.0000
  Cl  Cl4       1.0  0.7856590747833252  0.855151355266571  0.858831524848938  1.0000
  Cl  Cl5       1.0  0.6607264876365662  0.4532284736633301  0.5174871683120728  1.0000
  Cl  Cl6       1.0  0.17125089466571808  0.21224558353424072  0.61131751537323  1.0000
  Cl  Cl7       1.0  0.7741247415542603  0.3178797960281372  0.4442559778690338  1.0000
  Cl  Cl8       1.0  0.8819292187690735  0.738088071346283  0.010514290072023869  1.0000
  Cs  Cs1       1.0  0.32823672890663147  0.5687880516052246  0.11021729558706284  1.0000
