data_image0
_chemical_formula_structural       AsCd7ClOs2
_chemical_formula_sum              "As1 Cd7 Cl1 Os2"
_cell_length_a       7.291771819112784
_cell_length_b       8.462762105466224
_cell_length_c       8.448875427246094
_cell_angle_alpha    121.89824612661748
_cell_angle_beta     84.57296944569823
_cell_angle_gamma    91.15974718706228

_space_group_name_H-M_alt    "P 1"
_space_group_IT_number       1

loop_
  _space_group_symop_operation_xyz
  'x, y, z'

loop_
  _atom_site_type_symbol
  _atom_site_label
  _atom_site_symmetry_multiplicity
  _atom_site_fract_x
  _atom_site_fract_y
  _atom_site_fract_z
  _atom_site_occupancy
  As  As1       1.0  0.6926948428153992  0.9308240413665771  0.978093147277832  1.0000
  Cd  Cd1       1.0  0.6951127648353577  0.7141534090042114  0.28356522321701055  1.0000
  Cd  Cd2       1.0  0.6927466988563538  0.610356330871582  0.5810852646827698  1.0000
  Cd  Cd3       1.0  0.20281153917312622  0.9767494797706604  0.08997838944196701  1.0000
  Cd  Cd4       1.0  0.44881772994995117  0.3361435830593109  0.8149810433387756  1.0000
  Cd  Cd5       1.0  0.18983472883701324  0.6155326962471008  0.28215387463569647  1.0000
  Cd  Cd6       1.0  0.6962610483169556  0.00712769478559494  0.611483097076416  1.0000
  Cd  Cd7       1.0  0.9658619761466981  0.46443942189216614  0.4364953637123108  1.0000
  Cl  Cl1       1.0  0.22332870960235596  0.004191438667476177  0.09692913293838501  1.0000
  Os  Os1       1.0  0.9689793586730958  0.6141186952590942  0.5918154120445251  1.0000
  Os  Os2       1.0  0.19491513073444366  0.0664159283041954  0.29489022493362427  1.0000
