data_image0
_chemical_formula_structural       AlEr2Ni4
_chemical_formula_sum              "Al1 Er2 Ni4"
_cell_length_a       3.8229877060029467
_cell_length_b       5.469410194622198
_cell_length_c       5.489471912384033
_cell_angle_alpha    120.01362042806089
_cell_angle_beta     94.03629327754328
_cell_angle_gamma    87.59891001013058

_space_group_name_H-M_alt    "P 1"
_space_group_IT_number       1

loop_
  _space_group_symop_operation_xyz
  'x, y, z'

loop_
  _atom_site_type_symbol
  _atom_site_label
  _atom_site_symmetry_multiplicity
  _atom_site_fract_x
  _atom_site_fract_y
  _atom_site_fract_z
  _atom_site_occupancy
  Al  Al1       1.0  0.7267056703567504  0.0940682515501976  0.6631191968917847  1.0000
  Er  Er1       1.0  0.7154187560081481  0.5622771382331848  0.010593950748443645  1.0000
  Er  Er2       1.0  0.11364941298961638  0.4501989483833313  0.17333529889583588  1.0000
  Ni  Ni1       1.0  0.09665894508361815  0.9538105130195618  0.1710098236799241  1.0000
  Ni  Ni2       1.0  0.5956629514694214  0.5170548558235168  0.8745101690292358  1.0000
  Ni  Ni3       1.0  0.09112454950809477  0.4384481608867645  0.6441428065299988  1.0000
  Ni  Ni4       1.0  0.42391389608383173  0.9418835043907166  0.9239600896835327  1.0000
