data_image0
_chemical_formula_structural       AgCeK6SiTe
_chemical_formula_sum              "Ag1 Ce1 K6 Si1 Te1"
_cell_length_a       5.290687019562408
_cell_length_b       6.494516784555689
_cell_length_c       8.916319847106934
_cell_angle_alpha    85.4542802469979
_cell_angle_beta     71.70888985143222
_cell_angle_gamma    61.23316875375069

_space_group_name_H-M_alt    "P 1"
_space_group_IT_number       1

loop_
  _space_group_symop_operation_xyz
  'x, y, z'

loop_
  _atom_site_type_symbol
  _atom_site_label
  _atom_site_symmetry_multiplicity
  _atom_site_fract_x
  _atom_site_fract_y
  _atom_site_fract_z
  _atom_site_occupancy
  Ag  Ag1       1.0  0.7097020745277405  0.8688462972640991  0.41704899072647095  1.0000
  Ce  Ce1       1.0  0.4682356119155884  0.7584474682807922  0.6943670511245728  1.0000
  K   K1        1.0  0.30906835198402405  0.8542047739028931  0.41449931263923645  1.0000
  K   K2        1.0  0.14069432020187378  0.5157419443130493  0.4180530309677124  1.0000
  K   K3        1.0  0.25999003648757935  0.13276579976081848  0.9702430367469788  1.0000
  K   K4        1.0  0.9128710031509399  0.5859530568122864  0.6394649744033813  1.0000
  K   K5        1.0  0.7149713039398193  0.6086207628250122  0.9222934246063232  1.0000
  K   K6        1.0  0.7332515120506287  0.25145119428634644  0.22311463952064514  1.0000
  Si  Si1       1.0  0.8046121001243591  0.3540590703487396  0.49100857973098755  1.0000
  Te  Te1       1.0  0.21183115243911743  0.24759289622306824  0.15089984238147736  1.0000
