data_image0
_chemical_formula_structural       Hg2K5NSi2
_chemical_formula_sum              "Hg2 K5 N1 Si2"
_cell_length_a       5.8406522290676195
_cell_length_b       7.53492907309412
_cell_length_c       7.293529987335205
_cell_angle_alpha    78.2153697533031
_cell_angle_beta     63.155303192855136
_cell_angle_gamma    65.44612951725865

_space_group_name_H-M_alt    "P 1"
_space_group_IT_number       1

loop_
  _space_group_symop_operation_xyz
  'x, y, z'

loop_
  _atom_site_type_symbol
  _atom_site_label
  _atom_site_symmetry_multiplicity
  _atom_site_fract_x
  _atom_site_fract_y
  _atom_site_fract_z
  _atom_site_occupancy
  Hg  Hg1       1.0  0.08192338794469833  0.5883308053016663  0.8760148286819458  1.0000
  Hg  Hg2       1.0  0.5790242552757263  0.8277579545974731  0.36483266949653625  1.0000
  K   K1        1.0  0.10101789981126785  0.31818386912345886  0.2651951014995575  1.0000
  K   K2        1.0  0.6542901992797852  0.17210246622562408  0.30343884229660034  1.0000
  K   K3        1.0  0.1257232427597046  0.5720425844192505  0.01925424486398697  1.0000
  K   K4        1.0  0.6662032604217529  0.2306348979473114  0.05693686753511429  1.0000
  K   K5        1.0  0.587979793548584  0.04955103620886803  0.9509604573249817  1.0000
  N   N1        1.0  0.34051162004470825  0.49755600094795227  0.604653000831604  1.0000
  Si  Si1       1.0  0.26616808772087097  0.9626979231834412  0.28367677330970764  1.0000
  Si  Si2       1.0  0.24366243183612826  0.48791125416755676  0.6099467277526855  1.0000
