data_image0
_chemical_formula_structural       Ag5K2Te3
_chemical_formula_sum              "Ag5 K2 Te3"
_cell_length_a       7.149298080791465
_cell_length_b       7.476431445407953
_cell_length_c       7.4324727058410645
_cell_angle_alpha    108.33252383250586
_cell_angle_beta     107.03767816105703
_cell_angle_gamma    108.50043596564791

_space_group_name_H-M_alt    "P 1"
_space_group_IT_number       1

loop_
  _space_group_symop_operation_xyz
  'x, y, z'

loop_
  _atom_site_type_symbol
  _atom_site_label
  _atom_site_symmetry_multiplicity
  _atom_site_fract_x
  _atom_site_fract_y
  _atom_site_fract_z
  _atom_site_occupancy
  Ag  Ag1       1.0  0.7867982387542726  0.3538919985294342  0.6023247838020325  1.0000
  Ag  Ag2       1.0  0.2919711768627167  0.39065998792648315  0.28848394751548767  1.0000
  Ag  Ag3       1.0  0.7756774425506593  0.8679724931716919  0.4751349985599518  1.0000
  Ag  Ag4       1.0  0.27810317277908325  0.342061847448349  0.4482079744338989  1.0000
  Ag  Ag5       1.0  0.7798099517822267  0.8622064590454102  0.3071694076061249  1.0000
  K   K1        1.0  0.3261959254741669  0.6114247441291809  0.45782458782196045  1.0000
  K   K2        1.0  0.9929593801498414  0.6822028756141663  0.7376003265380859  1.0000
  Te  Te1       1.0  0.5257043242454529  0.8335197567939758  0.9955704212188721  1.0000
  Te  Te2       1.0  0.5183077454566956  0.04998308792710304  0.7252518534660339  1.0000
  Te  Te3       1.0  0.82357656955719  0.6084032654762268  0.4252655506134033  1.0000
