data_image0
_chemical_formula_structural       Ag6KTe3
_chemical_formula_sum              "Ag6 K1 Te3"
_cell_length_a       7.978149260582527
_cell_length_b       8.310165103388284
_cell_length_c       7.292105197906494
_cell_angle_alpha    108.40688736568262
_cell_angle_beta     107.05926457865144
_cell_angle_gamma    111.13365425606261

_space_group_name_H-M_alt    "P 1"
_space_group_IT_number       1

loop_
  _space_group_symop_operation_xyz
  'x, y, z'

loop_
  _atom_site_type_symbol
  _atom_site_label
  _atom_site_symmetry_multiplicity
  _atom_site_fract_x
  _atom_site_fract_y
  _atom_site_fract_z
  _atom_site_occupancy
  Ag  Ag1       1.0  0.5858377814292908  0.9637941718101501  0.9203898310661317  1.0000
  Ag  Ag2       1.0  0.9466142654418945  0.506661593914032  0.4702749848365784  1.0000
  Ag  Ag3       1.0  0.5832096338272095  0.5252206325531006  0.09390332549810416  1.0000
  Ag  Ag4       1.0  0.3149266839027405  0.14163924753665924  0.5285480618476868  1.0000
  Ag  Ag5       1.0  0.3072565197944641  0.14234749972820282  0.7492056488990785  1.0000
  Ag  Ag6       1.0  0.30038532614707947  0.4359799325466156  0.6631602048873902  1.0000
  K   K1        1.0  0.821967363357544  0.685685396194458  0.2527547776699066  1.0000
  Te  Te1       1.0  0.09621363133192062  0.4406393766403198  0.8777242898941041  1.0000
  Te  Te2       1.0  0.13873353600502014  0.9191901683807373  0.5263663530349731  1.0000
  Te  Te3       1.0  0.41775962710380554  0.43285295367240906  0.2495412230491639  1.0000
