data_image0
_chemical_formula_structural       Ag2GeHgK4NSi
_chemical_formula_sum              "Ag2 Ge1 Hg1 K4 N1 Si1"
_cell_length_a       5.647322106782354
_cell_length_b       6.1906038027802985
_cell_length_c       7.095105171203613
_cell_angle_alpha    75.91402627217963
_cell_angle_beta     65.9612970879479
_cell_angle_gamma    63.16568800488074

_space_group_name_H-M_alt    "P 1"
_space_group_IT_number       1

loop_
  _space_group_symop_operation_xyz
  'x, y, z'

loop_
  _atom_site_type_symbol
  _atom_site_label
  _atom_site_symmetry_multiplicity
  _atom_site_fract_x
  _atom_site_fract_y
  _atom_site_fract_z
  _atom_site_occupancy
  Ag  Ag1       1.0  0.13178721070289612  0.01776779443025589  0.47268238663673406  1.0000
  Ag  Ag2       1.0  0.6300855875015259  0.04933375120162964  0.7471417784690858  1.0000
  Ge  Ge1       1.0  0.3060709238052368  0.7577036619186401  0.46751287579536444  1.0000
  Hg  Hg1       1.0  0.7800801396369934  0.7874412536621094  0.5158584713935852  1.0000
  K   K1        1.0  0.30777570605278015  0.40488362312316895  0.6931082606315614  1.0000
  K   K2        1.0  0.2753542363643646  0.3149624764919281  0.14034192264080048  1.0000
  K   K3        1.0  0.8051699995994568  0.3239808976650238  0.20912221074104312  1.0000
  K   K4        1.0  0.616134524345398  0.00503745349124074  0.00480798026546836  1.0000
  N   N1        1.0  0.26344263553619385  0.4493377208709717  0.9063185453414918  1.0000
  Si  Si1       1.0  0.35062476992607117  0.031009769067168236  0.9659610390663148  1.0000
