data_image0
_chemical_formula_structural       Ag2K5NSi2
_chemical_formula_sum              "Ag2 K5 N1 Si2"
_cell_length_a       5.045599533881421
_cell_length_b       6.728932037822812
_cell_length_c       8.321229934692383
_cell_angle_alpha    107.8169949604892
_cell_angle_beta     87.40330230575246
_cell_angle_gamma    108.56842732022365

_space_group_name_H-M_alt    "P 1"
_space_group_IT_number       1

loop_
  _space_group_symop_operation_xyz
  'x, y, z'

loop_
  _atom_site_type_symbol
  _atom_site_label
  _atom_site_symmetry_multiplicity
  _atom_site_fract_x
  _atom_site_fract_y
  _atom_site_fract_z
  _atom_site_occupancy
  Ag  Ag1       1.0  0.92087322473526  0.04320322349667549  0.9537799954414368  1.0000
  Ag  Ag2       1.0  0.960046112537384  0.5752342939376831  0.36080196499824524  1.0000
  K   K1        1.0  0.3679218292236328  0.6382898092269897  0.3325692117214203  1.0000
  K   K2        1.0  0.39155662059783936  0.9751683473587036  0.7157012820243835  1.0000
  K   K3        1.0  0.9021375775337219  0.33121201395988464  0.49649250507354736  1.0000
  K   K4        1.0  0.9358372092247009  0.9699679017066956  0.7716366648674011  1.0000
  K   K5        1.0  0.3854556679725647  0.1261778175830841  0.39764997363090515  1.0000
  N   N1        1.0  0.4167735278606415  0.6449242234230042  0.7538762092590332  1.0000
  Si  Si1       1.0  0.8394879102706909  0.13716091215610504  0.2004026621580124  1.0000
  Si  Si2       1.0  0.641491711139679  0.5073177814483643  0.8487905263900757  1.0000
