data_image0
_chemical_formula_structural       NiS2Si4Sm4
_chemical_formula_sum              "Ni1 S2 Si4 Sm4"
_cell_length_a       5.113184965651507
_cell_length_b       5.5151678669881825
_cell_length_c       7.9375691413879395
_cell_angle_alpha    107.23999727702943
_cell_angle_beta     108.85257704716962
_cell_angle_gamma    88.76273663421983

_space_group_name_H-M_alt    "P 1"
_space_group_IT_number       1

loop_
  _space_group_symop_operation_xyz
  'x, y, z'

loop_
  _atom_site_type_symbol
  _atom_site_label
  _atom_site_symmetry_multiplicity
  _atom_site_fract_x
  _atom_site_fract_y
  _atom_site_fract_z
  _atom_site_occupancy
  Ni  Ni1       1.0  0.31299659609794617  0.9612601399421692  0.5071806907653809  1.0000
  S   S1        1.0  0.9971089363098145  0.3600044846534729  0.20650348067283628  1.0000
  S   S2        1.0  0.8197332620620728  0.48962247371673584  0.9234839677810668  1.0000
  Si  Si1       1.0  0.6025855541229248  0.7004591226577759  0.5284630060195923  1.0000
  Si  Si2       1.0  0.828996479511261  0.9588786363601685  0.5038729906082153  1.0000
  Si  Si3       1.0  0.18377496302127838  0.4486238658428192  0.03285715728998184  1.0000
  Si  Si4       1.0  0.10482107102870941  0.6832941174507141  0.5239676833152771  1.0000
  Sm  Sm1       1.0  0.33520036935806274  0.5474703907966614  0.17296569049358365  1.0000
  Sm  Sm2       1.0  0.1124664917588234  0.556311309337616  0.43822827935218805  1.0000
  Sm  Sm3       1.0  0.3505808115005493  0.19058698415756226  0.6936727762222289  1.0000
  Sm  Sm4       1.0  0.7751802802085876  0.045607175678014755  0.5274830460548401  1.0000
