data_image0
_chemical_formula_structural       Ni2SScSeSi5Sm
_chemical_formula_sum              "Ni2 S1 Sc1 Se1 Si5 Sm1"
_cell_length_a       5.500069516986849
_cell_length_b       6.212288674562456
_cell_length_c       8.557208061218262
_cell_angle_alpha    105.29404850930261
_cell_angle_beta     107.59369707204293
_cell_angle_gamma    88.60854193954444

_space_group_name_H-M_alt    "P 1"
_space_group_IT_number       1

loop_
  _space_group_symop_operation_xyz
  'x, y, z'

loop_
  _atom_site_type_symbol
  _atom_site_label
  _atom_site_symmetry_multiplicity
  _atom_site_fract_x
  _atom_site_fract_y
  _atom_site_fract_z
  _atom_site_occupancy
  Ni  Ni1       1.0  0.7819575667381287  0.7725827693939209  0.8818586468696594  1.0000
  Ni  Ni2       1.0  0.2712767720222473  0.2721641957759857  0.8664470911026001  1.0000
  S   S1        1.0  0.05908805504441261  0.018914394080638885  0.11476770043373108  1.0000
  Sc  Sc1       1.0  0.6417518258094788  0.5158913135528564  0.5340047478675842  1.0000
  Se  Se1       1.0  0.6318890452384949  0.5343418121337891  0.11826404184103012  1.0000
  Si  Si1       1.0  0.7123398780822754  0.4488844871520996  0.3765317499637604  1.0000
  Si  Si2       1.0  0.3727816343307495  0.38846611976623535  0.11278009414672852  1.0000
  Si  Si3       1.0  0.9179360270500183  0.9541306495666504  0.33284932374954224  1.0000
  Si  Si4       1.0  0.6800037622451782  0.04640042409300804  0.9704626202583313  1.0000
  Si  Si5       1.0  0.14763355255126953  0.7836875319480896  0.614661455154419  1.0000
  Sm  Sm1       1.0  0.20905327796936035  0.5793744921684265  0.3890126347541809  1.0000
