data_image0
_chemical_formula_structural       Ni2Si4Sm5
_chemical_formula_sum              "Ni2 Si4 Sm5"
_cell_length_a       4.447895315023762
_cell_length_b       6.6469754951652
_cell_length_c       7.718666076660156
_cell_angle_alpha    114.7138440752747
_cell_angle_beta     91.84228874879783
_cell_angle_gamma    87.28597376656884

_space_group_name_H-M_alt    "P 1"
_space_group_IT_number       1

loop_
  _space_group_symop_operation_xyz
  'x, y, z'

loop_
  _atom_site_type_symbol
  _atom_site_label
  _atom_site_symmetry_multiplicity
  _atom_site_fract_x
  _atom_site_fract_y
  _atom_site_fract_z
  _atom_site_occupancy
  Ni  Ni1       1.0  0.9162792563438416  0.6383410096168518  0.9078346490859985  1.0000
  Ni  Ni2       1.0  0.5749603509902954  0.3639332950115204  0.5840399265289307  1.0000
  Si  Si1       1.0  0.07877745479345322  0.6448865532875061  0.44127538800239563  1.0000
  Si  Si2       1.0  0.5811988711357117  0.18956626951694489  0.9808028340339662  1.0000
  Si  Si3       1.0  0.5701766610145569  0.16252566874027252  0.8276798129081726  1.0000
  Si  Si4       1.0  0.576703667640686  0.7106624245643616  0.6689237952232361  1.0000
  Sm  Sm1       1.0  0.07442265003919601  0.3852377235889435  0.08102931082248688  1.0000
  Sm  Sm2       1.0  0.0720943734049797  0.07383277267217636  0.5817441940307617  1.0000
  Sm  Sm3       1.0  0.5595790147781372  0.4762851297855377  0.15783561766147614  1.0000
  Sm  Sm4       1.0  0.07770738750696182  0.3702114224433899  0.9111145734786987  1.0000
  Sm  Sm5       1.0  0.07785208523273468  0.8542741537094116  0.5809506177902222  1.0000
