data_image0
_chemical_formula_structural       Ni2Si5Sm4
_chemical_formula_sum              "Ni2 Si5 Sm4"
_cell_length_a       5.16273471386084
_cell_length_b       5.75293378102589
_cell_length_c       7.46154260635376
_cell_angle_alpha    112.706498268579
_cell_angle_beta     105.99222810762674
_cell_angle_gamma    89.39547697247825

_space_group_name_H-M_alt    "P 1"
_space_group_IT_number       1

loop_
  _space_group_symop_operation_xyz
  'x, y, z'

loop_
  _atom_site_type_symbol
  _atom_site_label
  _atom_site_symmetry_multiplicity
  _atom_site_fract_x
  _atom_site_fract_y
  _atom_site_fract_z
  _atom_site_occupancy
  Ni  Ni1       1.0  0.8127837181091309  0.21350429952144623  0.183813214302063  1.0000
  Ni  Ni2       1.0  0.21889188885688782  0.9177675247192383  0.06828300654888153  1.0000
  Si  Si1       1.0  0.4268869459629059  0.8503135442733765  0.8180630207061768  1.0000
  Si  Si2       1.0  0.04881571605801582  0.9752187132835388  0.8020625114440918  1.0000
  Si  Si3       1.0  0.6375901699066162  0.7584704756736755  0.529988169670105  1.0000
  Si  Si4       1.0  0.13055671751499176  0.26960229873657227  0.30980610847473145  1.0000
  Si  Si5       1.0  0.8063393235206604  0.23433427512645721  0.7984068393707275  1.0000
  Sm  Sm1       1.0  0.02033281698822975  0.9897867441177368  0.8521632552146912  1.0000
  Sm  Sm2       1.0  0.040519777685403824  0.4830664396286011  0.04633260890841481  1.0000
  Sm  Sm3       1.0  0.5204724073410034  0.4916211664676666  0.17430222034454346  1.0000
  Sm  Sm4       1.0  0.9914393424987793  0.8520582914352417  0.8726288080215454  1.0000
