data_image0
_chemical_formula_structural       Ni2SbSi2Sm6
_chemical_formula_sum              "Ni2 Sb1 Si2 Sm6"
_cell_length_a       4.637157984647913
_cell_length_b       5.420890040695845
_cell_length_c       8.274479866027832
_cell_angle_alpha    110.80775402087492
_cell_angle_beta     102.79377455941783
_cell_angle_gamma    88.59613743699886

_space_group_name_H-M_alt    "P 1"
_space_group_IT_number       1

loop_
  _space_group_symop_operation_xyz
  'x, y, z'

loop_
  _atom_site_type_symbol
  _atom_site_label
  _atom_site_symmetry_multiplicity
  _atom_site_fract_x
  _atom_site_fract_y
  _atom_site_fract_z
  _atom_site_occupancy
  Ni  Ni1       1.0  0.9457955956459045  0.6417343020439148  0.9789217114448547  1.0000
  Ni  Ni2       1.0  0.863806962966919  0.9411865472793578  0.7885685563087463  1.0000
  Sb  Sb1       1.0  0.3464829921722412  0.9464078545570372  0.6024168133735657  1.0000
  Si  Si1       1.0  0.5906487703323364  0.30560317635536194  0.00752465333789587  1.0000
  Si  Si2       1.0  0.8482221364974976  0.8631149530410767  0.5993163585662842  1.0000
  Sm  Sm1       1.0  0.1161930188536644  0.817054808139801  0.3251895010471344  1.0000
  Sm  Sm2       1.0  0.5912506580352783  0.34607571363449097  0.22618582844734192  1.0000
  Sm  Sm3       1.0  0.10642872005701065  0.32639890909194946  0.3084471821784973  1.0000
  Sm  Sm4       1.0  0.08192087709903717  0.32866567373275757  0.8183083534240723  1.0000
  Sm  Sm5       1.0  0.6125094294548035  0.6449087262153625  0.2909261882305145  1.0000
  Sm  Sm6       1.0  0.5048035979270935  0.6005885004997253  0.7466869354248047  1.0000
