data_image0
_chemical_formula_structural       Ni2Si4Sm5
_chemical_formula_sum              "Ni2 Si4 Sm5"
_cell_length_a       4.305217720373579
_cell_length_b       4.780585674461868
_cell_length_c       8.263215065002441
_cell_angle_alpha    109.07084655449434
_cell_angle_beta     102.21125378974573
_cell_angle_gamma    89.5109168129824

_space_group_name_H-M_alt    "P 1"
_space_group_IT_number       1

loop_
  _space_group_symop_operation_xyz
  'x, y, z'

loop_
  _atom_site_type_symbol
  _atom_site_label
  _atom_site_symmetry_multiplicity
  _atom_site_fract_x
  _atom_site_fract_y
  _atom_site_fract_z
  _atom_site_occupancy
  Ni  Ni1       1.0  0.5612037777900696  0.33468014001846313  0.31255394220352173  1.0000
  Ni  Ni2       1.0  0.5053109526634216  0.6374788880348206  0.3193540871143341  1.0000
  Si  Si1       1.0  0.6732960939407349  0.7946347594261169  0.6348720788955688  1.0000
  Si  Si2       1.0  0.1802978217601776  0.7877336740493774  0.20722994208335876  1.0000
  Si  Si3       1.0  0.6820444464683533  0.7894182801246643  0.06663446873426437  1.0000
  Si  Si4       1.0  0.2019699215888977  0.3045523762702942  0.8085689544677734  1.0000
  Sm  Sm1       1.0  0.7007421255111694  0.2940564453601837  0.043242521584033966  1.0000
  Sm  Sm2       1.0  0.1715930998325348  0.27861008048057556  0.30621030926704407  1.0000
  Sm  Sm3       1.0  0.08052796870470047  0.5151126980781555  0.5228759050369263  1.0000
  Sm  Sm4       1.0  0.18615400791168213  0.79948490858078  0.9552700519561768  1.0000
  Sm  Sm5       1.0  0.6711558699607849  0.28065717220306396  0.6211020350456238  1.0000
