data_image0
_chemical_formula_structural       Li2O3Sr6
_chemical_formula_sum              "Li2 O3 Sr6"
_cell_length_a       5.882962806838411
_cell_length_b       6.55626227414354
_cell_length_c       6.545424938201904
_cell_angle_alpha    58.15178683944067
_cell_angle_beta     59.98180936755574
_cell_angle_gamma    61.68542784032456

_space_group_name_H-M_alt    "P 1"
_space_group_IT_number       1

loop_
  _space_group_symop_operation_xyz
  'x, y, z'

loop_
  _atom_site_type_symbol
  _atom_site_label
  _atom_site_symmetry_multiplicity
  _atom_site_fract_x
  _atom_site_fract_y
  _atom_site_fract_z
  _atom_site_occupancy
  Li  Li1       1.0  0.3725234866142273  0.6284098029136658  0.8078863024711608  1.0000
  Li  Li2       1.0  0.23767441511154175  0.21155220270156858  0.6046708822250366  1.0000
  O   O1        1.0  0.11573195457458496  0.2063169032335281  0.7100339531898499  1.0000
  O   O2        1.0  0.5880782008171082  0.803041636943817  0.9975805282592772  1.0000
  O   O3        1.0  0.5678138732910156  0.047113534063100815  0.5720679759979248  1.0000
  Sr  Sr1       1.0  0.9662492275238037  0.2908574044704437  0.2751648128032685  1.0000
  Sr  Sr2       1.0  0.7346868515014648  0.9790074229240416  0.20932020246982572  1.0000
  Sr  Sr3       1.0  0.2712440490722657  0.8300131559371947  0.001419163192622355  1.0000
  Sr  Sr4       1.0  0.7862285375595093  0.6956827044487  0.22629959881305692  1.0000
  Sr  Sr5       1.0  0.2770661115646363  0.8849698901176452  0.2933329641819  1.0000
  Sr  Sr6       1.0  0.24954648315906525  0.17924518883228302  0.713959276676178  1.0000
