data_image0
_chemical_formula_structural       ILiO3Sr6
_chemical_formula_sum              "I1 Li1 O3 Sr6"
_cell_length_a       4.73880651977575
_cell_length_b       7.693928878266865
_cell_length_c       7.894082546234131
_cell_angle_alpha    89.31567588508352
_cell_angle_beta     90.8020019960165
_cell_angle_gamma    90.37679203687925

_space_group_name_H-M_alt    "P 1"
_space_group_IT_number       1

loop_
  _space_group_symop_operation_xyz
  'x, y, z'

loop_
  _atom_site_type_symbol
  _atom_site_label
  _atom_site_symmetry_multiplicity
  _atom_site_fract_x
  _atom_site_fract_y
  _atom_site_fract_z
  _atom_site_occupancy
  I   I1        1.0  0.9928508400917053  0.04313508793711662  0.47617951035499567  1.0000
  Li  Li1       1.0  0.005937485024333002  0.7892632484436036  0.8321948051452637  1.0000
  O   O1        1.0  0.0016571823507547379  0.5723530650138855  0.14622589945793152  1.0000
  O   O2        1.0  0.45002034306526184  0.12024501711130144  0.16390982270240784  1.0000
  O   O3        1.0  0.4772740304470062  0.7007178068161011  0.09666114300489426  1.0000
  Sr  Sr1       1.0  0.4927564561367035  0.04071483388543129  0.8970691561698912  1.0000
  Sr  Sr2       1.0  0.9959376454353333  0.05674302577972413  0.46178349852561945  1.0000
  Sr  Sr3       1.0  0.49246779084205633  0.4246810376644135  0.03125815838575363  1.0000
  Sr  Sr4       1.0  0.497897356748581  0.44142445921897894  0.5720248222351074  1.0000
  Sr  Sr5       1.0  0.4817100465297699  0.35684823989868164  0.6034536957740784  1.0000
  Sr  Sr6       1.0  0.7354223728179932  0.8925024867057801  0.6620792150497437  1.0000
