data_image0
_chemical_formula_structural       OSr9Te
_chemical_formula_sum              "O1 Sr9 Te1"
_cell_length_a       8.58814691120909
_cell_length_b       8.164939339437753
_cell_length_c       8.090418815612793
_cell_angle_alpha    111.87392434242165
_cell_angle_beta     113.69957263277709
_cell_angle_gamma    109.54243700628231

_space_group_name_H-M_alt    "P 1"
_space_group_IT_number       1

loop_
  _space_group_symop_operation_xyz
  'x, y, z'

loop_
  _atom_site_type_symbol
  _atom_site_label
  _atom_site_symmetry_multiplicity
  _atom_site_fract_x
  _atom_site_fract_y
  _atom_site_fract_z
  _atom_site_occupancy
  O   O1        1.0  0.6272105574607849  0.1989602893590927  0.5123637318611145  1.0000
  Sr  Sr1       1.0  0.6992735266685486  0.2486194223165512  0.3770565688610077  1.0000
  Sr  Sr2       1.0  0.21687164902687073  0.5225508809089661  0.8666184544563293  1.0000
  Sr  Sr3       1.0  0.6937662959098816  0.8273730874061584  0.4002920687198639  1.0000
  Sr  Sr4       1.0  0.20052628219127655  0.6666967868804932  0.834281861782074  1.0000
  Sr  Sr5       1.0  0.2829231917858124  0.4234994351863861  0.027286572381854057  1.0000
  Sr  Sr6       1.0  0.1859799325466156  0.8408491611480713  0.16562829911708832  1.0000
  Sr  Sr7       1.0  0.006958949379622936  0.3570016622543335  0.252554714679718  1.0000
  Sr  Sr8       1.0  0.213568776845932  0.23665772378444672  0.2563849687576294  1.0000
  Sr  Sr9       1.0  0.7048686742782593  0.3929043710231781  0.4084916412830353  1.0000
  Te  Te1       1.0  0.10239896178245544  0.15056979656219482  0.7478216886520386  1.0000
