data_image0
_chemical_formula_structural       OSr8Te2
_chemical_formula_sum              "O1 Sr8 Te2"
_cell_length_a       7.830537857856383
_cell_length_b       7.875441154352143
_cell_length_c       8.17299747467041
_cell_angle_alpha    100.55028898529966
_cell_angle_beta     107.5537085734629
_cell_angle_gamma    97.2096354115725

_space_group_name_H-M_alt    "P 1"
_space_group_IT_number       1

loop_
  _space_group_symop_operation_xyz
  'x, y, z'

loop_
  _atom_site_type_symbol
  _atom_site_label
  _atom_site_symmetry_multiplicity
  _atom_site_fract_x
  _atom_site_fract_y
  _atom_site_fract_z
  _atom_site_occupancy
  O   O1        1.0  0.4429003596305847  0.47164180874824524  0.1453602910041809  1.0000
  Sr  Sr1       1.0  0.557418942451477  0.8049109578132629  0.33816856145858765  1.0000
  Sr  Sr2       1.0  0.08404257893562317  0.9954848885536194  0.4970584511756897  1.0000
  Sr  Sr3       1.0  0.12613047659397125  0.9793378710746765  0.5458446741104126  1.0000
  Sr  Sr4       1.0  0.5670923590660095  0.2950291335582733  0.21655184030532837  1.0000
  Sr  Sr5       1.0  0.5693190097808838  0.3384023904800415  0.24151122570037842  1.0000
  Sr  Sr6       1.0  0.9665868878364563  0.8903437852859497  0.5860432386398315  1.0000
  Sr  Sr7       1.0  0.062058839946985245  0.40715956687927246  0.9985405802726746  1.0000
  Sr  Sr8       1.0  0.5908538103103638  0.6743041276931763  0.5455408096313477  1.0000
  Te  Te1       1.0  0.8027501106262207  0.6765193939208984  0.946298360824585  1.0000
  Te  Te2       1.0  0.07386244088411331  0.4283950924873352  0.48439735174179077  1.0000
