data_image0
_chemical_formula_structural       CO3Sr6Te
_chemical_formula_sum              "C1 O3 Sr6 Te1"
_cell_length_a       6.051251303654422
_cell_length_b       7.360363491140963
_cell_length_c       7.451106071472168
_cell_angle_alpha    61.779543745522794
_cell_angle_beta     65.46215214836917
_cell_angle_gamma    64.71555665497128

_space_group_name_H-M_alt    "P 1"
_space_group_IT_number       1

loop_
  _space_group_symop_operation_xyz
  'x, y, z'

loop_
  _atom_site_type_symbol
  _atom_site_label
  _atom_site_symmetry_multiplicity
  _atom_site_fract_x
  _atom_site_fract_y
  _atom_site_fract_z
  _atom_site_occupancy
  C   C1        1.0  0.8692822456359863  0.7678201794624329  0.0030988999642432334  1.0000
  O   O1        1.0  0.7990384697914124  0.047427259385585785  0.635974109172821  1.0000
  O   O2        1.0  0.902959406375885  0.8938223123550415  0.6672148704528809  1.0000
  O   O3        1.0  0.36566996574401855  0.40565958619117737  0.07580161094665527  1.0000
  Sr  Sr1       1.0  0.5317236185073853  0.6104534864425659  0.4004709422588349  1.0000
  Sr  Sr2       1.0  0.31291845440864563  0.39109542965888977  0.6405652761459351  1.0000
  Sr  Sr3       1.0  0.7125491499900818  0.7542205452919006  0.563583254814148  1.0000
  Sr  Sr4       1.0  0.3571873605251312  0.8612543940544128  0.15760093927383423  1.0000
  Sr  Sr5       1.0  0.3440457284450531  0.8354629278182983  0.31582018733024597  1.0000
  Sr  Sr6       1.0  0.8840665221214294  0.7011558413505554  0.8888186812400819  1.0000
  Te  Te1       1.0  0.5351741313934326  0.6430032849311829  0.3586240112781525  1.0000
