data_image0
_chemical_formula_structural       I2LiNbO3Sr3Ti
_chemical_formula_sum              "I2 Li1 Nb1 O3 Sr3 Ti1"
_cell_length_a       5.807936546925711
_cell_length_b       6.384994285722487
_cell_length_c       8.649394035339355
_cell_angle_alpha    69.08577117275242
_cell_angle_beta     68.7950817486127
_cell_angle_gamma    63.390497562234636

_space_group_name_H-M_alt    "P 1"
_space_group_IT_number       1

loop_
  _space_group_symop_operation_xyz
  'x, y, z'

loop_
  _atom_site_type_symbol
  _atom_site_label
  _atom_site_symmetry_multiplicity
  _atom_site_fract_x
  _atom_site_fract_y
  _atom_site_fract_z
  _atom_site_occupancy
  I   I1        1.0  0.8112136721611023  0.734805703163147  0.0006242847302928695  1.0000
  I   I2        1.0  0.49174603819847107  0.7163066864013672  0.9113437533378601  1.0000
  Li  Li1       1.0  0.8033329844474792  0.34625139832496643  0.42291730642318726  1.0000
  Nb  Nb1       1.0  0.8040194511413574  0.5318710207939148  0.276503324508667  1.0000
  O   O1        1.0  0.35880526900291443  0.17805908620357513  0.3745468258857727  1.0000
  O   O2        1.0  0.8221567869186401  0.8871344327926636  0.7648999691009521  1.0000
  O   O3        1.0  0.3408449590206146  0.36256343126296997  0.04623359814286232  1.0000
  Sr  Sr1       1.0  0.388346791267395  0.41305193305015564  0.58363938331604  1.0000
  Sr  Sr2       1.0  0.5038741230964661  0.2481246441602707  0.9369999170303345  1.0000
  Sr  Sr3       1.0  0.8057683110237122  0.1955655813217163  0.980118453502655  1.0000
  Ti  Ti1       1.0  0.2955242991447449  0.11756151914596558  0.4534841477870941  1.0000
