data_image0
_chemical_formula_structural       CsGdMn6O2Zn
_chemical_formula_sum              "Cs1 Gd1 Mn6 O2 Zn1"
_cell_length_a       6.382584792574072
_cell_length_b       6.596796100486523
_cell_length_c       7.027693748474121
_cell_angle_alpha    108.62860463895474
_cell_angle_beta     105.23731712370429
_cell_angle_gamma    115.68499011432932

_space_group_name_H-M_alt    "P 1"
_space_group_IT_number       1

loop_
  _space_group_symop_operation_xyz
  'x, y, z'

loop_
  _atom_site_type_symbol
  _atom_site_label
  _atom_site_symmetry_multiplicity
  _atom_site_fract_x
  _atom_site_fract_y
  _atom_site_fract_z
  _atom_site_occupancy
  Cs  Cs1       1.0  0.407938688993454  0.5003213286399841  0.39816501736640925  1.0000
  Gd  Gd1       1.0  0.8074477314949036  0.2208719700574875  0.08103714138269424  1.0000
  Mn  Mn1       1.0  0.3799317181110382  0.21842679381370544  0.2692149877548218  1.0000
  Mn  Mn2       1.0  0.1857675462961197  0.7055647969245911  0.7946776151657103  1.0000
  Mn  Mn3       1.0  0.8158851265907288  0.14391368627548218  0.8223509192466735  1.0000
  Mn  Mn4       1.0  0.8176840543746948  0.6894556283950806  0.24307890236377713  1.0000
  Mn  Mn5       1.0  0.8125384449958801  0.15344847738742828  0.4937008917331695  1.0000
  Mn  Mn6       1.0  0.8205925226211548  0.17971283197402954  0.14218607544898987  1.0000
  O   O1        1.0  0.9120664596557617  0.7624779343605042  0.4753118157386779  1.0000
  O   O2        1.0  0.6813653707504272  0.8912501931190491  0.7226784229278563  1.0000
  Zn  Zn1       1.0  0.5796602964401245  0.5842267870903015  0.7234126925468444  1.0000
