data_image0
_chemical_formula_structural       CeMn7O2Zn
_chemical_formula_sum              "Ce1 Mn7 O2 Zn1"
_cell_length_a       6.790678691679104
_cell_length_b       6.493181904043028
_cell_length_c       6.782598972320557
_cell_angle_alpha    104.72846930256745
_cell_angle_beta     108.25760862876645
_cell_angle_gamma    115.44866978895801

_space_group_name_H-M_alt    "P 1"
_space_group_IT_number       1

loop_
  _space_group_symop_operation_xyz
  'x, y, z'

loop_
  _atom_site_type_symbol
  _atom_site_label
  _atom_site_symmetry_multiplicity
  _atom_site_fract_x
  _atom_site_fract_y
  _atom_site_fract_z
  _atom_site_occupancy
  Ce  Ce1       1.0  0.983196198940277  0.05979316681623459  0.6127635836601257  1.0000
  Mn  Mn1       1.0  0.9923635125160216  0.3168826103210449  0.681111216545105  1.0000
  Mn  Mn2       1.0  0.22652457654476163  0.7212139964103699  0.7226864695549012  1.0000
  Mn  Mn3       1.0  0.4737681150436401  0.5781459808349609  0.39756748080253607  1.0000
  Mn  Mn4       1.0  0.47143912315368647  0.06612233817577362  0.9113217592239381  1.0000
  Mn  Mn5       1.0  0.5118585824966431  0.053248174488544464  0.10258556157350542  1.0000
  Mn  Mn6       1.0  0.18868860602378842  0.0264581311494112  0.1396716684103012  1.0000
  Mn  Mn7       1.0  0.7460378408432006  0.05961829051375389  0.3862967491149903  1.0000
  O   O1        1.0  0.1930533945560455  0.0344231054186821  0.38921171426773077  1.0000
  O   O2        1.0  0.4638196229934692  0.6006452441215515  0.951137661933899  1.0000
  Zn  Zn1       1.0  0.9494227170944213  0.5340931415557861  0.6709154844284058  1.0000
