data_image0
_chemical_formula_structural       AsHMn5O2ScZn
_chemical_formula_sum              "As1 H1 Mn5 O2 Sc1 Zn1"
_cell_length_a       6.031645943612393
_cell_length_b       6.4515706910444965
_cell_length_c       6.542299747467041
_cell_angle_alpha    113.2454485335856
_cell_angle_beta     104.57063878265937
_cell_angle_gamma    112.02489371593747

_space_group_name_H-M_alt    "P 1"
_space_group_IT_number       1

loop_
  _space_group_symop_operation_xyz
  'x, y, z'

loop_
  _atom_site_type_symbol
  _atom_site_label
  _atom_site_symmetry_multiplicity
  _atom_site_fract_x
  _atom_site_fract_y
  _atom_site_fract_z
  _atom_site_occupancy
  As  As1       1.0  0.3635883629322052  0.4015468657016754  0.511931300163269  1.0000
  H   H1        1.0  0.5079290270805359  0.11884096264839172  0.5255356431007385  1.0000
  Mn  Mn1       1.0  0.836226463317871  0.4186970889568329  0.33291012048721313  1.0000
  Mn  Mn2       1.0  0.8013192415237426  0.7165011763572693  0.9847719073295593  1.0000
  Mn  Mn3       1.0  0.7806267142295836  0.2602040767669678  0.46235620975494385  1.0000
  Mn  Mn4       1.0  0.0578203722834587  0.04712095111608505  0.9679010510444641  1.0000
  Mn  Mn5       1.0  0.5127281546592712  0.8772590160369873  0.9859033823013306  1.0000
  O   O1        1.0  0.9419693946838378  0.658926248550415  0.42067965865135193  1.0000
  O   O2        1.0  0.231306716799736  0.44173312187194824  0.010103862732648815  1.0000
  Sc  Sc1       1.0  0.2760249078273773  0.23954059183597565  0.49565452337265015  1.0000
  Zn  Zn1       1.0  0.7027738690376282  0.2938452363014221  0.11069312691688538  1.0000
