data_image0
_chemical_formula_structural       As6Mn4O
_chemical_formula_sum              "As6 Mn4 O1"
_cell_length_a       5.1082111973995525
_cell_length_b       5.878053441065726
_cell_length_c       7.010509490966797
_cell_angle_alpha    96.91827334634168
_cell_angle_beta     87.7140189060427
_cell_angle_gamma    108.96567087298808

_space_group_name_H-M_alt    "P 1"
_space_group_IT_number       1

loop_
  _space_group_symop_operation_xyz
  'x, y, z'

loop_
  _atom_site_type_symbol
  _atom_site_label
  _atom_site_symmetry_multiplicity
  _atom_site_fract_x
  _atom_site_fract_y
  _atom_site_fract_z
  _atom_site_occupancy
  As  As1       1.0  0.2496391832828522  0.7462854385375978  0.23704159259796143  1.0000
  As  As2       1.0  0.8035503029823303  0.9935861825942994  0.15448179841041565  1.0000
  As  As3       1.0  0.22907286882400513  0.4359506964683533  0.4580875635147095  1.0000
  As  As4       1.0  0.8997046947479248  0.9512741565704347  0.4419594705104828  1.0000
  As  As5       1.0  0.7253776788711548  0.48080083727836614  0.18648235499858856  1.0000
  As  As6       1.0  0.6336066722869873  0.6534924507141113  0.43834689259529114  1.0000
  Mn  Mn1       1.0  0.19583083689212802  0.7492694854736329  0.9722186923027039  1.0000
  Mn  Mn2       1.0  0.197174072265625  0.4526036679744721  0.6281741261482239  1.0000
  Mn  Mn3       1.0  0.7411872744560242  0.23594783246517184  0.45254018902778625  1.0000
  Mn  Mn4       1.0  0.6786279678344727  0.45416700839996343  0.5151199102401733  1.0000
  O   O1        1.0  0.4708694517612457  0.22652828693389895  0.12035387009382248  1.0000
