data_image0
_chemical_formula_structural       H2Mn5O2ScZn
_chemical_formula_sum              "H2 Mn5 O2 Sc1 Zn1"
_cell_length_a       6.025624721750894
_cell_length_b       6.229812171025944
_cell_length_c       6.59536600112915
_cell_angle_alpha    110.90021778390357
_cell_angle_beta     102.88260268166296
_cell_angle_gamma    112.62687842810837

_space_group_name_H-M_alt    "P 1"
_space_group_IT_number       1

loop_
  _space_group_symop_operation_xyz
  'x, y, z'

loop_
  _atom_site_type_symbol
  _atom_site_label
  _atom_site_symmetry_multiplicity
  _atom_site_fract_x
  _atom_site_fract_y
  _atom_site_fract_z
  _atom_site_occupancy
  H   H1        1.0  0.9394481182098389  0.013222849927842617  0.14810325205326075  1.0000
  H   H2        1.0  0.4844251573085785  0.5467512011528015  0.8936071395874022  1.0000
  Mn  Mn1       1.0  0.4369014501571655  0.03312550485134125  0.4664056301116943  1.0000
  Mn  Mn2       1.0  0.9404464364051819  0.5784354209899902  0.3447965085506439  1.0000
  Mn  Mn3       1.0  0.47777414321899414  0.28546199202537537  0.7038852572441101  1.0000
  Mn  Mn4       1.0  0.9164034724235535  0.39539793133735657  0.6335044503211975  1.0000
  Mn  Mn5       1.0  0.958348274230957  0.7322690486907959  0.8983993530273436  1.0000
  O   O1        1.0  0.612998902797699  0.033577028661966324  0.14684517681598663  1.0000
  O   O2        1.0  0.5312416553497314  0.5716490149497986  0.9003795385360717  1.0000
  Sc  Sc1       1.0  0.19606932997703552  0.5801252722740173  0.1634591519832611  1.0000
  Zn  Zn1       1.0  0.7477154731750488  0.2684582471847534  0.3765974640846252  1.0000
