data_image0
_chemical_formula_structural       As4Mn6O
_chemical_formula_sum              "As4 Mn6 O1"
_cell_length_a       3.111363762815022
_cell_length_b       5.108633111350956
_cell_length_c       6.755457401275635
_cell_angle_alpha    94.61429325936949
_cell_angle_beta     73.1206201051977
_cell_angle_gamma    160.72943694032568

_space_group_name_H-M_alt    "P 1"
_space_group_IT_number       1

loop_
  _space_group_symop_operation_xyz
  'x, y, z'

loop_
  _atom_site_type_symbol
  _atom_site_label
  _atom_site_symmetry_multiplicity
  _atom_site_fract_x
  _atom_site_fract_y
  _atom_site_fract_z
  _atom_site_occupancy
  As  As1       1.0  0.46639993786811834  0.7073817253112793  0.5237676501274109  1.0000
  As  As2       1.0  0.34832286834716797  0.08068997412919998  0.5644243955612184  1.0000
  As  As3       1.0  0.7608075737953186  0.9968966841697693  0.04678949341177939  1.0000
  As  As4       1.0  0.5486608743667603  0.6599860787391663  0.1973579227924347  1.0000
  Mn  Mn1       1.0  0.7948002219200135  0.9712563157081604  0.8546695709228516  1.0000
  Mn  Mn2       1.0  0.139144167304039  0.40115997195243835  0.25030913949012756  1.0000
  Mn  Mn3       1.0  0.203669086098671  0.9018777012825012  0.14092904329299927  1.0000
  Mn  Mn4       1.0  0.44297042489051824  0.4284983277320862  0.029421078041195866  1.0000
  Mn  Mn5       1.0  0.7418847680091858  0.2869621515274048  0.7412038445472717  1.0000
  Mn  Mn6       1.0  0.08418861776590347  0.7779689431190491  0.5444850921630859  1.0000
  O   O1        1.0  0.17962434887886047  0.37930843234062195  0.111503466963768  1.0000
