data_image0
_chemical_formula_structural       As2FNTeZr
_chemical_formula_sum              "As2 F1 N1 Te1 Zr1"
_cell_length_a       5.129122140798986
_cell_length_b       5.110480935449138
_cell_length_c       5.045771598815918
_cell_angle_alpha    91.49916209781671
_cell_angle_beta     90.99892550491833
_cell_angle_gamma    91.39458294739437

_space_group_name_H-M_alt    "P 1"
_space_group_IT_number       1

loop_
  _space_group_symop_operation_xyz
  'x, y, z'

loop_
  _atom_site_type_symbol
  _atom_site_label
  _atom_site_symmetry_multiplicity
  _atom_site_fract_x
  _atom_site_fract_y
  _atom_site_fract_z
  _atom_site_occupancy
  As  As1       1.0  0.7620102167129517  0.06643610447645187  0.23021355271339417  1.0000
  As  As2       1.0  0.07510741800069809  0.742850661277771  0.24218334257602692  1.0000
  F   F1        1.0  0.2751222848892212  0.9595125317573547  0.7746451497077942  1.0000
  N   N1        1.0  0.28650155663490295  0.45403212308883667  0.13421541452407837  1.0000
  Te  Te1       1.0  0.7535842061042786  0.4914458990097046  0.6560995578765869  1.0000
  Zr  Zr1       1.0  0.2751835584640503  0.22953717410564423  0.4647675156593323  1.0000
