data_image0
_chemical_formula_structural       As3C3
_chemical_formula_sum              "As3 C3"
_cell_length_a       3.29789325006724
_cell_length_b       3.3597863461882316
_cell_length_c       8.997407913208008
_cell_angle_alpha    90.16435556018345
_cell_angle_beta     89.97990985179018
_cell_angle_gamma    120.61223862776839

_space_group_name_H-M_alt    "P 1"
_space_group_IT_number       1

loop_
  _space_group_symop_operation_xyz
  'x, y, z'

loop_
  _atom_site_type_symbol
  _atom_site_label
  _atom_site_symmetry_multiplicity
  _atom_site_fract_x
  _atom_site_fract_y
  _atom_site_fract_z
  _atom_site_occupancy
  As  As1       1.0  0.5500775575637817  0.2374488264322281  0.7903824448585509  1.0000
  As  As2       1.0  0.20865029096603394  0.5843523740768433  0.0148617597296834  1.0000
  As  As3       1.0  0.8820318579673767  0.9071484804153442  0.5152112245559692  1.0000
  C   C1        1.0  0.2121928185224533  0.5823295712471008  0.32597038149833674  1.0000
  C   C2        1.0  0.546246349811554  0.24701040983200073  0.28336021304130554  1.0000
  C   C3        1.0  0.8665896058082581  0.9086245894432068  0.2301540970802307  1.0000
