data_image0
_chemical_formula_structural       BaO3RhTa4
_chemical_formula_sum              "Ba1 O3 Rh1 Ta4"
_cell_length_a       4.385829180792564
_cell_length_b       4.251501794865213
_cell_length_c       7.284229278564453
_cell_angle_alpha    104.28847995410517
_cell_angle_beta     102.63740600512787
_cell_angle_gamma    99.83886553766064

_space_group_name_H-M_alt    "P 1"
_space_group_IT_number       1

loop_
  _space_group_symop_operation_xyz
  'x, y, z'

loop_
  _atom_site_type_symbol
  _atom_site_label
  _atom_site_symmetry_multiplicity
  _atom_site_fract_x
  _atom_site_fract_y
  _atom_site_fract_z
  _atom_site_occupancy
  Ba  Ba1       1.0  0.8853486776351929  0.9200410842895508  0.9628539085388184  1.0000
  O   O1        1.0  0.4025552272796631  0.4052894711494446  0.9560343623161316  1.0000
  O   O2        1.0  0.3702827990055084  0.7730886340141296  0.7709653973579407  1.0000
  O   O3        1.0  0.8493487238883972  0.27370548248291016  0.7490966320037842  1.0000
  Rh  Rh1       1.0  0.6023712754249573  0.7801044583320618  0.9324244260787964  1.0000
  Ta  Ta1       1.0  0.18953648209571838  0.7936409115791321  0.9163588285446167  1.0000
  Ta  Ta2       1.0  0.6489781141281128  0.4894452393054962  0.1648567020893097  1.0000
  Ta  Ta3       1.0  0.11689981818199158  0.6300456523895264  0.8677592277526855  1.0000
  Ta  Ta4       1.0  0.6872758269309998  0.2692842185497284  0.7056084871292114  1.0000
