data_image0
_chemical_formula_structural       O3Ta6
_chemical_formula_sum              "O3 Ta6"
_cell_length_a       3.484124461719874
_cell_length_b       3.8932076329222256
_cell_length_c       7.74544620513916
_cell_angle_alpha    76.66442787377179
_cell_angle_beta     71.77197883460022
_cell_angle_gamma    59.85099120674205

_space_group_name_H-M_alt    "P 1"
_space_group_IT_number       1

loop_
  _space_group_symop_operation_xyz
  'x, y, z'

loop_
  _atom_site_type_symbol
  _atom_site_label
  _atom_site_symmetry_multiplicity
  _atom_site_fract_x
  _atom_site_fract_y
  _atom_site_fract_z
  _atom_site_occupancy
  O   O1        1.0  0.41494783759117126  0.08532457798719406  0.36684915423393244  1.0000
  O   O2        1.0  0.5378979444503784  0.1920008808374405  0.7016860842704772  1.0000
  O   O3        1.0  0.830329954624176  0.46902754902839666  0.15748968720436093  1.0000
  Ta  Ta1       1.0  0.866686999797821  0.8151258230209351  0.766111135482788  1.0000
  Ta  Ta2       1.0  0.5607301592826843  0.766695499420166  0.03390790522098538  1.0000
  Ta  Ta3       1.0  0.22274146974086761  0.18395230174064636  0.10410166531801222  1.0000
  Ta  Ta4       1.0  0.41623476147651667  0.9380880594253541  0.4567090272903442  1.0000
  Ta  Ta5       1.0  0.9757856726646423  0.6868794560432434  0.21574956178665156  1.0000
  Ta  Ta6       1.0  0.40898382663726807  0.4653998017311097  0.6598090529441832  1.0000
