data_image0
_chemical_formula_structural       O3Ta6
_chemical_formula_sum              "O3 Ta6"
_cell_length_a       3.2661058464530655
_cell_length_b       3.3603757740125086
_cell_length_c       13.19665813446045
_cell_angle_alpha    103.42589761370019
_cell_angle_beta     79.79969757738411
_cell_angle_gamma    80.23229072886504

_space_group_name_H-M_alt    "P 1"
_space_group_IT_number       1

loop_
  _space_group_symop_operation_xyz
  'x, y, z'

loop_
  _atom_site_type_symbol
  _atom_site_label
  _atom_site_symmetry_multiplicity
  _atom_site_fract_x
  _atom_site_fract_y
  _atom_site_fract_z
  _atom_site_occupancy
  O   O1        1.0  0.5333710312843323  0.7789784073829651  0.07927861064672469  1.0000
  O   O2        1.0  0.7544006109237671  0.2568332850933075  0.41197168827056885  1.0000
  O   O3        1.0  0.0021883249282836914  0.7825216054916382  0.7720892429351807  1.0000
  Ta  Ta1       1.0  0.09581343829631805  0.17185789346694946  0.06678159534931183  1.0000
  Ta  Ta2       1.0  0.518308699131012  0.7718278169631958  0.017618680372834192  1.0000
  Ta  Ta3       1.0  0.5341566801071167  0.7863550782203674  0.2686927616596222  1.0000
  Ta  Ta4       1.0  0.5143151879310608  0.7707059979438782  0.4073306620121002  1.0000
  Ta  Ta5       1.0  0.5812867879867554  0.11316037178039551  0.7530561685562134  1.0000
  Ta  Ta6       1.0  0.0710044726729393  0.6332114338874817  0.24230962991714478  1.0000
