data_image0
_chemical_formula_structural       BLaO4Ta3
_chemical_formula_sum              "B1 La1 O4 Ta3"
_cell_length_a       4.696917711728818
_cell_length_b       4.7342900466415125
_cell_length_c       7.669412612915039
_cell_angle_alpha    75.90661158020943
_cell_angle_beta     73.38448293730592
_cell_angle_gamma    63.87729368178909

_space_group_name_H-M_alt    "P 1"
_space_group_IT_number       1

loop_
  _space_group_symop_operation_xyz
  'x, y, z'

loop_
  _atom_site_type_symbol
  _atom_site_label
  _atom_site_symmetry_multiplicity
  _atom_site_fract_x
  _atom_site_fract_y
  _atom_site_fract_z
  _atom_site_occupancy
  B   B1        1.0  0.7540754079818726  0.8061718940734863  0.08989709615707397  1.0000
  La  La1       1.0  0.05497929826378822  0.3147740960121155  0.00692680012434721  1.0000
  O   O1        1.0  0.622489869594574  0.589903712272644  0.976881206035614  1.0000
  O   O2        1.0  0.03401683643460274  0.9124919176101685  0.9843561053276062  1.0000
  O   O3        1.0  0.7278439998626709  0.4173341691493988  0.6058946251869202  1.0000
  O   O4        1.0  0.7275874614715576  0.18362708389759064  0.7204254269599915  1.0000
  Ta  Ta1       1.0  0.39022397994995117  0.6618178486824036  0.6265547871589661  1.0000
  Ta  Ta2       1.0  0.38547685742378235  0.17587967216968536  0.707549512386322  1.0000
  Ta  Ta3       1.0  0.10181447863578796  0.1303076446056366  0.37760940194129944  1.0000
