data_image0
_chemical_formula_structural       AlAsGeIO2Pb3Zr
_chemical_formula_sum              "Al1 As1 Ge1 I1 O2 Pb3 Zr1"
_cell_length_a       6.31940914998043
_cell_length_b       7.526525289660463
_cell_length_c       7.732715129852295
_cell_angle_alpha    123.12209961678683
_cell_angle_beta     96.62044510086288
_cell_angle_gamma    101.01032017381868

_space_group_name_H-M_alt    "P 1"
_space_group_IT_number       1

loop_
  _space_group_symop_operation_xyz
  'x, y, z'

loop_
  _atom_site_type_symbol
  _atom_site_label
  _atom_site_symmetry_multiplicity
  _atom_site_fract_x
  _atom_site_fract_y
  _atom_site_fract_z
  _atom_site_occupancy
  Al  Al1       1.0  0.6113964319229126  0.7846537828445436  0.4694803059101105  1.0000
  As  As1       1.0  0.005726658273488283  0.297801673412323  0.4263022541999817  1.0000
  Ge  Ge1       1.0  0.5116313099861145  0.05818521231412888  0.282243013381958  1.0000
  I   I1        1.0  0.009575111791491508  0.6109604239463806  0.9477134943008423  1.0000
  O   O1        1.0  0.004315378144383435  0.10350341349840166  0.4075753688812256  1.0000
  O   O2        1.0  0.4842711389064789  0.4223586022853852  0.7918868064880371  1.0000
  Pb  Pb1       1.0  0.5199065208435059  0.4644832909107209  0.09625044465064997  1.0000
  Pb  Pb2       1.0  0.02035974338650707  0.9839536547660829  0.9695834517478943  1.0000
  Pb  Pb3       1.0  0.02324426174163822  0.8957065343856813  0.7821550369262695  1.0000
  Zr  Zr1       1.0  0.018656644970178604  0.03687401860952377  0.9564852118492126  1.0000
