data_image0
_chemical_formula_structural       Hg10
_chemical_formula_sum              "Hg10"
_cell_length_a       5.275925149044876
_cell_length_b       6.345263996218907
_cell_length_c       5.8727216720581055
_cell_angle_alpha    142.9867431547674
_cell_angle_beta     84.20420309825148
_cell_angle_gamma    92.75704911831295

_space_group_name_H-M_alt    "P 1"
_space_group_IT_number       1

loop_
  _space_group_symop_operation_xyz
  'x, y, z'

loop_
  _atom_site_type_symbol
  _atom_site_label
  _atom_site_symmetry_multiplicity
  _atom_site_fract_x
  _atom_site_fract_y
  _atom_site_fract_z
  _atom_site_occupancy
  Hg  Hg1       1.0  0.10616316646337509  0.4199268817901612  0.6781747937202455  1.0000
  Hg  Hg2       1.0  0.12273754179477692  0.6269752383232117  0.7998536825180054  1.0000
  Hg  Hg3       1.0  0.12256632000207901  0.6349757313728333  0.8053250312805176  1.0000
  Hg  Hg4       1.0  0.11634588241577148  0.6061811447143555  0.11450370401144028  1.0000
  Hg  Hg5       1.0  0.6268903017044067  0.9476771354675293  0.12930288910865784  1.0000
  Hg  Hg6       1.0  0.6259974837303162  0.886184334754944  0.33202695846557617  1.0000
  Hg  Hg7       1.0  0.10430805385112762  0.8244251012802123  0.22921977937221527  1.0000
  Hg  Hg8       1.0  0.1305837333202362  0.2399318665266037  0.9232128262519836  1.0000
  Hg  Hg9       1.0  0.61968594789505  0.047078348696231884  0.4395600855350495  1.0000
  Hg  Hg10      1.0  0.6129078269004822  0.22126486897468559  0.9382098317146301  1.0000
