data_image0
_chemical_formula_structural       As3Hg4MoOPb
_chemical_formula_sum              "As3 Hg4 Mo1 O1 Pb1"
_cell_length_a       5.939378935417963
_cell_length_b       7.283862765835092
_cell_length_c       7.6795973777771
_cell_angle_alpha    124.70262858346857
_cell_angle_beta     90.28251038957234
_cell_angle_gamma    94.45024951158203

_space_group_name_H-M_alt    "P 1"
_space_group_IT_number       1

loop_
  _space_group_symop_operation_xyz
  'x, y, z'

loop_
  _atom_site_type_symbol
  _atom_site_label
  _atom_site_symmetry_multiplicity
  _atom_site_fract_x
  _atom_site_fract_y
  _atom_site_fract_z
  _atom_site_occupancy
  As  As1       1.0  0.065901979804039  0.3677108585834504  0.6508716940879822  1.0000
  As  As2       1.0  0.1027098521590233  0.9163532853126527  0.9680980443954468  1.0000
  As  As3       1.0  0.7484104037284851  0.23604951798915866  0.3627892732620239  1.0000
  Hg  Hg1       1.0  0.7749671936035156  0.7356672286987306  0.928963840007782  1.0000
  Hg  Hg2       1.0  0.7432909607887268  0.7130181789398194  0.5186405777931213  1.0000
  Hg  Hg3       1.0  0.27960360050201416  0.7771022319793702  0.24057993292808527  1.0000
  Hg  Hg4       1.0  0.27230873703956604  0.26777535676956177  0.3846467137336731  1.0000
  Mo  Mo1       1.0  0.5345894694328308  0.20474354922771457  0.9399006962776184  1.0000
  O   O1        1.0  0.7870095372200012  0.003409068332985044  0.08659641444683075  1.0000
  Pb  Pb1       1.0  0.7566355466842651  0.4801092147827149  0.19627955555915833  1.0000
