data_image0
_chemical_formula_structural       Hg10
_chemical_formula_sum              "Hg10"
_cell_length_a       4.893666917005957
_cell_length_b       6.359519885080561
_cell_length_c       6.392484188079834
_cell_angle_alpha    126.85374673569594
_cell_angle_beta     87.59066236493828
_cell_angle_gamma    90.40366166101518

_space_group_name_H-M_alt    "P 1"
_space_group_IT_number       1

loop_
  _space_group_symop_operation_xyz
  'x, y, z'

loop_
  _atom_site_type_symbol
  _atom_site_label
  _atom_site_symmetry_multiplicity
  _atom_site_fract_x
  _atom_site_fract_y
  _atom_site_fract_z
  _atom_site_occupancy
  Hg  Hg1       1.0  0.5212768912315369  0.5625889897346497  0.380643218755722  1.0000
  Hg  Hg2       1.0  0.5364100337028503  0.924104630947113  0.8885861039161681  1.0000
  Hg  Hg3       1.0  0.022386424243450165  0.7200125455856323  0.9800010919570922  1.0000
  Hg  Hg4       1.0  0.008994372561573982  0.3376689553260803  0.7313717603683471  1.0000
  Hg  Hg5       1.0  0.016132129356265068  0.9153791666030884  0.4276996254920959  1.0000
  Hg  Hg6       1.0  0.043848730623722076  0.8805601000785828  0.5505421757698059  1.0000
  Hg  Hg7       1.0  0.5282692313194275  0.7521783113479614  0.9183015227317809  1.0000
  Hg  Hg8       1.0  0.023320794105529785  0.6320456862449646  0.8351647853851317  1.0000
  Hg  Hg9       1.0  0.5061730146408081  0.2442920207977295  0.7498825192451476  1.0000
  Hg  Hg10      1.0  0.5353752374649048  0.024025140330195427  0.1809161156415939  1.0000
