data_image0
_chemical_formula_structural       In6LiOOsZn
_chemical_formula_sum              "In6 Li1 O1 Os1 Zn1"
_cell_length_a       4.640669223337707
_cell_length_b       4.412795669590399
_cell_length_c       7.521956443786621
_cell_angle_alpha    88.6482797404011
_cell_angle_beta     89.11966475156252
_cell_angle_gamma    92.34531789279586

_space_group_name_H-M_alt    "P 1"
_space_group_IT_number       1

loop_
  _space_group_symop_operation_xyz
  'x, y, z'

loop_
  _atom_site_type_symbol
  _atom_site_label
  _atom_site_symmetry_multiplicity
  _atom_site_fract_x
  _atom_site_fract_y
  _atom_site_fract_z
  _atom_site_occupancy
  In  In1       1.0  0.5415896773338318  0.5414344072341919  0.42656922340393066  1.0000
  In  In2       1.0  0.5157552361488342  0.5187646150588989  0.626120924949646  1.0000
  In  In3       1.0  0.07012376189231873  0.24139559268951413  0.3968272805213928  1.0000
  In  In4       1.0  0.5119113326072693  0.4056931138038635  0.29700392484664917  1.0000
  In  In5       1.0  0.5094504952430725  0.014430857263505457  0.008914965204894541  1.0000
  In  In6       1.0  0.04250488802790642  0.5237377285957336  0.12332276999950409  1.0000
  Li  Li1       1.0  0.5401411056518555  0.553086519241333  0.8721056580543518  1.0000
  O   O1        1.0  0.8324252963066101  0.2114447057247162  0.17626596987247467  1.0000
  Os  Os1       1.0  0.027255520224571228  0.7414224147796631  0.16827204823493958  1.0000
  Zn  Zn1       1.0  0.029517842456698418  0.03465534374117851  0.4391053020954132  1.0000
