data_image0
_chemical_formula_structural       In7O2Zr
_chemical_formula_sum              "In7 O2 Zr1"
_cell_length_a       6.328494302821492
_cell_length_b       6.500528404507994
_cell_length_c       7.200376987457275
_cell_angle_alpha    68.15380448468474
_cell_angle_beta     67.55826229653886
_cell_angle_gamma    68.29044655138776

_space_group_name_H-M_alt    "P 1"
_space_group_IT_number       1

loop_
  _space_group_symop_operation_xyz
  'x, y, z'

loop_
  _atom_site_type_symbol
  _atom_site_label
  _atom_site_symmetry_multiplicity
  _atom_site_fract_x
  _atom_site_fract_y
  _atom_site_fract_z
  _atom_site_occupancy
  In  In1       1.0  0.5920558571815491  0.4650647342205048  0.23627279698848724  1.0000
  In  In2       1.0  0.1474996954202652  0.10588508099317552  0.7807185053825378  1.0000
  In  In3       1.0  0.8026219010353088  0.5055562853813171  0.29677003622055054  1.0000
  In  In4       1.0  0.8000704050064087  0.07820968329906464  0.2524188458919525  1.0000
  In  In5       1.0  0.6013754606246948  0.3399563431739807  0.38866791129112244  1.0000
  In  In6       1.0  0.3222541809082031  0.7796822786331178  0.6465170383453369  1.0000
  In  In7       1.0  0.1574820727109909  0.44483149051666265  0.04331733658909798  1.0000
  O   O1        1.0  0.7712744474411011  0.4732868969440461  0.4492085874080658  1.0000
  O   O2        1.0  0.06162686273455616  0.7452873587608339  0.038883451372385025  1.0000
  Zr  Zr1       1.0  0.13279664516448975  0.4136963784694672  0.4548609256744385  1.0000
