data_image0
_chemical_formula_structural       In8O2
_chemical_formula_sum              "In8 O2"
_cell_length_a       4.8817902522701715
_cell_length_b       3.6559548205759818
_cell_length_c       4.636568069458008
_cell_angle_alpha    49.433292239598366
_cell_angle_beta     41.641226482276366
_cell_angle_gamma    10.680656234486865

_space_group_name_H-M_alt    "P 1"
_space_group_IT_number       1

loop_
  _space_group_symop_operation_xyz
  'x, y, z'

loop_
  _atom_site_type_symbol
  _atom_site_label
  _atom_site_symmetry_multiplicity
  _atom_site_fract_x
  _atom_site_fract_y
  _atom_site_fract_z
  _atom_site_occupancy
  In  In1       1.0  0.09716258943080903  0.01549991313368079  0.07980860024690628  1.0000
  In  In2       1.0  0.6129733920097351  0.5938583016395568  0.5645008683204651  1.0000
  In  In3       1.0  0.09275583922862994  0.7184303998947147  0.696512222290039  1.0000
  In  In4       1.0  0.6188932061195369  0.11041654646396702  0.6188563108444214  1.0000
  In  In5       1.0  0.12866060435771942  0.1388406902551651  0.004032987169921401  1.0000
  In  In6       1.0  0.6082468032836913  0.9290656447410585  0.6173849701881409  1.0000
  In  In7       1.0  0.13089749217033375  0.037674579769373086  0.20141525566577914  1.0000
  In  In8       1.0  0.6155299544334412  0.2662356495857238  0.2525034546852112  1.0000
  O   O1        1.0  0.13930673897266382  0.7337429523468019  0.15231685340404513  1.0000
  O   O2        1.0  0.567790150642395  0.9595944285392761  0.7754652500152587  1.0000
