data_image0
_chemical_formula_structural       Ge2In7O
_chemical_formula_sum              "Ge2 In7 O1"
_cell_length_a       5.6865736270273155
_cell_length_b       6.111339800784369
_cell_length_c       8.180339813232422
_cell_angle_alpha    87.31511727109894
_cell_angle_beta     89.39983194501552
_cell_angle_gamma    117.30557920026729

_space_group_name_H-M_alt    "P 1"
_space_group_IT_number       1

loop_
  _space_group_symop_operation_xyz
  'x, y, z'

loop_
  _atom_site_type_symbol
  _atom_site_label
  _atom_site_symmetry_multiplicity
  _atom_site_fract_x
  _atom_site_fract_y
  _atom_site_fract_z
  _atom_site_occupancy
  Ge  Ge1       1.0  0.4344885945320129  0.29439327120780945  0.8082024455070496  1.0000
  Ge  Ge2       1.0  0.9487285017967223  0.35701611638069153  0.6018110513687134  1.0000
  In  In1       1.0  0.8880056738853453  0.6118765473365784  0.43378341197967535  1.0000
  In  In2       1.0  0.9284958243370055  0.6280259490013123  0.4932844638824463  1.0000
  In  In3       1.0  0.943999409675598  0.8561131954193115  0.5841256380081177  1.0000
  In  In4       1.0  0.4333856105804443  0.22529539465904236  0.5647932291030884  1.0000
  In  In5       1.0  0.9427856802940368  0.01909799501299858  0.47797998785972595  1.0000
  In  In6       1.0  0.43167519569396967  0.41141951084136963  0.9071767926216125  1.0000
  In  In7       1.0  0.19734340906143188  0.6189085841178894  0.8477271199226379  1.0000
  O   O1        1.0  0.43803426623344416  0.760212779045105  0.3926555812358856  1.0000
