data_image0
_chemical_formula_structural       In7O2Os
_chemical_formula_sum              "In7 O2 Os1"
_cell_length_a       5.197295957041932
_cell_length_b       4.775651613645883
_cell_length_c       6.189563274383545
_cell_angle_alpha    118.89954410831734
_cell_angle_beta     106.92823018457962
_cell_angle_gamma    106.13574093722418

_space_group_name_H-M_alt    "P 1"
_space_group_IT_number       1

loop_
  _space_group_symop_operation_xyz
  'x, y, z'

loop_
  _atom_site_type_symbol
  _atom_site_label
  _atom_site_symmetry_multiplicity
  _atom_site_fract_x
  _atom_site_fract_y
  _atom_site_fract_z
  _atom_site_occupancy
  In  In1       1.0  0.07686767727136612  0.9958244562149048  0.9483603835105896  1.0000
  In  In2       1.0  0.2254897654056549  0.6575794816017151  0.45787543058395386  1.0000
  In  In3       1.0  0.9483115077018738  0.5506501197814941  0.682773768901825  1.0000
  In  In4       1.0  0.4402574896812439  0.6140688061714172  0.17308035492897034  1.0000
  In  In5       1.0  0.548852264881134  0.05862271413207054  0.6318407654762268  1.0000
  In  In6       1.0  0.4270762503147125  0.10424523055553436  0.24848972260951996  1.0000
  In  In7       1.0  0.014657736755907536  0.5181087255477905  0.006003219168633258  1.0000
  O   O1        1.0  0.967602014541626  0.2256828397512436  0.15781323611736292  1.0000
  O   O2        1.0  0.4764905571937561  0.003269630018621683  0.20788536965847015  1.0000
  Os  Os1       1.0  0.943645715713501  0.6341537237167358  0.6509488224983215  1.0000
