data_image0
_chemical_formula_structural       In7O2Rh
_chemical_formula_sum              "In7 O2 Rh1"
_cell_length_a       5.148902464121023
_cell_length_b       4.579555396493671
_cell_length_c       4.933965682983398
_cell_angle_alpha    24.41857245606146
_cell_angle_beta     42.86833173470083
_cell_angle_gamma    59.62501116480033

_space_group_name_H-M_alt    "P 1"
_space_group_IT_number       1

loop_
  _space_group_symop_operation_xyz
  'x, y, z'

loop_
  _atom_site_type_symbol
  _atom_site_label
  _atom_site_symmetry_multiplicity
  _atom_site_fract_x
  _atom_site_fract_y
  _atom_site_fract_z
  _atom_site_occupancy
  In  In1       1.0  0.9719838500022888  0.6764640808105469  0.913236677646637  1.0000
  In  In2       1.0  0.5449355840682986  0.17119666934013367  0.8310351371765134  1.0000
  In  In3       1.0  0.026022164151072502  0.6509251594543458  0.16884656250476832  1.0000
  In  In4       1.0  0.9254849553108218  0.6916648745536804  0.7994302511215208  1.0000
  In  In5       1.0  0.07340851426124578  0.2293402105569839  0.29372748732566833  1.0000
  In  In6       1.0  0.4742278456687927  0.6427742838859558  0.06371311098337165  1.0000
  In  In7       1.0  0.5515785813331606  0.39622247219085693  0.21158722043037398  1.0000
  O   O1        1.0  0.5844873189926147  0.520931601524353  0.7577531337738036  1.0000
  O   O2        1.0  0.7421428561210632  0.33904525637626654  0.4914254546165465  1.0000
  Rh  Rh1       1.0  0.12027565389871597  0.68841952085495  0.22343331575393682  1.0000
