data_image0
_chemical_formula_structural       Ge4Te2
_chemical_formula_sum              "Ge4 Te2"
_cell_length_a       5.1616154644121535
_cell_length_b       5.826111160622969
_cell_length_c       7.596631050109863
_cell_angle_alpha    114.1926031781778
_cell_angle_beta     101.65825582191408
_cell_angle_gamma    96.89221547556365

_space_group_name_H-M_alt    "P 1"
_space_group_IT_number       1

loop_
  _space_group_symop_operation_xyz
  'x, y, z'

loop_
  _atom_site_type_symbol
  _atom_site_label
  _atom_site_symmetry_multiplicity
  _atom_site_fract_x
  _atom_site_fract_y
  _atom_site_fract_z
  _atom_site_occupancy
  Ge  Ge1       1.0  0.931803524494171  0.6441488265991211  0.8205677270889282  1.0000
  Ge  Ge2       1.0  0.5765218734741211  0.18402694165706635  0.4888642132282257  1.0000
  Ge  Ge3       1.0  0.08960728347301483  0.1447070837020874  0.47804149985313416  1.0000
  Ge  Ge4       1.0  0.9234861731529235  0.12784291803836823  0.9783828854560852  1.0000
  Te  Te1       1.0  0.5546647906303406  0.6841269731521606  0.2851240038871765  1.0000
  Te  Te2       1.0  0.5686613917350769  0.6876318454742432  0.4966779351234436  1.0000
