data_image0
_chemical_formula_structural       Ge3Te3
_chemical_formula_sum              "Ge3 Te3"
_cell_length_a       8.259070520786361
_cell_length_b       8.284484080270246
_cell_length_c       8.144327163696289
_cell_angle_alpha    109.68378218249075
_cell_angle_beta     103.0017394455142
_cell_angle_gamma    113.48803726827731

_space_group_name_H-M_alt    "P 1"
_space_group_IT_number       1

loop_
  _space_group_symop_operation_xyz
  'x, y, z'

loop_
  _atom_site_type_symbol
  _atom_site_label
  _atom_site_symmetry_multiplicity
  _atom_site_fract_x
  _atom_site_fract_y
  _atom_site_fract_z
  _atom_site_occupancy
  Ge  Ge1       1.0  0.5752890706062317  0.7288900017738342  0.9300717711448669  1.0000
  Ge  Ge2       1.0  0.9012506008148193  0.14093002676963806  0.9817317128181458  1.0000
  Ge  Ge3       1.0  0.5723652839660645  0.1994745135307312  0.9812016487121582  1.0000
  Te  Te1       1.0  0.07515314966440201  0.7376046180725098  0.2535382807254791  1.0000
  Te  Te2       1.0  0.06162019446492195  0.7300467491149902  0.23770222067832947  1.0000
  Te  Te3       1.0  0.3174501061439514  0.2679694592952728  0.7630622982978821  1.0000
