data_image0
_chemical_formula_structural       Ge3Te3
_chemical_formula_sum              "Ge3 Te3"
_cell_length_a       5.580779769456181
_cell_length_b       5.851455901496611
_cell_length_c       7.482264041900635
_cell_angle_alpha    91.15315939151156
_cell_angle_beta     88.80266063476071
_cell_angle_gamma    117.31951874187658

_space_group_name_H-M_alt    "P 1"
_space_group_IT_number       1

loop_
  _space_group_symop_operation_xyz
  'x, y, z'

loop_
  _atom_site_type_symbol
  _atom_site_label
  _atom_site_symmetry_multiplicity
  _atom_site_fract_x
  _atom_site_fract_y
  _atom_site_fract_z
  _atom_site_occupancy
  Ge  Ge1       1.0  0.9088307023048401  0.6715138554573059  0.469316303730011  1.0000
  Ge  Ge2       1.0  0.24744094908237457  0.016182295978069305  0.7530439496040344  1.0000
  Ge  Ge3       1.0  0.5996907353401184  0.17230555415153503  0.9765190482139587  1.0000
  Te  Te1       1.0  0.3562012016773224  0.6896085739135742  0.25964412093162537  1.0000
  Te  Te2       1.0  0.2474314421415329  0.016726471483707428  0.02618350461125374  1.0000
  Te  Te3       1.0  0.0008703518542461694  0.4463495612144471  0.2504822611808777  1.0000
