data_image0
_chemical_formula_structural       Bi4La3Zr2
_chemical_formula_sum              "Bi4 La3 Zr2"
_cell_length_a       4.849503366386765
_cell_length_b       5.141867418925076
_cell_length_c       11.409132957458496
_cell_angle_alpha    89.98343201491345
_cell_angle_beta     89.97898901323802
_cell_angle_gamma    90.02576160405032

_space_group_name_H-M_alt    "P 1"
_space_group_IT_number       1

loop_
  _space_group_symop_operation_xyz
  'x, y, z'

loop_
  _atom_site_type_symbol
  _atom_site_label
  _atom_site_symmetry_multiplicity
  _atom_site_fract_x
  _atom_site_fract_y
  _atom_site_fract_z
  _atom_site_occupancy
  Bi  Bi1       1.0  0.022351641207933426  0.6405361294746399  0.9958006739616394  1.0000
  Bi  Bi2       1.0  0.022224122658371925  0.6430772542953491  0.7333332300186157  1.0000
  Bi  Bi3       1.0  0.5270301699638367  0.1533147394657135  0.3684251606464386  1.0000
  Bi  Bi4       1.0  0.02345997840166092  0.6620110869407654  0.36437445878982544  1.0000
  La  La1       1.0  0.5234646797180176  0.1456160992383957  0.8629424571990967  1.0000
  La  La2       1.0  0.021653451025485992  0.15303640067577362  0.16983826458454132  1.0000
  La  La3       1.0  0.022286558523774147  0.15044145286083221  0.5693836212158203  1.0000
  Zr  Zr1       1.0  0.5225154757499695  0.6537797451019287  0.1770072281360626  1.0000
  Zr  Zr2       1.0  0.5226259827613831  0.6509098410606384  0.5505885481834412  1.0000
