data_image0
_chemical_formula_structural       Bi4La3Zr2
_chemical_formula_sum              "Bi4 La3 Zr2"
_cell_length_a       4.565931653155895
_cell_length_b       7.404171693180151
_cell_length_c       9.064528465270996
_cell_angle_alpha    78.33497864616028
_cell_angle_beta     75.26578632530527
_cell_angle_gamma    71.9529823721759

_space_group_name_H-M_alt    "P 1"
_space_group_IT_number       1

loop_
  _space_group_symop_operation_xyz
  'x, y, z'

loop_
  _atom_site_type_symbol
  _atom_site_label
  _atom_site_symmetry_multiplicity
  _atom_site_fract_x
  _atom_site_fract_y
  _atom_site_fract_z
  _atom_site_occupancy
  Bi  Bi1       1.0  0.878212034702301  0.8448613882064819  0.29531431198120117  1.0000
  Bi  Bi2       1.0  0.026643874123692513  0.3494478166103363  0.5288082361221313  1.0000
  Bi  Bi3       1.0  0.2762860655784607  0.3804648518562317  0.9836449027061462  1.0000
  Bi  Bi4       1.0  0.6475157737731934  0.7626450657844543  0.8569450974464417  1.0000
  La  La1       1.0  0.31719374656677246  0.6863821148872375  0.6044577956199646  1.0000
  La  La2       1.0  0.5871814489364624  0.5059188008308411  0.216506078839302  1.0000
  La  La3       1.0  0.9747274518013  0.06552508473396301  0.9146727323532104  1.0000
  Zr  Zr1       1.0  0.265910804271698  0.09197445958852768  0.2899583876132965  1.0000
  Zr  Zr2       1.0  0.6453636884689331  0.08392777293920517  0.5724080801010132  1.0000
