data_image0
_chemical_formula_structural       Bi2GeLaSbTeYZr2
_chemical_formula_sum              "Bi2 Ge1 La1 Sb1 Te1 Y1 Zr2"
_cell_length_a       6.292291587063702
_cell_length_b       6.296059146295343
_cell_length_c       6.284542083740234
_cell_angle_alpha    89.78400020905904
_cell_angle_beta     89.64880746128422
_cell_angle_gamma    89.75521850952748

_space_group_name_H-M_alt    "P 1"
_space_group_IT_number       1

loop_
  _space_group_symop_operation_xyz
  'x, y, z'

loop_
  _atom_site_type_symbol
  _atom_site_label
  _atom_site_symmetry_multiplicity
  _atom_site_fract_x
  _atom_site_fract_y
  _atom_site_fract_z
  _atom_site_occupancy
  Bi  Bi1       1.0  0.11593345552682877  0.5224368572235107  0.727743923664093  1.0000
  Bi  Bi2       1.0  0.3518564999103546  0.03004211187362671  0.5987895131111145  1.0000
  Ge  Ge1       1.0  0.7143638134002686  0.6006955504417419  0.9440291523933411  1.0000
  La  La1       1.0  0.8323050737380981  0.08797987550497055  0.8103517889976501  1.0000
  Sb  Sb1       1.0  0.5011449456214905  0.33571580052375793  0.1477283388376236  1.0000
  Te  Te1       1.0  0.8741245269775391  0.9125168323516846  0.30899378657341003  1.0000
  Y   Y1        1.0  0.33243048191070557  0.8237801790237427  0.09076662361621857  1.0000
  Zr  Zr1       1.0  0.06213151663541794  0.32729291915893555  0.29918935894966125  1.0000
  Zr  Zr2       1.0  0.5754534006118774  0.5910531878471375  0.5463371872901915  1.0000
