data_image0
_chemical_formula_structural       BBiDyGe2HHgLaZr
_chemical_formula_sum              "B1 Bi1 Dy1 Ge2 H1 Hg1 La1 Zr1"
_cell_length_a       5.81629476243589
_cell_length_b       5.807413046969998
_cell_length_c       5.790006637573242
_cell_angle_alpha    97.78486183717442
_cell_angle_beta     97.68397533660851
_cell_angle_gamma    97.01516793813032

_space_group_name_H-M_alt    "P 1"
_space_group_IT_number       1

loop_
  _space_group_symop_operation_xyz
  'x, y, z'

loop_
  _atom_site_type_symbol
  _atom_site_label
  _atom_site_symmetry_multiplicity
  _atom_site_fract_x
  _atom_site_fract_y
  _atom_site_fract_z
  _atom_site_occupancy
  B   B1        1.0  0.3374626338481903  0.5190026164054871  0.3545288145542145  1.0000
  Bi  Bi1       1.0  0.44410568475723267  0.13998019695281982  0.7362242341041565  1.0000
  Dy  Dy1       1.0  0.6425784230232239  0.6856248378753662  0.7529188394546509  1.0000
  Ge  Ge1       1.0  0.6948702931404114  0.8127303719520569  0.2713355123996735  1.0000
  Ge  Ge2       1.0  0.10393249988555908  0.6386088728904724  0.5935227870941162  1.0000
  H   H1        1.0  0.03879650682210922  0.26100677251815796  0.3587813377380371  1.0000
  Hg  Hg1       1.0  0.9750566482543945  0.3019283413887024  0.9037336111068726  1.0000
  La  La1       1.0  0.19659876823425293  0.8951804637908936  0.15511178970336917  1.0000
  Zr  Zr1       1.0  0.6931276321411133  0.3392248749732971  0.29771807789802557  1.0000
