data_image0
_chemical_formula_structural       Ba6GeISZn
_chemical_formula_sum              "Ba6 Ge1 I1 S1 Zn1"
_cell_length_a       6.024412689236068
_cell_length_b       5.9964018275384605
_cell_length_c       11.614851951599121
_cell_angle_alpha    93.49720334066313
_cell_angle_beta     92.46579445291059
_cell_angle_gamma    121.4580821868802

_space_group_name_H-M_alt    "P 1"
_space_group_IT_number       1

loop_
  _space_group_symop_operation_xyz
  'x, y, z'

loop_
  _atom_site_type_symbol
  _atom_site_label
  _atom_site_symmetry_multiplicity
  _atom_site_fract_x
  _atom_site_fract_y
  _atom_site_fract_z
  _atom_site_occupancy
  Ba  Ba1       1.0  0.8200688362121582  0.7535428404808044  0.5663432478904724  1.0000
  Ba  Ba2       1.0  0.3715289831161499  0.2363571673631668  0.321853905916214  1.0000
  Ba  Ba3       1.0  0.27593839168548584  0.9100130796432495  0.957579493522644  1.0000
  Ba  Ba4       1.0  0.7900515794754028  0.9827338457107544  0.7921562790870667  1.0000
  Ba  Ba5       1.0  0.12579822540283203  0.7377015352249146  0.8484841585159302  1.0000
  Ba  Ba6       1.0  0.33346953988075256  0.5066678524017334  0.4840398132801056  1.0000
  Ge  Ge1       1.0  0.26506152749061584  0.29857876896858215  0.13928526639938354  1.0000
  I   I1        1.0  0.21057093143463135  0.5858244895935059  0.8437899351119995  1.0000
  S   S1        1.0  0.6987625956535339  0.7483571767807007  0.7915688157081604  1.0000
  Zn  Zn1       1.0  0.4160379469394684  0.9076216816902161  0.6860150098800659  1.0000
