data_image0
_chemical_formula_structural       Ba2LuMoSV2Zn2Zr
_chemical_formula_sum              "Ba2 Lu1 Mo1 S1 V2 Zn2 Zr1"
_cell_length_a       5.625115390518874
_cell_length_b       4.891708225937253
_cell_length_c       6.8912763595581055
_cell_angle_alpha    105.69665220907211
_cell_angle_beta     102.79822048260806
_cell_angle_gamma    114.14118538481091

_space_group_name_H-M_alt    "P 1"
_space_group_IT_number       1

loop_
  _space_group_symop_operation_xyz
  'x, y, z'

loop_
  _atom_site_type_symbol
  _atom_site_label
  _atom_site_symmetry_multiplicity
  _atom_site_fract_x
  _atom_site_fract_y
  _atom_site_fract_z
  _atom_site_occupancy
  Ba  Ba1       1.0  0.6011941432952881  0.7537948489189148  0.42347401380538935  1.0000
  Ba  Ba2       1.0  0.3599727749824524  0.01654001884162426  0.31034818291664124  1.0000
  Lu  Lu1       1.0  0.4945927858352661  0.4596082270145416  0.37883237004280085  1.0000
  Mo  Mo1       1.0  0.8582556843757629  0.5443721413612366  0.8904510140419005  1.0000
  S   S1        1.0  0.28711482882499695  0.5644416213035583  0.37961176037788386  1.0000
  V   V1        1.0  0.4341581165790558  0.9206947684288025  0.8168709278106688  1.0000
  V   V2        1.0  0.2170889973640442  0.8344900608062744  0.4099272787570953  1.0000
  Zn  Zn1       1.0  0.9636482000350952  0.6821382641792297  0.526086688041687  1.0000
  Zn  Zn2       1.0  0.8719771504402161  0.924504816532135  0.4601993560791015  1.0000
  Zr  Zr1       1.0  0.5949878096580505  0.8410200476646423  0.34385040402412415  1.0000
