data_image0
_chemical_formula_structural       Ba6GePSSb
_chemical_formula_sum              "Ba6 Ge1 P1 S1 Sb1"
_cell_length_a       6.678637678960734
_cell_length_b       6.446426005776112
_cell_length_c       11.454436302185059
_cell_angle_alpha    95.0209676402172
_cell_angle_beta     91.81338935948138
_cell_angle_gamma    121.72496914980762

_space_group_name_H-M_alt    "P 1"
_space_group_IT_number       1

loop_
  _space_group_symop_operation_xyz
  'x, y, z'

loop_
  _atom_site_type_symbol
  _atom_site_label
  _atom_site_symmetry_multiplicity
  _atom_site_fract_x
  _atom_site_fract_y
  _atom_site_fract_z
  _atom_site_occupancy
  Ba  Ba1       1.0  0.1736443191766739  0.0628785490989685  0.41273212432861334  1.0000
  Ba  Ba2       1.0  0.1633235216140747  0.28729820251464844  0.28073766827583313  1.0000
  Ba  Ba3       1.0  0.8940756916999817  0.21529163420200348  0.7507994174957275  1.0000
  Ba  Ba4       1.0  0.17755453288555145  0.019839992746710777  0.573168933391571  1.0000
  Ba  Ba5       1.0  0.5340682864189148  0.6626636385917664  0.4585101008415223  1.0000
  Ba  Ba6       1.0  0.24021919071674347  0.12916423380374908  0.7528200149536133  1.0000
  Ge  Ge1       1.0  0.6329543590545654  0.2372213751077652  0.8399509191513063  1.0000
  P   P1        1.0  0.0654071569442749  0.09805729240179062  0.4862829744815827  1.0000
  S   S1        1.0  0.9057568907737732  0.019071275368332863  0.05656662955880166  1.0000
  Sb  Sb1       1.0  0.03676694259047508  0.7456459999084473  0.007877636700868612  1.0000
