data_image0
_chemical_formula_structural       Ba6InLuSTi
_chemical_formula_sum              "Ba6 In1 Lu1 S1 Ti1"
_cell_length_a       5.964099836551271
_cell_length_b       5.699184821176685
_cell_length_c       13.616147994995117
_cell_angle_alpha    91.60026684546385
_cell_angle_beta     92.21424219171871
_cell_angle_gamma    121.26188786701456

_space_group_name_H-M_alt    "P 1"
_space_group_IT_number       1

loop_
  _space_group_symop_operation_xyz
  'x, y, z'

loop_
  _atom_site_type_symbol
  _atom_site_label
  _atom_site_symmetry_multiplicity
  _atom_site_fract_x
  _atom_site_fract_y
  _atom_site_fract_z
  _atom_site_occupancy
  Ba  Ba1       1.0  0.940927267074585  0.13916458189487457  0.6216827034950256  1.0000
  Ba  Ba2       1.0  0.04170645400881767  0.6387362480163574  0.7701061964035033  1.0000
  Ba  Ba3       1.0  0.4615001380443573  0.11191584169864655  0.12689553201198578  1.0000
  Ba  Ba4       1.0  0.03602680563926697  0.08215196430683136  0.058075942099094384  1.0000
  Ba  Ba5       1.0  0.498019278049469  0.8765337467193604  0.9281781315803527  1.0000
  Ba  Ba6       1.0  0.03785999119281769  0.23815438151359558  0.2241038233041763  1.0000
  In  In1       1.0  0.1080201268196106  0.1781376451253891  0.9606808423995971  1.0000
  Lu  Lu1       1.0  0.9491525292396545  0.14851845800876617  0.551703929901123  1.0000
  S   S1        1.0  0.5770801305770874  0.8330612778663635  0.32559195160865784  1.0000
  Ti  Ti1       1.0  0.6159871220588684  0.2564106583595276  0.11243040114641188  1.0000
