data_image0
_chemical_formula_structural       Ba7S2Tm
_chemical_formula_sum              "Ba7 S2 Tm1"
_cell_length_a       7.945066216588973
_cell_length_b       7.541736449122387
_cell_length_c       10.768691062927246
_cell_angle_alpha    107.9046870806955
_cell_angle_beta     104.71329355949615
_cell_angle_gamma    114.28938436602233

_space_group_name_H-M_alt    "P 1"
_space_group_IT_number       1

loop_
  _space_group_symop_operation_xyz
  'x, y, z'

loop_
  _atom_site_type_symbol
  _atom_site_label
  _atom_site_symmetry_multiplicity
  _atom_site_fract_x
  _atom_site_fract_y
  _atom_site_fract_z
  _atom_site_occupancy
  Ba  Ba1       1.0  0.47593736648559565  0.9827329516410827  0.4056032598018646  1.0000
  Ba  Ba2       1.0  0.9775455594062805  0.49529621005058283  0.5574737787246704  1.0000
  Ba  Ba3       1.0  0.4309072196483612  0.5816323757171631  0.3609804809093475  1.0000
  Ba  Ba4       1.0  0.728337287902832  0.8379235267639159  0.053461648523807484  1.0000
  Ba  Ba5       1.0  0.4273981750011444  0.4151971042156219  0.2306457459926605  1.0000
  Ba  Ba6       1.0  0.4770467877388  0.6918382644653319  0.4909436106681823  1.0000
  Ba  Ba7       1.0  0.9831669330596924  0.7945788502693175  0.22019678354263303  1.0000
  S   S1        1.0  0.4579271376132965  0.10240336507558821  0.6937462687492371  1.0000
  S   S2        1.0  0.9489198923110962  0.7297508716583251  0.27446356415748596  1.0000
  Tm  Tm1       1.0  0.9006485939025879  0.3625915944576263  0.3049398958683014  1.0000
