data_image0
_chemical_formula_structural       Ba9S
_chemical_formula_sum              "Ba9 S1"
_cell_length_a       6.74420529725016
_cell_length_b       6.46998559584809
_cell_length_c       13.788769721984863
_cell_angle_alpha    102.73732180120369
_cell_angle_beta     91.33108853017949
_cell_angle_gamma    115.88673372894245

_space_group_name_H-M_alt    "P 1"
_space_group_IT_number       1

loop_
  _space_group_symop_operation_xyz
  'x, y, z'

loop_
  _atom_site_type_symbol
  _atom_site_label
  _atom_site_symmetry_multiplicity
  _atom_site_fract_x
  _atom_site_fract_y
  _atom_site_fract_z
  _atom_site_occupancy
  Ba  Ba1       1.0  0.7012487053871155  0.2561398446559906  0.6641271114349365  1.0000
  Ba  Ba2       1.0  0.7017372250556946  0.6809572577476501  0.2541663646697998  1.0000
  Ba  Ba3       1.0  0.2050216943025589  0.16666872799396515  0.8009240627288817  1.0000
  Ba  Ba4       1.0  0.7028990983963013  0.251539021730423  0.47182089090347284  1.0000
  Ba  Ba5       1.0  0.6945784687995911  0.9967724084854126  0.4226918518543243  1.0000
  Ba  Ba6       1.0  0.20344610512256622  0.7347474098205566  0.15432649850845337  1.0000
  Ba  Ba7       1.0  0.19993923604488373  0.041993267834186554  0.26122593879699707  1.0000
  Ba  Ba8       1.0  0.201722651720047  0.7637922167778015  0.1903342306613922  1.0000
  Ba  Ba9       1.0  0.18880246579647064  0.8725825548171997  0.7384036779403687  1.0000
  S   S1        1.0  0.6506285667419434  0.15804027020931244  0.5510685443878174  1.0000
