data_image0
_chemical_formula_structural       AsINpPPrUZn
_chemical_formula_sum              "As1 I1 Np1 P1 Pr1 U1 Zn1"
_cell_length_a       5.190384029896531
_cell_length_b       5.3515815122527055
_cell_length_c       5.71397590637207
_cell_angle_alpha    97.74393000861286
_cell_angle_beta     87.70996089135723
_cell_angle_gamma    85.89965386227671

_space_group_name_H-M_alt    "P 1"
_space_group_IT_number       1

loop_
  _space_group_symop_operation_xyz
  'x, y, z'

loop_
  _atom_site_type_symbol
  _atom_site_label
  _atom_site_symmetry_multiplicity
  _atom_site_fract_x
  _atom_site_fract_y
  _atom_site_fract_z
  _atom_site_occupancy
  As  As1       1.0  0.11039355397224425  0.3775343596935272  0.7387771010398865  1.0000
  I   I1        1.0  0.6991741061210632  0.9362112879753113  0.4982169568538666  1.0000
  Np  Np1       1.0  0.47201678156852717  0.794797956943512  0.19552892446517944  1.0000
  P   P1        1.0  0.9756280779838561  0.26613113284111023  0.20748388767242432  1.0000
  Pr  Pr1       1.0  0.1974741816520691  0.8619883060455322  0.3541491627693176  1.0000
  U   U1        1.0  0.7006003260612488  0.42602866888046265  0.36679500341415405  1.0000
  Zn  Zn1       1.0  0.20413845777511594  0.4701794981956482  0.7723164558410645  1.0000
