data_image0
_chemical_formula_structural       PdPrSb4U
_chemical_formula_sum              "Pd1 Pr1 Sb4 U1"
_cell_length_a       5.711441616884643
_cell_length_b       5.228827771331045
_cell_length_c       6.456376075744629
_cell_angle_alpha    118.64207573445097
_cell_angle_beta     121.57211634158556
_cell_angle_gamma    92.25322310695366

_space_group_name_H-M_alt    "P 1"
_space_group_IT_number       1

loop_
  _space_group_symop_operation_xyz
  'x, y, z'

loop_
  _atom_site_type_symbol
  _atom_site_label
  _atom_site_symmetry_multiplicity
  _atom_site_fract_x
  _atom_site_fract_y
  _atom_site_fract_z
  _atom_site_occupancy
  Pd  Pd1       1.0  0.34239375591278076  0.3443560302257538  0.5210776925086975  1.0000
  Pr  Pr1       1.0  0.815244734287262  0.7768694162368774  0.012611658312380314  1.0000
  Sb  Sb1       1.0  0.5684152245521545  0.11323076486587524  0.18078429996967316  1.0000
  Sb  Sb2       1.0  0.8005167245864868  0.24376200139522552  0.5725859999656677  1.0000
  Sb  Sb3       1.0  0.8173884749412537  0.3822055757045746  0.5088327527046204  1.0000
  Sb  Sb4       1.0  0.8203912973403931  0.16356199979782104  0.710391640663147  1.0000
  U   U1        1.0  0.05199055001139641  0.7897530794143677  0.524268627166748  1.0000
