data_image0
_chemical_formula_structural       ClGe2HI3NP2
_chemical_formula_sum              "Cl1 Ge2 H1 I3 N1 P2"
_cell_length_a       6.85130610078364
_cell_length_b       6.7778950453601325
_cell_length_c       7.009886264801025
_cell_angle_alpha    113.2633718557962
_cell_angle_beta     112.95729996282563
_cell_angle_gamma    109.71715524074493

_space_group_name_H-M_alt    "P 1"
_space_group_IT_number       1

loop_
  _space_group_symop_operation_xyz
  'x, y, z'

loop_
  _atom_site_type_symbol
  _atom_site_label
  _atom_site_symmetry_multiplicity
  _atom_site_fract_x
  _atom_site_fract_y
  _atom_site_fract_z
  _atom_site_occupancy
  Cl  Cl1       1.0  0.023755241185426716  0.6589456796646118  0.7952460050582886  1.0000
  Ge  Ge1       1.0  0.5050917863845825  0.18861453235149384  0.7090932726860046  1.0000
  Ge  Ge2       1.0  0.9265524148941041  0.9398662447929382  0.1544633209705354  1.0000
  H   H1        1.0  0.6885517835617065  0.8379859924316406  0.797395169734955  1.0000
  I   I1        1.0  0.23874168097972873  0.8653881549835205  0.5457770824432373  1.0000
  I   I2        1.0  0.1513492465019226  0.7573042511940002  0.1742437630891801  1.0000
  I   I3        1.0  0.27903279662132263  0.04815375432372093  0.03253779932856561  1.0000
  N   N1        1.0  0.6882708668708801  0.306659072637558  0.9097286462783812  1.0000
  P   P1        1.0  0.017483124509453773  0.6545151472091675  0.9976852536201478  1.0000
  P   P2        1.0  0.5369613766670227  0.7716957926750183  0.6732050180435181  1.0000
