data_image0
_chemical_formula_structural       GeI2LiPbPtS2SbV
_chemical_formula_sum              "Ge1 I2 Li1 Pb1 Pt1 S2 Sb1 V1"
_cell_length_a       6.666984418198161
_cell_length_b       7.122219838409138
_cell_length_c       9.284507751464844
_cell_angle_alpha    84.59642162946001
_cell_angle_beta     76.94475117072591
_cell_angle_gamma    65.91413270450263

_space_group_name_H-M_alt    "P 1"
_space_group_IT_number       1

loop_
  _space_group_symop_operation_xyz
  'x, y, z'

loop_
  _atom_site_type_symbol
  _atom_site_label
  _atom_site_symmetry_multiplicity
  _atom_site_fract_x
  _atom_site_fract_y
  _atom_site_fract_z
  _atom_site_occupancy
  Ge  Ge1       1.0  0.04384493827819825  0.6369578838348389  0.0062932507134974  1.0000
  I   I1        1.0  0.33896499872207647  0.9925698041915894  0.8982144594192505  1.0000
  I   I2        1.0  0.7662423849105836  0.49077028036117554  0.49488615989685064  1.0000
  Li  Li1       1.0  0.8252466320991517  0.31016165018081665  0.02676294744014738  1.0000
  Pb  Pb1       1.0  0.32359603047370916  0.37851786613464355  0.08379795402288436  1.0000
  Pt  Pt1       1.0  0.2725008726119995  0.8589867949485779  0.7934514880180359  1.0000
  S   S1        1.0  0.7986111640930177  0.9195610284805298  0.2923227846622467  1.0000
  S   S2        1.0  0.5279814004898071  0.18424905836582184  0.5288029313087463  1.0000
  Sb  Sb1       1.0  0.8875346183776857  0.6127766370773315  0.9931930899620057  1.0000
  V   V1        1.0  0.5763427019119263  0.18130837380886078  0.2436184883117676  1.0000
