data_image0
_chemical_formula_structural       Li2NbPtS3Sb2Sc
_chemical_formula_sum              "Li2 Nb1 Pt1 S3 Sb2 Sc1"
_cell_length_a       6.756448632060383
_cell_length_b       6.596344888303192
_cell_length_c       6.890435218811035
_cell_angle_alpha    57.18207501723813
_cell_angle_beta     61.861691838137
_cell_angle_gamma    57.72345418594346

_space_group_name_H-M_alt    "P 1"
_space_group_IT_number       1

loop_
  _space_group_symop_operation_xyz
  'x, y, z'

loop_
  _atom_site_type_symbol
  _atom_site_label
  _atom_site_symmetry_multiplicity
  _atom_site_fract_x
  _atom_site_fract_y
  _atom_site_fract_z
  _atom_site_occupancy
  Li  Li1       1.0  0.6019148826599121  0.3344019651412964  0.4636382460594177  1.0000
  Li  Li2       1.0  0.9873843789100647  0.42747393250465393  0.3315455913543701  1.0000
  Nb  Nb1       1.0  0.8088942170143127  0.28014788031578064  0.9737297892570496  1.0000
  Pt  Pt1       1.0  0.3570334017276764  0.8510161638259888  0.6487492918968201  1.0000
  S   S1        1.0  0.30031818151474  0.6797911524772644  0.14179471135139465  1.0000
  S   S2        1.0  0.6757588982582092  0.20874246954917908  0.2862207591533661  1.0000
  S   S3        1.0  0.25288015604019165  0.92215895652771  0.943629801273346  1.0000
  Sb  Sb1       1.0  0.6577137112617493  0.10940665006637573  0.6904309391975403  1.0000
  Sb  Sb2       1.0  0.8218163251876831  0.1694166511297226  0.29235556721687317  1.0000
  Sc  Sc1       1.0  0.5453932285308838  0.8679748177528381  0.4258628487586975  1.0000
