data_image0
_chemical_formula_structural       ILiNb3S3Sb2
_chemical_formula_sum              "I1 Li1 Nb3 S3 Sb2"
_cell_length_a       5.6647245365256875
_cell_length_b       4.964635672366924
_cell_length_c       9.419556617736816
_cell_angle_alpha    102.091316169751
_cell_angle_beta     88.85347858609073
_cell_angle_gamma    84.06671698520202

_space_group_name_H-M_alt    "P 1"
_space_group_IT_number       1

loop_
  _space_group_symop_operation_xyz
  'x, y, z'

loop_
  _atom_site_type_symbol
  _atom_site_label
  _atom_site_symmetry_multiplicity
  _atom_site_fract_x
  _atom_site_fract_y
  _atom_site_fract_z
  _atom_site_occupancy
  I   I1        1.0  0.788341760635376  0.5416204333305359  0.9122435450553894  1.0000
  Li  Li1       1.0  0.5225082635879517  0.4556746780872345  0.4933125972747803  1.0000
  Nb  Nb1       1.0  0.10008016228675842  0.9609948992729187  0.4793887734413147  1.0000
  Nb  Nb2       1.0  0.36952999234199524  0.27842122316360474  0.49707257747650146  1.0000
  Nb  Nb3       1.0  0.37263986468315125  0.7930669784545898  0.15802660584449768  1.0000
  S   S1        1.0  0.5859313011169434  0.3405078053474426  0.2467230260372162  1.0000
  S   S2        1.0  0.015639880672097206  0.32042285799980164  0.20709289610385895  1.0000
  S   S3        1.0  0.7766236066818237  0.44679319858551025  0.8157197833061218  1.0000
  Sb  Sb1       1.0  0.5930783748626709  0.8164914846420288  0.3089260458946228  1.0000
  Sb  Sb2       1.0  0.5233801007270813  0.5736066699028015  0.8476815223693848  1.0000
