data_image0
_chemical_formula_structural       Nb9Sb
_chemical_formula_sum              "Nb9 Sb1"
_cell_length_a       4.697377797029193
_cell_length_b       5.007096706752746
_cell_length_c       7.607777118682861
_cell_angle_alpha    90.08344229083252
_cell_angle_beta     90.2209401732822
_cell_angle_gamma    90.06923149706174

_space_group_name_H-M_alt    "P 1"
_space_group_IT_number       1

loop_
  _space_group_symop_operation_xyz
  'x, y, z'

loop_
  _atom_site_type_symbol
  _atom_site_label
  _atom_site_symmetry_multiplicity
  _atom_site_fract_x
  _atom_site_fract_y
  _atom_site_fract_z
  _atom_site_occupancy
  Nb  Nb1       1.0  0.915692925453186  0.8070182204246521  0.29776597023010254  1.0000
  Nb  Nb2       1.0  0.41499924659729004  0.5331234335899353  0.5905779600143433  1.0000
  Nb  Nb3       1.0  0.913604199886322  0.8114469647407532  0.5092970132827759  1.0000
  Nb  Nb4       1.0  0.9127388000488281  0.22661593556404114  0.707246720790863  1.0000
  Nb  Nb5       1.0  0.41514959931373596  0.8873382806777954  0.6564124226570129  1.0000
  Nb  Nb6       1.0  0.9129433631896973  0.4868984520435333  0.797153115272522  1.0000
  Nb  Nb7       1.0  0.9146572947502136  0.25211191177368164  0.5046050548553467  1.0000
  Nb  Nb8       1.0  0.4115131199359894  0.35228726267814636  0.04841969907283783  1.0000
  Nb  Nb9       1.0  0.41741111874580383  0.05503248795866966  0.36122167110443115  1.0000
  Sb  Sb1       1.0  0.9089008569717407  0.6832453012466431  0.21947740018367773  1.0000
