data_image0
_chemical_formula_structural       Nb9Ti
_chemical_formula_sum              "Nb9 Ti1"
_cell_length_a       5.720308846768438
_cell_length_b       5.827763178257019
_cell_length_c       5.88862419128418
_cell_angle_alpha    62.95915043032166
_cell_angle_beta     63.1870662643657
_cell_angle_gamma    58.93894536906706

_space_group_name_H-M_alt    "P 1"
_space_group_IT_number       1

loop_
  _space_group_symop_operation_xyz
  'x, y, z'

loop_
  _atom_site_type_symbol
  _atom_site_label
  _atom_site_symmetry_multiplicity
  _atom_site_fract_x
  _atom_site_fract_y
  _atom_site_fract_z
  _atom_site_occupancy
  Nb  Nb1       1.0  0.8241235613822937  0.26732054352760315  0.8569933772087097  1.0000
  Nb  Nb2       1.0  0.2884562909603119  0.11757954955101013  0.8165192008018494  1.0000
  Nb  Nb3       1.0  0.5886405110359192  0.33943673968315125  0.8341580629348755  1.0000
  Nb  Nb4       1.0  0.3415038585662842  0.044845182448625565  0.7680639624595642  1.0000
  Nb  Nb5       1.0  0.3842730224132538  0.481175035238266  0.13494756817817688  1.0000
  Nb  Nb6       1.0  0.8228865265846252  0.8155085444450378  0.9454824328422546  1.0000
  Nb  Nb7       1.0  0.8118985295295715  0.6109992861747742  0.359458327293396  1.0000
  Nb  Nb8       1.0  0.14908276498317719  0.9782019853591919  0.15050508081912994  1.0000
  Nb  Nb9       1.0  0.3085807263851166  0.6338585019111633  0.045457709580659866  1.0000
  Ti  Ti1       1.0  0.6356927752494812  0.23438309133052826  0.07542122900485992  1.0000
