data_image0
_chemical_formula_structural       As3Pt2Si4
_chemical_formula_sum              "As3 Pt2 Si4"
_cell_length_a       3.8069191122099024
_cell_length_b       3.8121475245181844
_cell_length_c       12.025212287902832
_cell_angle_alpha    90.25933780845651
_cell_angle_beta     89.97912254450605
_cell_angle_gamma    119.58198522741203

_space_group_name_H-M_alt    "P 1"
_space_group_IT_number       1

loop_
  _space_group_symop_operation_xyz
  'x, y, z'

loop_
  _atom_site_type_symbol
  _atom_site_label
  _atom_site_symmetry_multiplicity
  _atom_site_fract_x
  _atom_site_fract_y
  _atom_site_fract_z
  _atom_site_occupancy
  As  As1       1.0  0.33214113116264343  0.8023638725280762  0.5123775601387024  1.0000
  As  As2       1.0  0.9989585280418396  0.13827826082706451  0.7648158669471741  1.0000
  As  As3       1.0  0.6711055636405945  0.47139614820480347  0.27184370160102844  1.0000
  Pt  Pt1       1.0  0.6698612570762634  0.4662551283836365  0.9609953165054321  1.0000
  Pt  Pt2       1.0  0.002244114875793457  0.13498422503471375  0.16360647976398468  1.0000
  Si  Si1       1.0  0.6640333533287048  0.47184303402900696  0.6423158049583435  1.0000
  Si  Si2       1.0  0.3339759111404419  0.7972495555877686  0.07382869720458986  1.0000
  Si  Si3       1.0  0.33508753776550293  0.7994163632392883  0.8799381256103516  1.0000
  Si  Si4       1.0  0.0030707253608852625  0.139247864484787  0.39057177305221563  1.0000
