data_image0
_chemical_formula_structural       AsCdCsFHHgSeTeW
_chemical_formula_sum              "As1 Cd1 Cs1 F1 H1 Hg1 Se1 Te1 W1"
_cell_length_a       6.157365541131053
_cell_length_b       6.169126885582502
_cell_length_c       7.594115257263184
_cell_angle_alpha    90.03102618870206
_cell_angle_beta     90.01528199605814
_cell_angle_gamma    119.96238029375941

_space_group_name_H-M_alt    "P 1"
_space_group_IT_number       1

loop_
  _space_group_symop_operation_xyz
  'x, y, z'

loop_
  _atom_site_type_symbol
  _atom_site_label
  _atom_site_symmetry_multiplicity
  _atom_site_fract_x
  _atom_site_fract_y
  _atom_site_fract_z
  _atom_site_occupancy
  As  As1       1.0  0.7188342213630676  0.7888652086257935  0.09858638793230055  1.0000
  Cd  Cd1       1.0  0.698943018913269  0.4481032192707062  0.8834196925163269  1.0000
  Cs  Cs1       1.0  0.023717166855931282  0.4450238049030304  0.3724551498889923  1.0000
  F   F1        1.0  0.2539946436882019  0.19341127574443817  0.08578430116176605  1.0000
  H   H1        1.0  0.0338878333568573  0.4007362127304077  0.8811280727386475  1.0000
  Hg  Hg1       1.0  0.37108686566352844  0.7825136184692383  0.888921856880188  1.0000
  Se  Se1       1.0  0.7233606576919556  0.7875245213508606  0.6245694160461426  1.0000
  Te  Te1       1.0  0.36118200421333313  0.11427237093448639  0.6272144317626954  1.0000
  W   W1        1.0  0.01271035522222519  0.10051096230745316  0.884353995323181  1.0000
