data_image0
_chemical_formula_structural       BO8SSbScTl2
_chemical_formula_sum              "B1 O8 S1 Sb1 Sc1 Tl2"
_cell_length_a       6.3865264519085345
_cell_length_b       6.707333853489311
_cell_length_c       6.9177327156066895
_cell_angle_alpha    110.35547471687144
_cell_angle_beta     108.99192862887764
_cell_angle_gamma    99.65921232113396

_space_group_name_H-M_alt    "P 1"
_space_group_IT_number       1

loop_
  _space_group_symop_operation_xyz
  'x, y, z'

loop_
  _atom_site_type_symbol
  _atom_site_label
  _atom_site_symmetry_multiplicity
  _atom_site_fract_x
  _atom_site_fract_y
  _atom_site_fract_z
  _atom_site_occupancy
  B   B1        1.0  0.8850125074386597  0.30530259013175964  0.48685106635093683  1.0000
  O   O1        1.0  0.46560773253440857  0.9633623957633971  0.7648808360099791  1.0000
  O   O2        1.0  0.9939034581184387  0.5245813727378845  0.15016861259937286  1.0000
  O   O3        1.0  0.9389464855194092  0.7718427181243896  0.24940037727355954  1.0000
  O   O4        1.0  0.7280398607254028  0.6312832832336426  0.8079516887664794  1.0000
  O   O5        1.0  0.6115700006484985  0.4618148803710937  0.5201425552368164  1.0000
  O   O6        1.0  0.16314707696437833  0.951761245727539  0.5625041127204895  1.0000
  O   O7        1.0  0.6541119813919067  0.46005102992057795  0.5036104321479797  1.0000
  O   O8        1.0  0.840825080871582  0.1022929847240448  0.987797975540161  1.0000
  S   S1        1.0  0.7949401140213013  0.8131303787231445  0.023771377280354496  1.0000
  Sb  Sb1       1.0  0.1002102866768837  0.18738994002342224  0.5845831632614136  1.0000
  Sc  Sc1       1.0  0.620606005191803  0.9464961886405944  0.003886673599481582  1.0000
  Tl  Tl1       1.0  0.56923508644104  0.3310938775539398  0.43875896930694575  1.0000
  Tl  Tl2       1.0  0.2860814332962036  0.10955038666725157  0.2493072003126144  1.0000
