data_image0
_chemical_formula_structural       BO8Sc3Tl2
_chemical_formula_sum              "B1 O8 Sc3 Tl2"
_cell_length_a       6.264636651259327
_cell_length_b       6.934625285677405
_cell_length_c       7.164860248565674
_cell_angle_alpha    64.64684224808462
_cell_angle_beta     63.889610631029626
_cell_angle_gamma    62.43028280377238

_space_group_name_H-M_alt    "P 1"
_space_group_IT_number       1

loop_
  _space_group_symop_operation_xyz
  'x, y, z'

loop_
  _atom_site_type_symbol
  _atom_site_label
  _atom_site_symmetry_multiplicity
  _atom_site_fract_x
  _atom_site_fract_y
  _atom_site_fract_z
  _atom_site_occupancy
  B   B1        1.0  0.5325897336006165  0.6895372271537781  0.8651534914970397  1.0000
  O   O1        1.0  0.2899163067340851  0.712928831577301  0.6867116093635559  1.0000
  O   O2        1.0  0.7248830795288086  0.5391162633895874  0.5322390794754028  1.0000
  O   O3        1.0  0.19700229167938232  0.7047615051269531  0.8010054826736449  1.0000
  O   O4        1.0  0.2545557916164398  0.05363662540912628  0.3552860617637634  1.0000
  O   O5        1.0  0.6765626668930054  0.1375732570886612  0.8960308432579039  1.0000
  O   O6        1.0  0.002339591970667243  0.5197561979293823  0.40690886974334706  1.0000
  O   O7        1.0  0.7625230550765991  0.010352683253586292  0.21329660713672635  1.0000
  O   O8        1.0  0.6575512886047363  0.5893981456756592  0.7624828815460204  1.0000
  Sc  Sc1       1.0  0.865458607673645  0.19586575031280518  0.4384844303131103  1.0000
  Sc  Sc2       1.0  0.8680896759033203  0.48956698179244995  0.14727868139743805  1.0000
  Sc  Sc3       1.0  0.21621645987033844  0.1115463525056839  0.9543741941452025  1.0000
  Tl  Tl1       1.0  0.2714305520057678  0.49753546714782715  0.9345498681068419  1.0000
  Tl  Tl2       1.0  0.7066248059272766  0.03444669023156166  0.42782974243164057  1.0000
