data_image0
_chemical_formula_structural       B6BrO5Tl2
_chemical_formula_sum              "B6 Br1 O5 Tl2"
_cell_length_a       6.763453362896024
_cell_length_b       6.845713723196981
_cell_length_c       7.560984134674072
_cell_angle_alpha    107.02911495034593
_cell_angle_beta     106.86769155760018
_cell_angle_gamma    106.60507983847668

_space_group_name_H-M_alt    "P 1"
_space_group_IT_number       1

loop_
  _space_group_symop_operation_xyz
  'x, y, z'

loop_
  _atom_site_type_symbol
  _atom_site_label
  _atom_site_symmetry_multiplicity
  _atom_site_fract_x
  _atom_site_fract_y
  _atom_site_fract_z
  _atom_site_occupancy
  B   B1        1.0  0.5962234139442444  0.35533463954925537  0.7684979438781739  1.0000
  B   B2        1.0  0.09678330272436143  0.9391348361968994  0.5040957927703857  1.0000
  B   B3        1.0  0.4251976311206818  0.8695843815803528  0.2815193235874177  1.0000
  B   B4        1.0  0.7837546467781068  0.2667936384677887  0.11660391837358476  1.0000
  B   B5        1.0  0.19114491343498233  0.8473269939422607  0.5789970755577089  1.0000
  B   B6        1.0  0.9124209284782411  0.4901622235774994  0.6520419716835023  1.0000
  Br  Br1       1.0  0.15539336204528809  0.8223155736923218  0.8074936866760255  1.0000
  O   O1        1.0  0.9668419957160951  0.9023219347000122  0.9884057044982911  1.0000
  O   O2        1.0  0.27082082629203796  0.26765546202659607  0.28685384988784796  1.0000
  O   O3        1.0  0.28821560740470886  0.9178173542022705  0.0959979295730591  1.0000
  O   O4        1.0  0.36401954293251043  0.35786378383636475  0.7698338627815248  1.0000
  O   O5        1.0  0.35379227995872503  0.7032607197761536  0.7632379531860353  1.0000
  Tl  Tl1       1.0  0.6653435230255128  0.5222315192222595  0.7027220726013185  1.0000
  Tl  Tl2       1.0  0.7411384582519532  0.9716864824295044  0.3121395111083985  1.0000
