data_image0
_chemical_formula_structural       B4O4Sc3Tl3
_chemical_formula_sum              "B4 O4 Sc3 Tl3"
_cell_length_a       5.433752722958823
_cell_length_b       6.3383457201177
_cell_length_c       8.313106536865234
_cell_angle_alpha    104.69484759051635
_cell_angle_beta     103.71449395585603
_cell_angle_gamma    89.53620501244237

_space_group_name_H-M_alt    "P 1"
_space_group_IT_number       1

loop_
  _space_group_symop_operation_xyz
  'x, y, z'

loop_
  _atom_site_type_symbol
  _atom_site_label
  _atom_site_symmetry_multiplicity
  _atom_site_fract_x
  _atom_site_fract_y
  _atom_site_fract_z
  _atom_site_occupancy
  B   B1        1.0  0.34843340516090393  0.5013440251350403  0.10492995381355286  1.0000
  B   B2        1.0  0.7165786027908325  0.09203936159610748  0.5973807573318481  1.0000
  B   B3        1.0  0.5875961184501648  0.8480814695358276  0.43346306681632996  1.0000
  B   B4        1.0  0.1184706911444664  0.33670321106910706  0.37826240062713623  1.0000
  O   O1        1.0  0.49602243304252625  0.739213764667511  0.8359420299530029  1.0000
  O   O2        1.0  0.23740048706531525  0.26384925842285156  0.6938229203224182  1.0000
  O   O3        1.0  0.26948752999305725  0.044777948409318924  0.3194621801376343  1.0000
  O   O4        1.0  0.85426926612854  0.04337207227945328  0.9701843857765198  1.0000
  Sc  Sc1       1.0  0.1561472862958908  0.12452851980924606  0.1418619006872177  1.0000
  Sc  Sc2       1.0  0.10311678797006607  0.8329806923866272  0.17242053151130676  1.0000
  Sc  Sc3       1.0  0.8869243264198303  0.7230023741722107  0.5095347762107849  1.0000
  Tl  Tl1       1.0  0.6679948568344116  0.5982763171195984  0.9166429042816162  1.0000
  Tl  Tl2       1.0  0.6316238045692444  0.3460236191749573  0.2210085690021515  1.0000
  Tl  Tl3       1.0  0.13362498581409454  0.30591392517089844  0.9290421605110168  1.0000
