data_image0
_chemical_formula_structural       BO6Sc4SmTl2
_chemical_formula_sum              "B1 O6 Sc4 Sm1 Tl2"
_cell_length_a       4.318489991622836
_cell_length_b       4.862296981229035
_cell_length_c       9.868651390075684
_cell_angle_alpha    92.40833666472129
_cell_angle_beta     100.55900894874627
_cell_angle_gamma    81.25995200662942

_space_group_name_H-M_alt    "P 1"
_space_group_IT_number       1

loop_
  _space_group_symop_operation_xyz
  'x, y, z'

loop_
  _atom_site_type_symbol
  _atom_site_label
  _atom_site_symmetry_multiplicity
  _atom_site_fract_x
  _atom_site_fract_y
  _atom_site_fract_z
  _atom_site_occupancy
  B   B1        1.0  0.5138059854507446  0.8669743537902832  0.3273056447505951  1.0000
  O   O1        1.0  0.3564590811729431  0.12287162244319916  0.7719647288322449  1.0000
  O   O2        1.0  0.06753190606832504  0.8753075003623962  0.49835482239723206  1.0000
  O   O3        1.0  0.710494875907898  0.3805212378501892  0.5676445960998535  1.0000
  O   O4        1.0  0.7742059230804443  0.1425684690475464  0.8864214420318604  1.0000
  O   O5        1.0  0.11015243083238602  0.6183578968048096  0.1592242419719696  1.0000
  O   O6        1.0  0.6288837194442749  0.9898676872253418  0.2813274562358856  1.0000
  Sc  Sc1       1.0  0.4076526463031769  0.7058772444725037  0.6349285244941711  1.0000
  Sc  Sc2       1.0  0.6800559759140015  0.12470729649066925  0.41811344027519226  1.0000
  Sc  Sc3       1.0  0.17518503963947296  0.8794680833816528  0.24160662293434143  1.0000
  Sc  Sc4       1.0  0.665929913520813  0.8721112608909607  0.8640833497047424  1.0000
  Sm  Sm1       1.0  0.1349967122077942  0.4063560664653778  0.9998895525932312  1.0000
  Tl  Tl1       1.0  0.07046745717525482  0.37960442900657654  0.7593694925308228  1.0000
  Tl  Tl2       1.0  0.09031800180673599  0.12131963670253754  0.34063690900802607  1.0000
