data_image0
_chemical_formula_structural       B3O7ScTl3
_chemical_formula_sum              "B3 O7 Sc1 Tl3"
_cell_length_a       5.239064254790142
_cell_length_b       6.901182154094204
_cell_length_c       8.316246032714844
_cell_angle_alpha    109.10289556318544
_cell_angle_beta     104.22123537889456
_cell_angle_gamma    94.49350198194092

_space_group_name_H-M_alt    "P 1"
_space_group_IT_number       1

loop_
  _space_group_symop_operation_xyz
  'x, y, z'

loop_
  _atom_site_type_symbol
  _atom_site_label
  _atom_site_symmetry_multiplicity
  _atom_site_fract_x
  _atom_site_fract_y
  _atom_site_fract_z
  _atom_site_occupancy
  B   B1        1.0  0.8196577429771423  0.9192386865615845  0.6332473158836365  1.0000
  B   B2        1.0  0.2841879725456238  0.5997670888900757  0.7492387294769287  1.0000
  B   B3        1.0  0.8417940735816956  0.5683955550193787  0.6297202706336975  1.0000
  O   O1        1.0  0.21013574302196503  0.7687700986862183  0.48131343722343445  1.0000
  O   O2        1.0  0.6495441198348999  0.10197563469409943  0.4398214519023895  1.0000
  O   O3        1.0  0.8510243892669678  0.5606597065925598  0.1633378565311432  1.0000
  O   O4        1.0  0.9477912187576294  0.7381288409233093  0.4195881485939026  1.0000
  O   O5        1.0  0.3466084897518158  0.525870680809021  0.5701987147331238  1.0000
  O   O6        1.0  0.8541964888572693  0.5584781765937805  0.012697647325694561  1.0000
  O   O7        1.0  0.8483937978744507  0.04905964434146881  0.002518445486202836  1.0000
  Sc  Sc1       1.0  0.8605111241340637  0.2409834861755371  0.5063738822937012  1.0000
  Tl  Tl1       1.0  0.8428786396980286  0.8372771143913269  0.010659772902727127  1.0000
  Tl  Tl2       1.0  0.33030998706817627  0.5273906588554382  0.00013304194726516898  1.0000
  Tl  Tl3       1.0  0.3564748167991638  0.3880217969417572  0.3019878566265106  1.0000
