data_image0
_chemical_formula_structural       PtSe5Zn
_chemical_formula_sum              "Pt1 Se5 Zn1"
_cell_length_a       4.401111897194479
_cell_length_b       7.191453075597123
_cell_length_c       7.2633771896362305
_cell_angle_alpha    123.5143959077827
_cell_angle_beta     89.42386564025854
_cell_angle_gamma    89.6637926122857

_space_group_name_H-M_alt    "P 1"
_space_group_IT_number       1

loop_
  _space_group_symop_operation_xyz
  'x, y, z'

loop_
  _atom_site_type_symbol
  _atom_site_label
  _atom_site_symmetry_multiplicity
  _atom_site_fract_x
  _atom_site_fract_y
  _atom_site_fract_z
  _atom_site_occupancy
  Pt  Pt1       1.0  0.6575561761856079  0.45407336950302124  0.8328618407249451  1.0000
  Se  Se1       1.0  0.6527026891708374  0.21311447024345398  0.5707759261131287  1.0000
  Se  Se2       1.0  0.15413068234920502  0.21623995900154114  0.48897850513458263  1.0000
  Se  Se3       1.0  0.1589060127735138  0.710557758808136  0.3300646841526032  1.0000
  Se  Se4       1.0  0.6580072045326233  0.7216048836708069  0.28019642829895025  1.0000
  Se  Se5       1.0  0.15846948325634003  0.6885284781455994  0.7108560800552368  1.0000
  Zn  Zn1       1.0  0.15890292823314667  0.1984991729259491  0.344836950302124  1.0000
