data_image0
_chemical_formula_structural       As4P2Zn
_chemical_formula_sum              "As4 P2 Zn1"
_cell_length_a       4.166189773971878
_cell_length_b       4.154097713782944
_cell_length_c       6.134979248046875
_cell_angle_alpha    124.43532581238856
_cell_angle_beta     91.66033548123555
_cell_angle_gamma    96.34015620298601

_space_group_name_H-M_alt    "P 1"
_space_group_IT_number       1

loop_
  _space_group_symop_operation_xyz
  'x, y, z'

loop_
  _atom_site_type_symbol
  _atom_site_label
  _atom_site_symmetry_multiplicity
  _atom_site_fract_x
  _atom_site_fract_y
  _atom_site_fract_z
  _atom_site_occupancy
  As  As1       1.0  0.9605275988578796  0.22077576816082  0.2767387330532074  1.0000
  As  As2       1.0  0.7245092391967773  0.3875540792942047  0.8529601693153381  1.0000
  As  As3       1.0  0.24874979257583618  0.5502782464027405  0.9956805109977722  1.0000
  As  As4       1.0  0.42155182361602783  0.4272722899913788  0.4720625877380371  1.0000
  P   P1        1.0  0.5198144316673279  0.16245652735233307  0.7321184873580933  1.0000
  P   P2        1.0  0.9861035346984863  0.5294279456138611  0.14947372674942017  1.0000
  Zn  Zn1       1.0  0.49980369210243225  0.24630557000637054  0.44749099016189575  1.0000
