data_image0
_chemical_formula_structural       As4Ru2Zn
_chemical_formula_sum              "As4 Ru2 Zn1"
_cell_length_a       3.7664619003801443
_cell_length_b       4.399478077612768
_cell_length_c       7.412231922149658
_cell_angle_alpha    96.96809664755953
_cell_angle_beta     92.1959335805917
_cell_angle_gamma    88.87512152571448

_space_group_name_H-M_alt    "P 1"
_space_group_IT_number       1

loop_
  _space_group_symop_operation_xyz
  'x, y, z'

loop_
  _atom_site_type_symbol
  _atom_site_label
  _atom_site_symmetry_multiplicity
  _atom_site_fract_x
  _atom_site_fract_y
  _atom_site_fract_z
  _atom_site_occupancy
  As  As1       1.0  0.35004493594169617  0.4679492115974426  0.7735854983329773  1.0000
  As  As2       1.0  0.8377700448036194  0.3336747884750366  0.14507518708705902  1.0000
  As  As3       1.0  0.3231962323188782  0.864666223526001  0.8974236249923706  1.0000
  As  As4       1.0  0.8349639773368835  0.6808147430419922  0.8424599766731262  1.0000
  Ru  Ru1       1.0  0.8460380434989929  0.6072065830230713  0.7935226559638977  1.0000
  Ru  Ru2       1.0  0.3435371220111847  0.4373563528060913  0.8410381078720093  1.0000
  Zn  Zn1       1.0  0.8168662786483765  0.3772844970226288  0.9749084711074829  1.0000
