data_image0
_chemical_formula_structural       As3Ru4
_chemical_formula_sum              "As3 Ru4"
_cell_length_a       3.6612626821535095
_cell_length_b       5.0449370446833735
_cell_length_c       5.10866117477417
_cell_angle_alpha    88.88790218356404
_cell_angle_beta     88.95038189260079
_cell_angle_gamma    89.18738385105164

_space_group_name_H-M_alt    "P 1"
_space_group_IT_number       1

loop_
  _space_group_symop_operation_xyz
  'x, y, z'

loop_
  _atom_site_type_symbol
  _atom_site_label
  _atom_site_symmetry_multiplicity
  _atom_site_fract_x
  _atom_site_fract_y
  _atom_site_fract_z
  _atom_site_occupancy
  As  As1       1.0  0.3442087471485138  0.7265123128890991  0.3777465224266052  1.0000
  As  As2       1.0  0.35174956917762756  0.9201465249061584  0.7141773700714111  1.0000
  As  As3       1.0  0.847423791885376  0.090166375041008  0.775341808795929  1.0000
  Ru  Ru1       1.0  0.35411274433135986  0.984099268913269  0.6217336654663086  1.0000
  Ru  Ru2       1.0  0.34109506011009216  0.7130444049835205  0.0388047955930233  1.0000
  Ru  Ru3       1.0  0.853571355342865  0.8949461579322815  0.6158853769302368  1.0000
  Ru  Ru4       1.0  0.84052973985672  0.35765400528907776  0.00970411952584982  1.0000
