data_image0
_chemical_formula_structural       As4Ru3
_chemical_formula_sum              "As4 Ru3"
_cell_length_a       3.497705550740825
_cell_length_b       4.190149906148991
_cell_length_c       5.797823905944824
_cell_angle_alpha    88.99072086668734
_cell_angle_beta     88.57228332426796
_cell_angle_gamma    89.49149053494996

_space_group_name_H-M_alt    "P 1"
_space_group_IT_number       1

loop_
  _space_group_symop_operation_xyz
  'x, y, z'

loop_
  _atom_site_type_symbol
  _atom_site_label
  _atom_site_symmetry_multiplicity
  _atom_site_fract_x
  _atom_site_fract_y
  _atom_site_fract_z
  _atom_site_occupancy
  As  As1       1.0  0.9594746828079224  0.6300604939460754  0.3356303870677948  1.0000
  As  As2       1.0  0.470598042011261  0.8089826703071594  0.26308557391166687  1.0000
  As  As3       1.0  0.4546321630477905  0.6876752376556396  0.9939269423484802  1.0000
  As  As4       1.0  0.4647780656814575  0.4074108898639679  0.1978548765182495  1.0000
  Ru  Ru1       1.0  0.9530065655708313  0.5694658756256104  0.419414222240448  1.0000
  Ru  Ru2       1.0  0.9532755017280579  0.1260695904493332  0.995768666267395  1.0000
  Ru  Ru3       1.0  0.4693072438240051  0.905683696269989  0.7885312438011169  1.0000
