data_image0
_chemical_formula_structural       GaP4Pb3V4Zr
_chemical_formula_sum              "Ga1 P4 Pb3 V4 Zr1"
_cell_length_a       4.515954958645753
_cell_length_b       6.138584677618398
_cell_length_c       10.33389663696289
_cell_angle_alpha    89.94246283731268
_cell_angle_beta     90.7667296157382
_cell_angle_gamma    104.46126993285593

_space_group_name_H-M_alt    "P 1"
_space_group_IT_number       1

loop_
  _space_group_symop_operation_xyz
  'x, y, z'

loop_
  _atom_site_type_symbol
  _atom_site_label
  _atom_site_symmetry_multiplicity
  _atom_site_fract_x
  _atom_site_fract_y
  _atom_site_fract_z
  _atom_site_occupancy
  Ga  Ga1       1.0  0.032889511436223984  0.6469854712486267  0.5760607719421387  1.0000
  P   P1        1.0  0.7473185658454895  0.8640398979187012  0.5476790070533752  1.0000
  P   P2        1.0  0.5060823559761047  0.9148359298706055  0.6651160717010498  1.0000
  P   P3        1.0  0.569810688495636  0.3395819664001465  0.46543899178504944  1.0000
  P   P4        1.0  0.5394498705863953  0.904035210609436  0.264837384223938  1.0000
  Pb  Pb1       1.0  0.03638652712106705  0.583472728729248  0.9083544611930847  1.0000
  Pb  Pb2       1.0  0.5232198238372803  0.6763814687728882  0.045492734760046005  1.0000
  Pb  Pb3       1.0  0.051755331456661224  0.06795042008161545  0.5437203049659729  1.0000
  V   V1        1.0  0.022373944520950317  0.10732831805944443  0.5314303040504456  1.0000
  V   V2        1.0  0.03712591901421547  0.03460104763507843  0.48708558082580566  1.0000
  V   V3        1.0  0.5228588581085205  0.5733433365821838  0.08054463565349579  1.0000
  V   V4        1.0  0.039244651794433594  0.8214790225028992  0.30578020215034485  1.0000
  Zr  Zr1       1.0  0.5390090346336365  0.3252657353878021  0.8950921297073364  1.0000
