data_image0
_chemical_formula_structural       AsP5Pb5V2
_chemical_formula_sum              "As1 P5 Pb5 V2"
_cell_length_a       6.281871323583469
_cell_length_b       6.788967800515349
_cell_length_c       8.566551208496094
_cell_angle_alpha    82.37745251625616
_cell_angle_beta     75.6392197861105
_cell_angle_gamma    67.57347035363883

_space_group_name_H-M_alt    "P 1"
_space_group_IT_number       1

loop_
  _space_group_symop_operation_xyz
  'x, y, z'

loop_
  _atom_site_type_symbol
  _atom_site_label
  _atom_site_symmetry_multiplicity
  _atom_site_fract_x
  _atom_site_fract_y
  _atom_site_fract_z
  _atom_site_occupancy
  As  As1       1.0  0.10334718972444534  0.7730419039726257  0.6983509659767151  1.0000
  P   P1        1.0  0.6311038732528687  0.9748340249061584  0.9059866666793823  1.0000
  P   P2        1.0  0.16306807100772858  0.5819509029388428  0.2746513783931732  1.0000
  P   P3        1.0  0.09396270662546158  0.23134519159793854  0.1883411705493927  1.0000
  P   P4        1.0  0.6256515383720398  0.8854820728302002  0.5024190545082092  1.0000
  P   P5        1.0  0.8690583109855652  0.49388599395751953  0.23184572160243988  1.0000
  Pb  Pb1       1.0  0.6251384019851685  0.06327655911445618  0.6323848962783813  1.0000
  Pb  Pb2       1.0  0.9181241989135742  0.014734683558344841  0.23719769716262817  1.0000
  Pb  Pb3       1.0  0.38891202211380005  0.9738049507141113  0.7344561219215393  1.0000
  Pb  Pb4       1.0  0.6390419602394104  0.7905435562133789  0.9680554866790771  1.0000
  Pb  Pb5       1.0  0.5997951030731201  0.30369970202445984  0.4019971489906311  1.0000
  V   V1        1.0  0.6452037692070007  0.4383593499660492  0.37041983008384705  1.0000
  V   V2        1.0  0.3254085183143616  0.8571470379829407  0.5582916140556335  1.0000
