data_image0
_chemical_formula_structural       IP6Pb3TbVZr
_chemical_formula_sum              "I1 P6 Pb3 Tb1 V1 Zr1"
_cell_length_a       6.2189612138497
_cell_length_b       7.205542070194499
_cell_length_c       8.590926170349121
_cell_angle_alpha    86.45982793335223
_cell_angle_beta     77.12809610879303
_cell_angle_gamma    69.81340267002793

_space_group_name_H-M_alt    "P 1"
_space_group_IT_number       1

loop_
  _space_group_symop_operation_xyz
  'x, y, z'

loop_
  _atom_site_type_symbol
  _atom_site_label
  _atom_site_symmetry_multiplicity
  _atom_site_fract_x
  _atom_site_fract_y
  _atom_site_fract_z
  _atom_site_occupancy
  I   I1        1.0  0.0609474033117295  0.9943407773971557  0.8960812091827393  1.0000
  P   P1        1.0  0.7357009053230286  0.7872877717018127  0.8130702972412109  1.0000
  P   P2        1.0  0.7726544141769409  0.2957141101360321  0.8717516660690309  1.0000
  P   P3        1.0  0.6454063653945923  0.4766444861888885  0.5068358778953552  1.0000
  P   P4        1.0  0.2627323269844055  0.30339908599853516  0.9017884731292725  1.0000
  P   P5        1.0  0.23328936100006104  0.05116761103272438  0.8741440773010254  1.0000
  P   P6        1.0  0.4312141537666321  0.6583212614059448  0.7732017636299133  1.0000
  Pb  Pb1       1.0  0.03810910880565643  0.4133499562740326  0.0458151213824749  1.0000
  Pb  Pb2       1.0  0.27850282192230225  0.15350349247455597  0.9099275469779968  1.0000
  Pb  Pb3       1.0  0.5362452864646912  0.5537334680557251  0.08875718712806702  1.0000
  Tb  Tb1       1.0  0.8135666251182556  0.38215336203575134  0.06245561689138415  1.0000
  V   V1        1.0  0.8602917194366455  0.048624664545059204  0.6356377601623535  1.0000
  Zr  Zr1       1.0  0.37990659475326544  0.9768337607383727  0.19082555174827576  1.0000
