data_image0
_chemical_formula_structural       P3Pb8V2
_chemical_formula_sum              "P3 Pb8 V2"
_cell_length_a       4.583583878909877
_cell_length_b       4.814977194990773
_cell_length_c       10.744088172912598
_cell_angle_alpha    106.25870086407411
_cell_angle_beta     91.38520538103357
_cell_angle_gamma    91.11255985695271

_space_group_name_H-M_alt    "P 1"
_space_group_IT_number       1

loop_
  _space_group_symop_operation_xyz
  'x, y, z'

loop_
  _atom_site_type_symbol
  _atom_site_label
  _atom_site_symmetry_multiplicity
  _atom_site_fract_x
  _atom_site_fract_y
  _atom_site_fract_z
  _atom_site_occupancy
  P   P1        1.0  0.38169431686401367  0.9210246801376343  0.2702431082725525  1.0000
  P   P2        1.0  0.5409238934516907  0.20005089044570923  0.9645026922225952  1.0000
  P   P3        1.0  0.8393875360488892  0.5822704434394836  0.5479559302330017  1.0000
  Pb  Pb1       1.0  0.043534837663173676  0.5411803722381592  0.9283240437507629  1.0000
  Pb  Pb2       1.0  0.05597000569105148  0.10025542229413986  0.7131544947624207  1.0000
  Pb  Pb3       1.0  0.042294617742300034  0.6106674075126648  0.42137226462364197  1.0000
  Pb  Pb4       1.0  0.5470974445343018  0.9857848286628723  0.3759062588214874  1.0000
  Pb  Pb5       1.0  0.5534787178039551  0.2771037518978119  0.4212101101875305  1.0000
  Pb  Pb6       1.0  0.05087651312351227  0.3122939467430115  0.8136786818504333  1.0000
  Pb  Pb7       1.0  0.30290359258651733  0.3304316997528076  0.6799336075782776  1.0000
  Pb  Pb8       1.0  0.5427595973014832  0.9630327820777893  0.7995851635932922  1.0000
  V   V1        1.0  0.5429251790046692  0.7051956057548523  0.4967501163482666  1.0000
  V   V2        1.0  0.049855802208185196  0.24517621099948883  0.006461116950958962  1.0000
