data_image0
_chemical_formula_structural       O2P2Pb8Zr
_chemical_formula_sum              "O2 P2 Pb8 Zr1"
_cell_length_a       6.047725368365916
_cell_length_b       6.07132507405091
_cell_length_c       10.9673433303833
_cell_angle_alpha    92.12777233720405
_cell_angle_beta     89.40653470126578
_cell_angle_gamma    113.54382991082544

_space_group_name_H-M_alt    "P 1"
_space_group_IT_number       1

loop_
  _space_group_symop_operation_xyz
  'x, y, z'

loop_
  _atom_site_type_symbol
  _atom_site_label
  _atom_site_symmetry_multiplicity
  _atom_site_fract_x
  _atom_site_fract_y
  _atom_site_fract_z
  _atom_site_occupancy
  O   O1        1.0  0.8452511429786682  0.1458476185798645  0.862031877040863  1.0000
  O   O2        1.0  0.6244956851005554  0.7842952013015747  0.31780967116355896  1.0000
  P   P1        1.0  0.6366764307022095  0.7760710120201111  0.7440228462219238  1.0000
  P   P2        1.0  0.14177106320858  0.4933719635009765  0.0371093824505806  1.0000
  Pb  Pb1       1.0  0.35091400146484375  0.0682540163397789  0.7750564813613892  1.0000
  Pb  Pb2       1.0  0.7946056723594666  0.9569478034973143  0.6386663317680359  1.0000
  Pb  Pb3       1.0  0.09890852123498912  0.46403667330741877  0.9960840344429016  1.0000
  Pb  Pb4       1.0  0.6133527755737305  0.4249657988548278  0.8206529021263123  1.0000
  Pb  Pb5       1.0  0.613655686378479  0.2495685517787933  0.7349453568458557  1.0000
  Pb  Pb6       1.0  0.3212186396121979  0.23659195005893704  0.1451292783021927  1.0000
  Pb  Pb7       1.0  0.8424252271652222  0.7893509864807129  0.1439354121685028  1.0000
  Pb  Pb8       1.0  0.6213211417198181  0.7830482721328735  0.37291812896728516  1.0000
  Zr  Zr1       1.0  0.13002182543277732  0.851699411869049  0.7430408596992493  1.0000
