data_image0
_chemical_formula_structural       NiP5Pb4VZr2
_chemical_formula_sum              "Ni1 P5 Pb4 V1 Zr2"
_cell_length_a       5.332494728150497
_cell_length_b       7.267357816471577
_cell_length_c       7.725432395935059
_cell_angle_alpha    65.72734505512321
_cell_angle_beta     76.00602544806357
_cell_angle_gamma    76.4583980813488

_space_group_name_H-M_alt    "P 1"
_space_group_IT_number       1

loop_
  _space_group_symop_operation_xyz
  'x, y, z'

loop_
  _atom_site_type_symbol
  _atom_site_label
  _atom_site_symmetry_multiplicity
  _atom_site_fract_x
  _atom_site_fract_y
  _atom_site_fract_z
  _atom_site_occupancy
  Ni  Ni1       1.0  0.04875142499804497  0.34241387248039246  0.7625510692596436  1.0000
  P   P1        1.0  0.5720377564430237  0.48691636323928833  0.9065326452255249  1.0000
  P   P2        1.0  0.10109914839267731  0.9821149110794067  0.13371524214744568  1.0000
  P   P3        1.0  0.5487602353096008  0.09966067969799042  0.9116446375846863  1.0000
  P   P4        1.0  0.5703622698783875  0.8736301064491272  0.19055762887001038  1.0000
  P   P5        1.0  0.03953663632273674  0.6386690139770508  0.6506988406181335  1.0000
  Pb  Pb1       1.0  0.5596505999565125  0.9121459722518921  0.7375526428222656  1.0000
  Pb  Pb2       1.0  0.5526055097579956  0.0723344087600708  0.2624468207359314  1.0000
  Pb  Pb3       1.0  0.07659588009119034  0.9668048620223999  0.7548072338104248  1.0000
  Pb  Pb4       1.0  0.06675617396831512  0.5635368227958679  0.18978187441825867  1.0000
  V   V1        1.0  0.5851094722747803  0.9758887887001038  0.5787354111671448  1.0000
  Zr  Zr1       1.0  0.5850359201431274  0.9764355421066284  0.6936764121055603  1.0000
  Zr  Zr2       1.0  0.5511655807495117  0.22979286313056946  0.7754951119422913  1.0000
