data_image0
_chemical_formula_structural       Ca2ErHg4Mg3Sc2
_chemical_formula_sum              "Ca2 Er1 Hg4 Mg3 Sc2"
_cell_length_a       4.150014946823107
_cell_length_b       8.000456954584255
_cell_length_c       9.917160034179688
_cell_angle_alpha    110.78531934526885
_cell_angle_beta     89.95128523078232
_cell_angle_gamma    90.08686361424412

_space_group_name_H-M_alt    "P 1"
_space_group_IT_number       1

loop_
  _space_group_symop_operation_xyz
  'x, y, z'

loop_
  _atom_site_type_symbol
  _atom_site_label
  _atom_site_symmetry_multiplicity
  _atom_site_fract_x
  _atom_site_fract_y
  _atom_site_fract_z
  _atom_site_occupancy
  Ca  Ca1       1.0  0.9569193720817566  0.34081271290779114  0.22628194093704224  1.0000
  Ca  Ca2       1.0  0.9574706554412842  0.4108560085296631  0.8266431093215942  1.0000
  Er  Er1       1.0  0.95753014087677  0.9430918097496033  0.9484108090400696  1.0000
  Hg  Hg1       1.0  0.4581485688686371  0.6384955048561096  0.3611390292644501  1.0000
  Hg  Hg2       1.0  0.4572628438472748  0.03366750851273537  0.23073947429656982  1.0000
  Hg  Hg3       1.0  0.459530234336853  0.23385955393314362  0.9797036051750183  1.0000
  Hg  Hg4       1.0  0.45432886481285095  0.6827528476715088  0.7596542239189148  1.0000
  Mg  Mg1       1.0  0.9496290683746338  0.06345116347074509  0.46260595321655273  1.0000
  Mg  Mg2       1.0  0.45848608016967773  0.017425404861569405  0.6917346715927124  1.0000
  Mg  Mg3       1.0  0.45802149176597595  0.3713127374649048  0.5240605473518372  1.0000
  Sc  Sc1       1.0  0.9590542912483215  0.6974215507507324  0.5710980892181396  1.0000
  Sc  Sc2       1.0  0.958982527256012  0.7483558058738708  0.1982303708791733  1.0000
