data_image0
_chemical_formula_structural       CaCrCuHg2KPrTe5
_chemical_formula_sum              "Ca1 Cr1 Cu1 Hg2 K1 Pr1 Te5"
_cell_length_a       7.322646695578246
_cell_length_b       7.333161824682155
_cell_length_c       7.317574501037598
_cell_angle_alpha    99.88979545131154
_cell_angle_beta     99.57420312923895
_cell_angle_gamma    99.03610368897034

_space_group_name_H-M_alt    "P 1"
_space_group_IT_number       1

loop_
  _space_group_symop_operation_xyz
  'x, y, z'

loop_
  _atom_site_type_symbol
  _atom_site_label
  _atom_site_symmetry_multiplicity
  _atom_site_fract_x
  _atom_site_fract_y
  _atom_site_fract_z
  _atom_site_occupancy
  Ca  Ca1       1.0  0.3635634183883667  0.261334627866745  0.26426103711128235  1.0000
  Cr  Cr1       1.0  0.4314541220664978  0.8745717406272888  0.7576120495796204  1.0000
  Cu  Cu1       1.0  0.3855898380279541  0.2705737352371216  0.8386878967285156  1.0000
  Hg  Hg1       1.0  0.1372510939836502  0.584805965423584  0.5076695680618286  1.0000
  Hg  Hg2       1.0  0.06438172608613968  0.0395478829741478  0.44403132796287537  1.0000
  K   K1        1.0  0.8025897145271301  0.7113215327262878  0.12139536440372466  1.0000
  Pr  Pr1       1.0  0.88643878698349  0.267776757478714  0.7105318903923035  1.0000
  Te  Te1       1.0  0.6982307434082031  0.2012566179037094  0.0521920584142208  1.0000
  Te  Te2       1.0  0.23071998357772827  0.5014154314994812  0.0169708002358675  1.0000
  Te  Te3       1.0  0.1310618668794632  0.9752482175827026  0.8801009058952332  1.0000
  Te  Te4       1.0  0.5685990452766418  0.5297251343727112  0.6543055772781372  1.0000
  Te  Te5       1.0  0.5273683071136475  0.9562233090400696  0.4650746285915375  1.0000
