data_image0
_chemical_formula_structural       CaCrHg4KMgTe3Zr
_chemical_formula_sum              "Ca1 Cr1 Hg4 K1 Mg1 Te3 Zr1"
_cell_length_a       6.8643525315143075
_cell_length_b       6.8827961368693815
_cell_length_c       6.89171838760376
_cell_angle_alpha    97.52301471964901
_cell_angle_beta     97.33391857250015
_cell_angle_gamma    97.36621642625629

_space_group_name_H-M_alt    "P 1"
_space_group_IT_number       1

loop_
  _space_group_symop_operation_xyz
  'x, y, z'

loop_
  _atom_site_type_symbol
  _atom_site_label
  _atom_site_symmetry_multiplicity
  _atom_site_fract_x
  _atom_site_fract_y
  _atom_site_fract_z
  _atom_site_occupancy
  Ca  Ca1       1.0  0.7064629793167114  0.5788506865501404  0.6134456396102905  1.0000
  Cr  Cr1       1.0  0.1862211525440216  0.4029991328716278  0.5640770196914673  1.0000
  Hg  Hg1       1.0  0.8267638683319092  0.9047725200653076  0.9464640617370605  1.0000
  Hg  Hg2       1.0  0.017479633912444115  0.8825035691261292  0.30657124519348145  1.0000
  Hg  Hg3       1.0  0.3756088316440582  0.3578673005104065  0.7841830253601074  1.0000
  Hg  Hg4       1.0  0.37426093220710754  0.23475727438926697  0.26511654257774353  1.0000
  K   K1        1.0  0.4583726227283478  0.7072081565856934  0.1292995810508728  1.0000
  Mg  Mg1       1.0  0.5956756472587585  0.17075800895690918  0.8725672364234924  1.0000
  Te  Te1       1.0  0.9598945379257202  0.4438764452934265  0.18798719346523285  1.0000
  Te  Te2       1.0  0.28227880597114563  0.8115517497062683  0.6552940607070923  1.0000
  Te  Te3       1.0  0.794167160987854  0.1379866749048233  0.523436963558197  1.0000
  Zr  Zr1       1.0  0.10420417040586472  0.16695666313171387  0.8710741996765137  1.0000
