data_image0
_chemical_formula_structural       CaHg3Mg3Sc5
_chemical_formula_sum              "Ca1 Hg3 Mg3 Sc5"
_cell_length_a       4.223440748137536
_cell_length_b       7.430921507238311
_cell_length_c       8.987977981567383
_cell_angle_alpha    90.08734001274102
_cell_angle_beta     89.86060784937847
_cell_angle_gamma    90.14650062147213

_space_group_name_H-M_alt    "P 1"
_space_group_IT_number       1

loop_
  _space_group_symop_operation_xyz
  'x, y, z'

loop_
  _atom_site_type_symbol
  _atom_site_label
  _atom_site_symmetry_multiplicity
  _atom_site_fract_x
  _atom_site_fract_y
  _atom_site_fract_z
  _atom_site_occupancy
  Ca  Ca1       1.0  0.5063260793685913  0.5212855935096741  0.7287817597389221  1.0000
  Hg  Hg1       1.0  0.008417190052568913  0.29788368940353394  0.5195894241333007  1.0000
  Hg  Hg2       1.0  0.008621575310826302  0.8190140128135681  0.7797452211380004  1.0000
  Hg  Hg3       1.0  0.5126966834068298  0.309455007314682  0.03516353294253349  1.0000
  Mg  Mg1       1.0  0.007319774013012648  0.19281083345413208  0.8336316347122192  1.0000
  Mg  Mg2       1.0  0.005778074264526367  0.6946951746940613  0.4793465733528137  1.0000
  Mg  Mg3       1.0  0.0078008174896240234  0.6112217903137207  0.07651051133871078  1.0000
  Sc  Sc1       1.0  0.508684515953064  0.028801973909139633  0.5955055952072144  1.0000
  Sc  Sc2       1.0  0.5085185766220093  0.4148530662059784  0.34160396456718445  1.0000
  Sc  Sc3       1.0  0.5046530961990356  0.8373602628707886  0.2887299060821533  1.0000
  Sc  Sc4       1.0  0.007624880410730839  0.11388897150754929  0.21803754568099976  1.0000
  Sc  Sc5       1.0  0.5069275498390198  0.9106365442276001  0.965160667896271  1.0000
