data_image0
_chemical_formula_structural       ErGeSeTe3
_chemical_formula_sum              "Er1 Ge1 Se1 Te3"
_cell_length_a       5.726388468648876
_cell_length_b       5.694133983135164
_cell_length_c       5.707858562469482
_cell_angle_alpha    89.84724100048948
_cell_angle_beta     89.90350892436517
_cell_angle_gamma    89.78352502107734

_space_group_name_H-M_alt    "P 1"
_space_group_IT_number       1

loop_
  _space_group_symop_operation_xyz
  'x, y, z'

loop_
  _atom_site_type_symbol
  _atom_site_label
  _atom_site_symmetry_multiplicity
  _atom_site_fract_x
  _atom_site_fract_y
  _atom_site_fract_z
  _atom_site_occupancy
  Er  Er1       1.0  0.5238751173019409  0.8539197444915771  0.46914455294609075  1.0000
  Ge  Ge1       1.0  0.5588492751121521  0.35426703095436096  0.9722262620925903  1.0000
  Se  Se1       1.0  0.5273858904838562  0.3523382842540741  0.47211509943008423  1.0000
  Te  Te1       1.0  0.5238340497016907  0.8552813529968262  0.9714707136154175  1.0000
  Te  Te2       1.0  0.02485169656574726  0.3566506505012512  0.9721471071243285  1.0000
  Te  Te3       1.0  0.02521011419594288  0.8578424453735352  0.47158834338188177  1.0000
