data_image0
_chemical_formula_structural       Ge3Te3
_chemical_formula_sum              "Ge3 Te3"
_cell_length_a       4.125710381003437
_cell_length_b       4.182727445172228
_cell_length_c       12.79699420928955
_cell_angle_alpha    80.94612447589121
_cell_angle_beta     80.6283886982979
_cell_angle_gamma    60.537524451641914

_space_group_name_H-M_alt    "P 1"
_space_group_IT_number       1

loop_
  _space_group_symop_operation_xyz
  'x, y, z'

loop_
  _atom_site_type_symbol
  _atom_site_label
  _atom_site_symmetry_multiplicity
  _atom_site_fract_x
  _atom_site_fract_y
  _atom_site_fract_z
  _atom_site_occupancy
  Ge  Ge1       1.0  0.2697385251522064  0.6238052845001221  0.4397985637187958  1.0000
  Ge  Ge2       1.0  0.10593879222869873  0.43956658244132996  0.9665846228599548  1.0000
  Ge  Ge3       1.0  0.7338218092918396  0.08221405744552612  0.06783299148082733  1.0000
  Te  Te1       1.0  0.3397454023361206  0.6889288425445557  0.21201801300048828  1.0000
  Te  Te2       1.0  0.8159167766571045  0.15988591313362122  0.8489287495613098  1.0000
  Te  Te3       1.0  0.5734432935714722  0.9120028018951416  0.5499251484870911  1.0000
