data_image0
_chemical_formula_structural       Ge3Te3
_chemical_formula_sum              "Ge3 Te3"
_cell_length_a       3.9534426522985386
_cell_length_b       3.990741754615527
_cell_length_c       12.742841720581055
_cell_angle_alpha    90.0609591639612
_cell_angle_beta     89.9220896048984
_cell_angle_gamma    119.23485596094257

_space_group_name_H-M_alt    "P 1"
_space_group_IT_number       1

loop_
  _space_group_symop_operation_xyz
  'x, y, z'

loop_
  _atom_site_type_symbol
  _atom_site_label
  _atom_site_symmetry_multiplicity
  _atom_site_fract_x
  _atom_site_fract_y
  _atom_site_fract_z
  _atom_site_occupancy
  Ge  Ge1       1.0  0.0257550161331892  0.7151841521263123  0.9846720099449158  1.0000
  Ge  Ge2       1.0  0.6977931261062622  0.04507431387901306  0.6292417049407959  1.0000
  Ge  Ge3       1.0  0.025828935205936432  0.7197384834289551  0.5069716572761536  1.0000
  Te  Te1       1.0  0.694494366645813  0.048866644501686096  0.07838435471057892  1.0000
  Te  Te2       1.0  0.36639946699142456  0.3941399157047272  0.38282105326652527  1.0000
  Te  Te3       1.0  0.3613468110561371  0.3841630518436432  0.7627171874046326  1.0000
