data_image0
_chemical_formula_structural       AlBa5IrRhSr
_chemical_formula_sum              "Al1 Ba5 Ir1 Rh1 Sr1"
_cell_length_a       4.698825225512855
_cell_length_b       4.986585078872317
_cell_length_c       9.036689758300781
_cell_angle_alpha    81.60363684959813
_cell_angle_beta     75.68531679172928
_cell_angle_gamma    60.25616382646329

_space_group_name_H-M_alt    "P 1"
_space_group_IT_number       1

loop_
  _space_group_symop_operation_xyz
  'x, y, z'

loop_
  _atom_site_type_symbol
  _atom_site_label
  _atom_site_symmetry_multiplicity
  _atom_site_fract_x
  _atom_site_fract_y
  _atom_site_fract_z
  _atom_site_occupancy
  Al  Al1       1.0  0.429935097694397  0.906097412109375  0.992325186729431  1.0000
  Ba  Ba1       1.0  0.4247347116470337  0.8732285499572754  0.820060670375824  1.0000
  Ba  Ba2       1.0  0.4452098608016968  0.14400427043437958  0.614935040473938  1.0000
  Ba  Ba3       1.0  0.9211819171905518  0.8931344747543335  0.5821153521537781  1.0000
  Ba  Ba4       1.0  0.9342371821403503  0.38430148363113403  0.4389341473579407  1.0000
  Ba  Ba5       1.0  0.4275527000427246  0.401786744594574  0.4723022580146789  1.0000
  Ir  Ir1       1.0  0.014873686246573925  0.6684510111808777  0.32985204458236694  1.0000
  Rh  Rh1       1.0  0.41892340779304504  0.38345834612846375  0.06548729538917542  1.0000
  Sr  Sr1       1.0  0.5618562698364258  0.7963008880615234  0.33062902092933655  1.0000
