data_image0
_chemical_formula_structural       Ba3H2IrRh2Ru
_chemical_formula_sum              "Ba3 H2 Ir1 Rh2 Ru1"
_cell_length_a       4.111833268944348
_cell_length_b       3.9964845407906084
_cell_length_c       8.55446720123291
_cell_angle_alpha    106.76958850420127
_cell_angle_beta     102.83249297175837
_cell_angle_gamma    90.7972147006174

_space_group_name_H-M_alt    "P 1"
_space_group_IT_number       1

loop_
  _space_group_symop_operation_xyz
  'x, y, z'

loop_
  _atom_site_type_symbol
  _atom_site_label
  _atom_site_symmetry_multiplicity
  _atom_site_fract_x
  _atom_site_fract_y
  _atom_site_fract_z
  _atom_site_occupancy
  Ba  Ba1       1.0  0.6233276128768921  0.9592831730842589  0.5337688326835632  1.0000
  Ba  Ba2       1.0  0.12400560826063155  0.9979878664016723  0.9562453627586365  1.0000
  Ba  Ba3       1.0  0.6584594249725342  0.23493351042270658  0.012619216926395893  1.0000
  H   H1        1.0  0.12453514337539673  0.26687300205230713  0.04909339547157287  1.0000
  H   H2        1.0  0.06711655110120773  0.0953080728650093  0.32735675573349  1.0000
  Ir  Ir1       1.0  0.10613092035055159  0.9992594718933104  0.7925429344177246  1.0000
  Rh  Rh1       1.0  0.7045432925224304  0.731820523738861  0.23948778212070465  1.0000
  Rh  Rh2       1.0  0.09718004614114761  0.49868413805961603  0.7898242473602295  1.0000
  Ru  Ru1       1.0  0.560762345790863  0.635592520236969  0.6665336489677429  1.0000
