data_image0
_chemical_formula_structural       Ba5Ir2Rh2
_chemical_formula_sum              "Ba5 Ir2 Rh2"
_cell_length_a       4.546342869171343
_cell_length_b       5.002689721296006
_cell_length_c       9.648061752319336
_cell_angle_alpha    82.32002624563704
_cell_angle_beta     75.83085940871611
_cell_angle_gamma    61.65137619217501

_space_group_name_H-M_alt    "P 1"
_space_group_IT_number       1

loop_
  _space_group_symop_operation_xyz
  'x, y, z'

loop_
  _atom_site_type_symbol
  _atom_site_label
  _atom_site_symmetry_multiplicity
  _atom_site_fract_x
  _atom_site_fract_y
  _atom_site_fract_z
  _atom_site_occupancy
  Ba  Ba1       1.0  0.9374503493309021  0.6949866414070129  0.10695945471525195  1.0000
  Ba  Ba2       1.0  0.8878441452980042  0.28608280420303345  0.9934089183807373  1.0000
  Ba  Ba3       1.0  0.9927377700805664  0.9886512756347656  0.6481648087501526  1.0000
  Ba  Ba4       1.0  0.45899298787117004  0.15387801826000214  0.3530436158180237  1.0000
  Ba  Ba5       1.0  0.47272789478302  0.47737547755241394  0.7294299602508545  1.0000
  Ir  Ir1       1.0  0.04010755941271782  0.9299347996711731  0.48834842443466187  1.0000
  Ir  Ir2       1.0  0.4373614490032196  0.74043208360672  0.3500295579433441  1.0000
  Rh  Rh1       1.0  0.42615631222724915  0.7489549517631531  0.0012283701216802116  1.0000
  Rh  Rh2       1.0  0.46833741664886475  0.12248938530683517  0.8979447484016418  1.0000
