data_image0
_chemical_formula_structural       AlAs4Ba3IPRu
_chemical_formula_sum              "Al1 As4 Ba3 I1 P1 Ru1"
_cell_length_a       6.3384636301913195
_cell_length_b       6.10290443694402
_cell_length_c       10.078256607055664
_cell_angle_alpha    109.63834568957903
_cell_angle_beta     105.03412181389947
_cell_angle_gamma    118.67609417044274

_space_group_name_H-M_alt    "P 1"
_space_group_IT_number       1

loop_
  _space_group_symop_operation_xyz
  'x, y, z'

loop_
  _atom_site_type_symbol
  _atom_site_label
  _atom_site_symmetry_multiplicity
  _atom_site_fract_x
  _atom_site_fract_y
  _atom_site_fract_z
  _atom_site_occupancy
  Al  Al1       1.0  0.4050452709197998  0.8664252758026123  0.6521783471107483  1.0000
  As  As1       1.0  0.40114307403564453  0.6359955668449402  0.6615555286407471  1.0000
  As  As2       1.0  0.6510505676269531  0.3998696506023407  0.46327850222587585  1.0000
  As  As3       1.0  0.06624344736337662  0.8502203226089478  0.4557175636291504  1.0000
  As  As4       1.0  0.3629209101200104  0.6975371837615967  0.9370977282524109  1.0000
  Ba  Ba1       1.0  0.3895150125026703  0.9866790771484375  0.3107875287532806  1.0000
  Ba  Ba2       1.0  0.12371284514665602  0.29561883211135864  0.6062725782394409  1.0000
  Ba  Ba3       1.0  0.34365978837013245  0.69446861743927  0.445171058177948  1.0000
  I   I1        1.0  0.11651972681283951  0.8920414447784424  0.5737491250038147  1.0000
  P   P1        1.0  0.662764847278595  0.6393689513206482  0.5463784337043762  1.0000
  Ru  Ru1       1.0  0.9770637154579161  0.16793031990528107  0.5069700479507446  1.0000
