data_image0
_chemical_formula_structural       As5Ba3BiP2
_chemical_formula_sum              "As5 Ba3 Bi1 P2"
_cell_length_a       5.718653612772525
_cell_length_b       5.4326144607282725
_cell_length_c       11.286564826965332
_cell_angle_alpha    104.72411706614955
_cell_angle_beta     100.60190746914536
_cell_angle_gamma    119.03716973800522

_space_group_name_H-M_alt    "P 1"
_space_group_IT_number       1

loop_
  _space_group_symop_operation_xyz
  'x, y, z'

loop_
  _atom_site_type_symbol
  _atom_site_label
  _atom_site_symmetry_multiplicity
  _atom_site_fract_x
  _atom_site_fract_y
  _atom_site_fract_z
  _atom_site_occupancy
  As  As1       1.0  0.48878070712089544  0.7543236017227173  0.5012516975402832  1.0000
  As  As2       1.0  0.3361351490020752  0.1020236611366272  0.2572845220565796  1.0000
  As  As3       1.0  0.9136139750480653  0.346869558095932  0.11599656194448474  1.0000
  As  As4       1.0  0.9802349209785463  0.4645448923110962  0.09131518006324772  1.0000
  As  As5       1.0  0.25789177417755127  0.3423023819923401  0.5900495052337646  1.0000
  Ba  Ba1       1.0  0.7545688152313232  0.390395849943161  0.6349987387657166  1.0000
  Ba  Ba2       1.0  0.758965253829956  0.19863054156303406  0.6737592816352844  1.0000
  Ba  Ba3       1.0  0.25462040305137634  0.7821707725524902  0.2617442011833191  1.0000
  Bi  Bi1       1.0  0.23827591538429263  0.3886607587337494  0.36365213990211487  1.0000
  P   P1        1.0  0.23616099357604983  0.9075766205787659  0.38702812790870667  1.0000
  P   P2        1.0  0.9728655815124513  0.7553218007087708  0.2992218434810639  1.0000
