data_image0
_chemical_formula_structural       As8Ba3
_chemical_formula_sum              "As8 Ba3"
_cell_length_a       8.210510404411302
_cell_length_b       8.051837324352247
_cell_length_c       8.51794719696045
_cell_angle_alpha    111.49457040011859
_cell_angle_beta     114.45936250382584
_cell_angle_gamma    107.0384384124333

_space_group_name_H-M_alt    "P 1"
_space_group_IT_number       1

loop_
  _space_group_symop_operation_xyz
  'x, y, z'

loop_
  _atom_site_type_symbol
  _atom_site_label
  _atom_site_symmetry_multiplicity
  _atom_site_fract_x
  _atom_site_fract_y
  _atom_site_fract_z
  _atom_site_occupancy
  As  As1       1.0  0.7852681279182434  0.5174857378005981  0.14734144508838642  1.0000
  As  As2       1.0  0.7859290838241577  0.05476085841655731  0.1631394326686859  1.0000
  As  As3       1.0  0.7923427224159241  0.9820806384086608  0.9011257886886594  1.0000
  As  As4       1.0  0.32982632517814636  0.1655619591474533  0.2608139216899872  1.0000
  As  As5       1.0  0.8041421175003052  0.4117254316806793  0.9544034600257874  1.0000
  As  As6       1.0  0.7425272464752197  0.6513028740882874  0.909023344516754  1.0000
  As  As7       1.0  0.2790996730327606  0.14175081253051758  0.42989078164100647  1.0000
  As  As8       1.0  0.25477874279022217  0.9266920685768127  0.7438834905624387  1.0000
  Ba  Ba1       1.0  0.2988048195838928  0.9079878926277161  0.8778221011161803  1.0000
  Ba  Ba2       1.0  0.04489288106560701  0.988582670688629  0.9161524772644041  1.0000
  Ba  Ba3       1.0  0.7922657132148743  0.5765814781188965  0.3760547339916228  1.0000
