data_image0
_chemical_formula_structural       As9Ba2
_chemical_formula_sum              "As9 Ba2"
_cell_length_a       6.078920781766103
_cell_length_b       5.44592746049066
_cell_length_c       10.2527494430542
_cell_angle_alpha    107.23317619224566
_cell_angle_beta     100.32394091802432
_cell_angle_gamma    104.48923518920374

_space_group_name_H-M_alt    "P 1"
_space_group_IT_number       1

loop_
  _space_group_symop_operation_xyz
  'x, y, z'

loop_
  _atom_site_type_symbol
  _atom_site_label
  _atom_site_symmetry_multiplicity
  _atom_site_fract_x
  _atom_site_fract_y
  _atom_site_fract_z
  _atom_site_occupancy
  As  As1       1.0  0.6737619638442993  0.40327194333076477  0.7550266981124878  1.0000
  As  As2       1.0  0.6729543805122375  0.8201274871826172  0.6115111708641052  1.0000
  As  As3       1.0  0.16817255318164825  0.11629605293273926  0.14500142633914948  1.0000
  As  As4       1.0  0.17807549238204956  0.8550670146942139  0.9382824897766112  1.0000
  As  As5       1.0  0.6794719099998474  0.5997512936592102  0.7936028838157654  1.0000
  As  As6       1.0  0.17771226167678833  0.7131478190422058  0.8369761109352112  1.0000
  As  As7       1.0  0.6763476133346558  0.8196596503257751  0.4683396220207214  1.0000
  As  As8       1.0  0.6821954250335693  0.5878782272338867  0.08191297948360443  1.0000
  As  As9       1.0  0.17840774357318878  0.17897644639015198  0.8370380997657776  1.0000
  Ba  Ba1       1.0  0.6776688694953918  0.4541230797767639  0.6865752339363098  1.0000
  Ba  Ba2       1.0  0.1767694056034088  0.9440953135490417  0.7252693176269531  1.0000
