data_image0
_chemical_formula_structural       As7GaLiPZn
_chemical_formula_sum              "As7 Ga1 Li1 P1 Zn1"
_cell_length_a       5.668779086806777
_cell_length_b       5.70320982292062
_cell_length_c       10.059913635253906
_cell_angle_alpha    89.75199846467285
_cell_angle_beta     89.09609010548775
_cell_angle_gamma    110.19687560235977

_space_group_name_H-M_alt    "P 1"
_space_group_IT_number       1

loop_
  _space_group_symop_operation_xyz
  'x, y, z'

loop_
  _atom_site_type_symbol
  _atom_site_label
  _atom_site_symmetry_multiplicity
  _atom_site_fract_x
  _atom_site_fract_y
  _atom_site_fract_z
  _atom_site_occupancy
  As  As1       1.0  0.7341161370277405  0.034742556512355804  0.5654320120811462  1.0000
  As  As2       1.0  0.7359947562217712  0.8451472520828247  0.3371606767177582  1.0000
  As  As3       1.0  0.23843041062355042  0.3111652135848999  0.8196007609367371  1.0000
  As  As4       1.0  0.7366432547569275  0.39410096406936646  0.9580268263816833  1.0000
  As  As5       1.0  0.466993510723114  0.17689043283462524  0.621376097202301  1.0000
  As  As6       1.0  0.735196053981781  0.7438875436782837  0.5390340089797974  1.0000
  As  As7       1.0  0.7382174730300903  0.3617730438709259  0.00607388885691762  1.0000
  Ga  Ga1       1.0  0.235871821641922  0.6204370856285095  0.62169349193573  1.0000
  Li  Li1       1.0  0.9859013557434082  0.7050007581710815  0.8514368534088135  1.0000
  P   P1        1.0  0.23654316365718842  0.023878905922174454  0.2266450673341751  1.0000
  Zn  Zn1       1.0  0.23059912025928497  0.11990095674991608  0.2437528371810913  1.0000
