data_image0
_chemical_formula_structural       Al2As8Zn
_chemical_formula_sum              "Al2 As8 Zn1"
_cell_length_a       6.0899943893708945
_cell_length_b       6.727828208263324
_cell_length_c       8.568591117858887
_cell_angle_alpha    115.27636899231206
_cell_angle_beta     91.02831954249005
_cell_angle_gamma    101.43828966524887

_space_group_name_H-M_alt    "P 1"
_space_group_IT_number       1

loop_
  _space_group_symop_operation_xyz
  'x, y, z'

loop_
  _atom_site_type_symbol
  _atom_site_label
  _atom_site_symmetry_multiplicity
  _atom_site_fract_x
  _atom_site_fract_y
  _atom_site_fract_z
  _atom_site_occupancy
  Al  Al1       1.0  0.5953061580657959  0.9738147258758545  0.5091701149940491  1.0000
  Al  Al2       1.0  0.25984296202659607  0.9530583024024963  0.963607907295227  1.0000
  As  As1       1.0  0.05905191972851753  0.8250853419303894  0.397126704454422  1.0000
  As  As2       1.0  0.11445700377225876  0.6838050484657288  0.6577323079109192  1.0000
  As  As3       1.0  0.01031486876308918  0.6391292810440063  0.7856975793838501  1.0000
  As  As4       1.0  0.8916526436805725  0.30086323618888855  0.5731278657913208  1.0000
  As  As5       1.0  0.7998026609420776  0.33596763014793396  0.8045662045478821  1.0000
  As  As6       1.0  0.128650963306427  0.6587387919425964  0.863973081111908  1.0000
  As  As7       1.0  0.3394354581832886  0.9391363859176636  0.6542640328407288  1.0000
  As  As8       1.0  0.35482552647590637  0.6803960800170898  0.3593447208404541  1.0000
  Zn  Zn1       1.0  0.6469464302062988  0.63015216588974  0.5687582492828369  1.0000
