data_image0
_chemical_formula_structural       C2Er6FIrTb4
_chemical_formula_sum              "C2 Er6 F1 Ir1 Tb4"
_cell_length_a       6.078210469541183
_cell_length_b       7.007935889680026
_cell_length_c       13.290816307067871
_cell_angle_alpha    102.28587681338759
_cell_angle_beta     89.72089196898543
_cell_angle_gamma    89.72211402783586

_space_group_name_H-M_alt    "P 1"
_space_group_IT_number       1

loop_
  _space_group_symop_operation_xyz
  'x, y, z'

loop_
  _atom_site_type_symbol
  _atom_site_label
  _atom_site_symmetry_multiplicity
  _atom_site_fract_x
  _atom_site_fract_y
  _atom_site_fract_z
  _atom_site_occupancy
  C   C1        1.0  0.6505405902862549  0.9994882345199585  0.6487412452697755  1.0000
  C   C2        1.0  0.8361524939537048  0.4415399432182312  0.40103179216384893  1.0000
  Er  Er1       1.0  0.7829151749610901  0.6885512471199036  0.4583561718463898  1.0000
  Er  Er2       1.0  0.3100377917289734  0.47086188197135925  0.30957648158073425  1.0000
  Er  Er3       1.0  0.8383485078811646  0.5305268168449402  0.2670590579509735  1.0000
  Er  Er4       1.0  0.8041234016418457  0.9640437960624695  0.6885469555854798  1.0000
  Er  Er5       1.0  0.27975043654441833  0.8645686507225037  0.36312383413314825  1.0000
  Er  Er6       1.0  0.3117055594921112  0.799471914768219  0.6417874097824098  1.0000
  F   F1        1.0  0.8648117184638977  0.07477428764104843  0.915300488471985  1.0000
  Ir  Ir1       1.0  0.3415769338607788  0.6911657452583313  0.9778289794921876  1.0000
  Tb  Tb1       1.0  0.3427785038948059  0.4846420884132385  0.8916012644767762  1.0000
  Tb  Tb2       1.0  0.3055155873298645  0.10924240946769714  0.42331084609031683  1.0000
  Tb  Tb3       1.0  0.8209097385406494  0.9723268747329712  0.3910710215568543  1.0000
  Tb  Tb4       1.0  0.31803035736083984  0.07514776289463043  0.7991519570350648  1.0000
