data_image0
_chemical_formula_structural       C2Er9RuTb2
_chemical_formula_sum              "C2 Er9 Ru1 Tb2"
_cell_length_a       6.739521104371492
_cell_length_b       9.291027379968543
_cell_length_c       10.349942207336426
_cell_angle_alpha    87.27559960813687
_cell_angle_beta     77.04853308229923
_cell_angle_gamma    71.05029536868531

_space_group_name_H-M_alt    "P 1"
_space_group_IT_number       1

loop_
  _space_group_symop_operation_xyz
  'x, y, z'

loop_
  _atom_site_type_symbol
  _atom_site_label
  _atom_site_symmetry_multiplicity
  _atom_site_fract_x
  _atom_site_fract_y
  _atom_site_fract_z
  _atom_site_occupancy
  C   C1        1.0  0.20633836090564728  0.9539900422096252  0.8915045857429504  1.0000
  C   C2        1.0  0.6930211782455444  0.6547022461891174  0.6724074482917786  1.0000
  Er  Er1       1.0  0.6781603097915649  0.07410307228565216  0.4548546075820923  1.0000
  Er  Er2       1.0  0.3833521604537964  0.3311536908149719  0.23528157174587253  1.0000
  Er  Er3       1.0  0.6810276508331299  0.28355172276496887  0.24535061419010165  1.0000
  Er  Er4       1.0  0.6805115342140198  0.16150282323360443  0.8192518353462219  1.0000
  Er  Er5       1.0  0.18104995787143707  0.645439624786377  0.9579977393150331  1.0000
  Er  Er6       1.0  0.19355209171772003  0.28214552998542786  0.09270615130662918  1.0000
  Er  Er7       1.0  0.6760991215705872  0.33655038475990295  0.49940294027328497  1.0000
  Er  Er8       1.0  0.18055501580238342  0.6441697478294373  0.4369456171989441  1.0000
  Er  Er9       1.0  0.6828686594963074  0.6398118734359741  0.22897894680500033  1.0000
  Ru  Ru1       1.0  0.18661874532699585  0.4051494896411896  0.6096850633621216  1.0000
  Tb  Tb1       1.0  0.6838139295578003  0.44725415110588074  0.9869886040687562  1.0000
  Tb  Tb2       1.0  0.6790580749511719  0.8310554027557373  0.4578801095485688  1.0000
