data_image0
_chemical_formula_structural       Er2FFeIPPbPtRbSi4W
_chemical_formula_sum              "Er2 F1 Fe1 I1 P1 Pb1 Pt1 Rb1 Si4 W1"
_cell_length_a       5.843676103636625
_cell_length_b       6.8977741608624505
_cell_length_c       7.779001712799072
_cell_angle_alpha    90.48524239669075
_cell_angle_beta     89.63620769325573
_cell_angle_gamma    94.17080137643545

_space_group_name_H-M_alt    "P 1"
_space_group_IT_number       1

loop_
  _space_group_symop_operation_xyz
  'x, y, z'

loop_
  _atom_site_type_symbol
  _atom_site_label
  _atom_site_symmetry_multiplicity
  _atom_site_fract_x
  _atom_site_fract_y
  _atom_site_fract_z
  _atom_site_occupancy
  Er  Er1       1.0  0.5768452882766724  0.8845860958099365  0.25645649433135986  1.0000
  Er  Er2       1.0  0.0880548357963562  0.8971564769744873  0.8742560148239135  1.0000
  F   F1        1.0  0.8926461338996887  0.9296255707740784  0.6277793645858765  1.0000
  Fe  Fe1       1.0  0.09799094498157501  0.42491859197616577  0.7698023915290831  1.0000
  I   I1        1.0  0.4483703076839447  0.8091253042221069  0.23445110023021695  1.0000
  P   P1        1.0  0.655710756778717  0.7728819847106934  0.3817019164562225  1.0000
  Pb  Pb1       1.0  0.5818597078323364  0.42947080731391907  0.18934485316276548  1.0000
  Pt  Pt1       1.0  0.7967670559883118  0.403406023979187  0.3188568651676178  1.0000
  Rb  Rb1       1.0  0.5796324014663696  0.7011194229125977  0.6354838013648987  1.0000
  Si  Si1       1.0  0.5816737413406372  0.390756756067276  0.40838229656219477  1.0000
  Si  Si2       1.0  0.994451105594635  0.05101139098405838  0.754152476787567  1.0000
  Si  Si3       1.0  0.08990367501974106  0.8573384881019592  0.4328141510486602  1.0000
  Si  Si4       1.0  0.07645586133003235  0.8921775817871094  0.8275098204612731  1.0000
  W   W1        1.0  0.08531402796506882  0.6662888526916504  0.940387189388275  1.0000
