data_image0
_chemical_formula_structural       Er7Fe2Si5
_chemical_formula_sum              "Er7 Fe2 Si5"
_cell_length_a       6.306100133818948
_cell_length_b       7.035167610688806
_cell_length_c       8.129435539245605
_cell_angle_alpha    89.99233986559648
_cell_angle_beta     90.60837364472414
_cell_angle_gamma    89.95954313795865

_space_group_name_H-M_alt    "P 1"
_space_group_IT_number       1

loop_
  _space_group_symop_operation_xyz
  'x, y, z'

loop_
  _atom_site_type_symbol
  _atom_site_label
  _atom_site_symmetry_multiplicity
  _atom_site_fract_x
  _atom_site_fract_y
  _atom_site_fract_z
  _atom_site_occupancy
  Er  Er1       1.0  0.30932292342185974  0.4388302862644196  0.8807518482208252  1.0000
  Er  Er2       1.0  0.9517680406570435  0.25625529885292053  0.7297787070274353  1.0000
  Er  Er3       1.0  0.6263492703437805  0.5039512515068054  0.09828916192054749  1.0000
  Er  Er4       1.0  0.10259515792131424  0.32407718896865845  0.9737608432769775  1.0000
  Er  Er5       1.0  0.07457587867975235  0.07399292290210724  0.011812220327556133  1.0000
  Er  Er6       1.0  0.5690575242042542  0.8703412413597108  0.4594934582710266  1.0000
  Er  Er7       1.0  0.5804311633110046  0.8614224791526796  0.008312184363603592  1.0000
  Fe  Fe1       1.0  0.5812969207763672  0.813487470149994  0.5089626908302307  1.0000
  Fe  Fe2       1.0  0.6141337156295776  0.9619430899620057  0.9698982238769531  1.0000
  Si  Si1       1.0  0.31658944487571716  0.5877384543418884  0.636239230632782  1.0000
  Si  Si2       1.0  0.6001737117767334  0.8172288537025453  0.8621709942817688  1.0000
  Si  Si3       1.0  0.10203521698713303  0.6163144111633301  0.7534958720207214  1.0000
  Si  Si4       1.0  0.08761095255613327  0.4512236416339875  0.1865929812192917  1.0000
  Si  Si5       1.0  0.6002120971679688  0.28720149397850037  0.0308173056691885  1.0000
