data_image0
_chemical_formula_structural       Er6Fe3Si5
_chemical_formula_sum              "Er6 Fe3 Si5"
_cell_length_a       6.213196441778946
_cell_length_b       6.984826210173314
_cell_length_c       6.9144086837768555
_cell_angle_alpha    110.57834913644744
_cell_angle_beta     89.9868291297459
_cell_angle_gamma    94.84250232626829

_space_group_name_H-M_alt    "P 1"
_space_group_IT_number       1

loop_
  _space_group_symop_operation_xyz
  'x, y, z'

loop_
  _atom_site_type_symbol
  _atom_site_label
  _atom_site_symmetry_multiplicity
  _atom_site_fract_x
  _atom_site_fract_y
  _atom_site_fract_z
  _atom_site_occupancy
  Er  Er1       1.0  0.20975545048713684  0.5351994037628174  0.026467833667993514  1.0000
  Er  Er2       1.0  0.21943168342113495  0.8401620388031006  0.8840488195419312  1.0000
  Er  Er3       1.0  0.7060678005218506  0.6481183767318726  0.012182030826807022  1.0000
  Er  Er4       1.0  0.8526997566223145  0.6887040138244629  0.39703676104545593  1.0000
  Er  Er5       1.0  0.22002924978733063  0.9743506312370299  0.9970616102218628  1.0000
  Er  Er6       1.0  0.2369455248117447  0.044484157115221024  0.475112646818161  1.0000
  Fe  Fe1       1.0  0.8619081377983093  0.5235649347305298  0.7396566271781921  1.0000
  Fe  Fe2       1.0  0.7240224480628967  0.7954711318016052  0.4046608507633209  1.0000
  Fe  Fe3       1.0  0.23640485107898712  0.07395952194929123  0.5262326002120972  1.0000
  Si  Si1       1.0  0.863990843296051  0.04141547903418541  0.33428144454956055  1.0000
  Si  Si2       1.0  0.7235893607139587  0.33517521619796753  0.5267961621284485  1.0000
  Si  Si3       1.0  0.4796716868877411  0.08558639138936996  0.12536104023456573  1.0000
  Si  Si4       1.0  0.7282984852790833  0.2502424716949463  0.21637651324272156  1.0000
  Si  Si5       1.0  0.2153986394405365  0.9264047741889953  0.16486823558807373  1.0000
