data_image0
_chemical_formula_structural       Er2Fe2I2PtRbSi4TbZn
_chemical_formula_sum              "Er2 Fe2 I2 Pt1 Rb1 Si4 Tb1 Zn1"
_cell_length_a       5.803437511573039
_cell_length_b       8.089069833793479
_cell_length_c       8.891485214233398
_cell_angle_alpha    123.64441276866313
_cell_angle_beta     89.79410392585112
_cell_angle_gamma    90.51152158916507

_space_group_name_H-M_alt    "P 1"
_space_group_IT_number       1

loop_
  _space_group_symop_operation_xyz
  'x, y, z'

loop_
  _atom_site_type_symbol
  _atom_site_label
  _atom_site_symmetry_multiplicity
  _atom_site_fract_x
  _atom_site_fract_y
  _atom_site_fract_z
  _atom_site_occupancy
  Er  Er1       1.0  0.9045539498329163  0.047529976814985275  0.7585142850875854  1.0000
  Er  Er2       1.0  0.8993610739707947  0.5317027568817139  0.5512149333953857  1.0000
  Fe  Fe1       1.0  0.8921126127243042  0.6721079349517822  0.5450777411460876  1.0000
  Fe  Fe2       1.0  0.3975062370300293  0.1481667459011078  0.8439048528671265  1.0000
  I   I1        1.0  0.3798813223838806  0.7841901779174805  0.5360947847366333  1.0000
  I   I2        1.0  0.4020788371562958  0.005036876071244478  0.8728622794151306  1.0000
  Pt  Pt1       1.0  0.8469465374946594  0.3209854066371918  0.25277405977249146  1.0000
  Rb  Rb1       1.0  0.9022260904312134  0.698104202747345  0.22461499273777008  1.0000
  Si  Si1       1.0  0.4037567675113678  0.5703663229942322  0.0008619103464298325  1.0000
  Si  Si2       1.0  0.40838107466697693  0.22001340985298157  0.9678406715393066  1.0000
  Si  Si3       1.0  0.25814518332481384  0.6433989405632019  0.012332817539572665  1.0000
  Si  Si4       1.0  0.9010162949562073  0.4995504915714264  0.8062470555305481  1.0000
  Tb  Tb1       1.0  0.4028536379337311  0.09501324594020844  0.001476734993048006  1.0000
  Zn  Zn1       1.0  0.40162956714630127  0.932192325592041  0.6250014305114746  1.0000
