data_image0
_chemical_formula_structural       B2IrSb2Sm4Tb
_chemical_formula_sum              "B2 Ir1 Sb2 Sm4 Tb1"
_cell_length_a       6.298520787342422
_cell_length_b       6.8934335489325465
_cell_length_c       7.080156326293945
_cell_angle_alpha    110.7428735746114
_cell_angle_beta     105.11487853870341
_cell_angle_gamma    103.83827948124271

_space_group_name_H-M_alt    "P 1"
_space_group_IT_number       1

loop_
  _space_group_symop_operation_xyz
  'x, y, z'

loop_
  _atom_site_type_symbol
  _atom_site_label
  _atom_site_symmetry_multiplicity
  _atom_site_fract_x
  _atom_site_fract_y
  _atom_site_fract_z
  _atom_site_occupancy
  B   B1        1.0  0.577910304069519  0.5867101550102234  0.26067060232162476  1.0000
  B   B2        1.0  0.2882227599620819  0.8134996294975281  0.4924779236316681  1.0000
  Ir  Ir1       1.0  0.6723483800888062  0.2313431352376938  0.7283782362937927  1.0000
  Sb  Sb1       1.0  0.2740217447280884  0.04852540045976639  0.4802156388759613  1.0000
  Sb  Sb2       1.0  0.27656129002571106  0.0762479230761528  0.8132094144821167  1.0000
  Sm  Sm1       1.0  0.9388952255249023  0.5646324157714844  0.3080224394798279  1.0000
  Sm  Sm2       1.0  0.25256428122520447  0.3230057954788208  0.7131962776184082  1.0000
  Sm  Sm3       1.0  0.9440702199935913  0.9287572503089905  0.21107447147369385  1.0000
  Sm  Sm4       1.0  0.6479259729385376  0.5691758990287781  0.9496358633041382  1.0000
  Tb  Tb1       1.0  0.9229873418807983  0.5752162337303162  0.535407543182373  1.0000
