data_image0
_chemical_formula_structural       B3SbSm6
_chemical_formula_sum              "B3 Sb1 Sm6"
_cell_length_a       5.945489758489456
_cell_length_b       6.419599473839014
_cell_length_c       7.862011432647705
_cell_angle_alpha    106.81478897355653
_cell_angle_beta     105.79525986091922
_cell_angle_gamma    102.3157946307899

_space_group_name_H-M_alt    "P 1"
_space_group_IT_number       1

loop_
  _space_group_symop_operation_xyz
  'x, y, z'

loop_
  _atom_site_type_symbol
  _atom_site_label
  _atom_site_symmetry_multiplicity
  _atom_site_fract_x
  _atom_site_fract_y
  _atom_site_fract_z
  _atom_site_occupancy
  B   B1        1.0  0.8509759306907654  0.5954043865203857  0.08579056710004808  1.0000
  B   B2        1.0  0.02296769805252552  0.9159613847732544  0.6017720103263856  1.0000
  B   B3        1.0  0.7789961695671082  0.1902652531862259  0.8308427333831788  1.0000
  Sb  Sb1       1.0  0.2395849972963333  0.33458036184310913  0.9666396379470826  1.0000
  Sm  Sm1       1.0  0.7585484385490417  0.9477474093437195  0.2787159085273744  1.0000
  Sm  Sm2       1.0  0.8136618137359619  0.9657323956489563  0.8911965489387513  1.0000
  Sm  Sm3       1.0  0.27774906158447266  0.6766640543937683  0.7976579666137696  1.0000
  Sm  Sm4       1.0  0.3139532506465912  0.482808381319046  0.5428636074066162  1.0000
  Sm  Sm5       1.0  0.22383877635002136  0.9256384372711182  0.08111377060413362  1.0000
  Sm  Sm6       1.0  0.5313675999641418  0.9992474913597107  0.09694711118936546  1.0000
