data_image0
_chemical_formula_structural       B3Br2IrLaScSm2
_chemical_formula_sum              "B3 Br2 Ir1 La1 Sc1 Sm2"
_cell_length_a       4.84185795046782
_cell_length_b       6.627638350514139
_cell_length_c       8.258785247802734
_cell_angle_alpha    113.23763550501134
_cell_angle_beta     100.27949728341416
_cell_angle_gamma    88.07658427097641

_space_group_name_H-M_alt    "P 1"
_space_group_IT_number       1

loop_
  _space_group_symop_operation_xyz
  'x, y, z'

loop_
  _atom_site_type_symbol
  _atom_site_label
  _atom_site_symmetry_multiplicity
  _atom_site_fract_x
  _atom_site_fract_y
  _atom_site_fract_z
  _atom_site_occupancy
  B   B1        1.0  0.09946618229150772  0.8376026749610901  0.9996199011802673  1.0000
  B   B2        1.0  0.10421096533536911  0.463435560464859  0.9333530664443969  1.0000
  B   B3        1.0  0.5895211100578308  0.6071133017539978  0.417994886636734  1.0000
  Br  Br1       1.0  0.4924818277359009  0.9822956323623657  0.7020230889320374  1.0000
  Br  Br2       1.0  0.053372666239738464  0.31908437609672546  0.7694170475006104  1.0000
  Ir  Ir1       1.0  0.6139553189277649  0.554339587688446  0.37318092584609985  1.0000
  La  La1       1.0  0.611678957939148  0.8672097325325012  0.9612168669700623  1.0000
  Sc  Sc1       1.0  0.09474315494298935  0.8507323265075684  0.2856341302394867  1.0000
  Sm  Sm1       1.0  0.6074795722961426  0.8756279349327087  0.7631635665893555  1.0000
  Sm  Sm2       1.0  0.5738257765769958  0.33861884474754333  0.7044441103935242  1.0000
