data_image0
_chemical_formula_structural       B4Br4IrSm
_chemical_formula_sum              "B4 Br4 Ir1 Sm1"
_cell_length_a       5.649922389070818
_cell_length_b       5.898035309742471
_cell_length_c       6.052941799163818
_cell_angle_alpha    113.18554116514696
_cell_angle_beta     106.46445598933126
_cell_angle_gamma    98.89018201325894

_space_group_name_H-M_alt    "P 1"
_space_group_IT_number       1

loop_
  _space_group_symop_operation_xyz
  'x, y, z'

loop_
  _atom_site_type_symbol
  _atom_site_label
  _atom_site_symmetry_multiplicity
  _atom_site_fract_x
  _atom_site_fract_y
  _atom_site_fract_z
  _atom_site_occupancy
  B   B1        1.0  0.12561233341693878  0.43086910247802734  0.9235007166862488  1.0000
  B   B2        1.0  0.39371681213378906  0.2768840789794922  0.35965555906295776  1.0000
  B   B3        1.0  0.005159986205399036  0.4488379955291748  0.6666966676712036  1.0000
  B   B4        1.0  0.5054218173027039  0.42885714769363403  0.6526118516921997  1.0000
  Br  Br1       1.0  0.6920123100280762  0.7507238984107971  0.9918857216835022  1.0000
  Br  Br2       1.0  0.668413519859314  0.7666245698928833  0.34974196553230286  1.0000
  Br  Br3       1.0  0.17726853489875793  0.7573062777519226  0.9996391534805298  1.0000
  Br  Br4       1.0  0.6505854725837708  0.3054218590259552  0.16246694326400757  1.0000
  Ir  Ir1       1.0  0.7793656587600708  0.08010201901197433  0.9860554337501526  1.0000
  Sm  Sm1       1.0  0.13916802406311035  0.7459406852722168  0.1536238044500351  1.0000
