data_image0
_chemical_formula_structural       B4Sm6
_chemical_formula_sum              "B4 Sm6"
_cell_length_a       5.583517520247081
_cell_length_b       6.462929949311711
_cell_length_c       7.709943771362305
_cell_angle_alpha    111.5219750939
_cell_angle_beta     110.22597176177335
_cell_angle_gamma    94.90622815765039

_space_group_name_H-M_alt    "P 1"
_space_group_IT_number       1

loop_
  _space_group_symop_operation_xyz
  'x, y, z'

loop_
  _atom_site_type_symbol
  _atom_site_label
  _atom_site_symmetry_multiplicity
  _atom_site_fract_x
  _atom_site_fract_y
  _atom_site_fract_z
  _atom_site_occupancy
  B   B1        1.0  0.10101603716611862  0.3769969940185547  0.5470595359802246  1.0000
  B   B2        1.0  0.860285222530365  0.40343227982521057  0.8733450174331665  1.0000
  B   B3        1.0  0.2987932860851288  0.7607463598251343  0.33614709973335266  1.0000
  B   B4        1.0  0.5660278797149658  0.37974077463150024  0.5472660064697266  1.0000
  Sm  Sm1       1.0  0.38154837489128113  0.8855541944503784  0.5037437677383423  1.0000
  Sm  Sm2       1.0  0.605212390422821  0.8903965353965759  0.05323999002575874  1.0000
  Sm  Sm3       1.0  0.6652241945266724  0.25613194704055786  0.8243856430053711  1.0000
  Sm  Sm4       1.0  0.0998043343424797  0.8995051980018616  0.04657282307744026  1.0000
  Sm  Sm5       1.0  0.859834611415863  0.8985620737075806  0.6503220796585083  1.0000
  Sm  Sm6       1.0  0.2037222534418106  0.3726614713668823  0.8418906927108765  1.0000
