data_image0
_chemical_formula_structural       B4BrIr4Sm
_chemical_formula_sum              "B4 Br1 Ir4 Sm1"
_cell_length_a       4.612944274124072
_cell_length_b       5.304822617069513
_cell_length_c       6.0515947341918945
_cell_angle_alpha    132.95906483874413
_cell_angle_beta     93.84809798480063
_cell_angle_gamma    89.62341493322315

_space_group_name_H-M_alt    "P 1"
_space_group_IT_number       1

loop_
  _space_group_symop_operation_xyz
  'x, y, z'

loop_
  _atom_site_type_symbol
  _atom_site_label
  _atom_site_symmetry_multiplicity
  _atom_site_fract_x
  _atom_site_fract_y
  _atom_site_fract_z
  _atom_site_occupancy
  B   B1        1.0  0.30826663970947266  0.8990699052810668  0.1348572075366974  1.0000
  B   B2        1.0  0.8109394907951355  0.6862056851387024  0.2589990198612213  1.0000
  B   B3        1.0  0.8107984662055969  0.43260791897773737  0.3657637536525727  1.0000
  B   B4        1.0  0.8100454807281494  0.54986971616745  0.45697015523910517  1.0000
  Br  Br1       1.0  0.31059387326240534  0.062179170548915856  0.13840451836585999  1.0000
  Ir  Ir1       1.0  0.3147561550140381  0.7554436922073363  0.0188491512089967  1.0000
  Ir  Ir2       1.0  0.31299278140068054  0.6854969263076782  0.7801721692085267  1.0000
  Ir  Ir3       1.0  0.8053085803985596  0.2977088987827301  0.9186105728149415  1.0000
  Ir  Ir4       1.0  0.9931259751319885  0.07906902581453323  0.43680784106254583  1.0000
  Sm  Sm1       1.0  0.30820533633232117  0.9335611462593078  0.13106431066989893  1.0000
