data_image0
_chemical_formula_structural       Dy9Ge2
_chemical_formula_sum              "Dy9 Ge2"
_cell_length_a       5.737751193256064
_cell_length_b       6.5402314669274775
_cell_length_c       7.878251075744629
_cell_angle_alpha    109.26502233544318
_cell_angle_beta     92.91525339426623
_cell_angle_gamma    115.30315411545045

_space_group_name_H-M_alt    "P 1"
_space_group_IT_number       1

loop_
  _space_group_symop_operation_xyz
  'x, y, z'

loop_
  _atom_site_type_symbol
  _atom_site_label
  _atom_site_symmetry_multiplicity
  _atom_site_fract_x
  _atom_site_fract_y
  _atom_site_fract_z
  _atom_site_occupancy
  Dy  Dy1       1.0  0.21408578753471375  0.3348020613193512  0.6167567372322083  1.0000
  Dy  Dy2       1.0  0.6291796565055847  0.6758033633232117  0.3005862534046173  1.0000
  Dy  Dy3       1.0  0.155267134308815  0.045142028480768204  0.6077308654785156  1.0000
  Dy  Dy4       1.0  0.10686470568180084  0.7577270865440369  0.8797988295555116  1.0000
  Dy  Dy5       1.0  0.6290651559829712  0.4993945360183716  0.6285983920097351  1.0000
  Dy  Dy6       1.0  0.6470291018486023  0.2738553583621979  0.6632551550865173  1.0000
  Dy  Dy7       1.0  0.6600281596183777  0.0588441826403141  0.8607335090637208  1.0000
  Dy  Dy8       1.0  0.11704364418983458  0.042591940611600876  0.6708739995956421  1.0000
  Dy  Dy9       1.0  0.36891481280326843  0.21961729228496552  0.6603081822395325  1.0000
  Ge  Ge1       1.0  0.18197333812713623  0.356076180934906  0.934558391571045  1.0000
  Ge  Ge2       1.0  0.8619462251663208  0.9674088358879089  0.1061997413635254  1.0000
