data_image0
_chemical_formula_structural       Dy9Ge2
_chemical_formula_sum              "Dy9 Ge2"
_cell_length_a       5.6416591054043925
_cell_length_b       6.813329337572327
_cell_length_c       7.063998222351074
_cell_angle_alpha    121.0388946301367
_cell_angle_beta     89.847923002879
_cell_angle_gamma    89.1680132861536

_space_group_name_H-M_alt    "P 1"
_space_group_IT_number       1

loop_
  _space_group_symop_operation_xyz
  'x, y, z'

loop_
  _atom_site_type_symbol
  _atom_site_label
  _atom_site_symmetry_multiplicity
  _atom_site_fract_x
  _atom_site_fract_y
  _atom_site_fract_z
  _atom_site_occupancy
  Dy  Dy1       1.0  0.47574561834335327  0.5320861339569092  0.5176563858985901  1.0000
  Dy  Dy2       1.0  0.47783178091049194  0.5880935192108154  0.3593293726444244  1.0000
  Dy  Dy3       1.0  0.9783843755722046  0.40862670540809637  0.7591047286987305  1.0000
  Dy  Dy4       1.0  0.98176109790802  0.4737332165241242  0.9474747180938721  1.0000
  Dy  Dy5       1.0  0.4745807647705078  0.1454002410173416  0.31578388810157776  1.0000
  Dy  Dy6       1.0  0.47869378328323364  0.5461398959159851  0.8109479546546936  1.0000
  Dy  Dy7       1.0  0.9765229821205139  0.5133364796638489  0.6757473349571228  1.0000
  Dy  Dy8       1.0  0.9818063974380493  0.23300716280937198  0.058194126933813095  1.0000
  Dy  Dy9       1.0  0.4796544909477234  0.08070144057273865  0.17302820086479187  1.0000
  Ge  Ge1       1.0  0.980116605758667  0.228356808423996  0.21917887032032013  1.0000
  Ge  Ge2       1.0  0.47922635078430176  0.9208323359489442  0.5500263571739196  1.0000
