data_image0
_chemical_formula_structural       Dy9Ge2
_chemical_formula_sum              "Dy9 Ge2"
_cell_length_a       5.221624919773904
_cell_length_b       5.893633794227676
_cell_length_c       7.954761505126953
_cell_angle_alpha    114.94260118012542
_cell_angle_beta     90.73952778985061
_cell_angle_gamma    90.09329109095395

_space_group_name_H-M_alt    "P 1"
_space_group_IT_number       1

loop_
  _space_group_symop_operation_xyz
  'x, y, z'

loop_
  _atom_site_type_symbol
  _atom_site_label
  _atom_site_symmetry_multiplicity
  _atom_site_fract_x
  _atom_site_fract_y
  _atom_site_fract_z
  _atom_site_occupancy
  Dy  Dy1       1.0  0.10301992297172546  0.1723475307226181  0.28382939100265503  1.0000
  Dy  Dy2       1.0  0.09561994671821594  0.6225109100341797  0.4404029250144959  1.0000
  Dy  Dy3       1.0  0.614966630935669  0.7483585476875305  0.5034894943237305  1.0000
  Dy  Dy4       1.0  0.10112396627664566  0.4210279881954193  0.3605721294879914  1.0000
  Dy  Dy5       1.0  0.5884042978286743  0.7538679242134094  0.9282912015914918  1.0000
  Dy  Dy6       1.0  0.6109630465507507  0.14620597660541534  0.5071349143981934  1.0000
  Dy  Dy7       1.0  0.08523966372013092  0.1601584106683731  0.904043197631836  1.0000
  Dy  Dy8       1.0  0.08818864822387695  0.916121244430542  0.9627703428268434  1.0000
  Dy  Dy9       1.0  0.08450284600257874  0.914853036403656  0.9673911929130555  1.0000
  Ge  Ge1       1.0  0.1008220836520195  0.31140443682670593  0.987191677093506  1.0000
  Ge  Ge2       1.0  0.588010311126709  0.39887839555740356  0.14188063144683838  1.0000
