data_image0
_chemical_formula_structural       Dy3FeGe6Se
_chemical_formula_sum              "Dy3 Fe1 Ge6 Se1"
_cell_length_a       6.4460173663817235
_cell_length_b       6.605844745167405
_cell_length_c       6.490368366241455
_cell_angle_alpha    108.76600184686724
_cell_angle_beta     112.08963112017538
_cell_angle_gamma    111.93721184008417

_space_group_name_H-M_alt    "P 1"
_space_group_IT_number       1

loop_
  _space_group_symop_operation_xyz
  'x, y, z'

loop_
  _atom_site_type_symbol
  _atom_site_label
  _atom_site_symmetry_multiplicity
  _atom_site_fract_x
  _atom_site_fract_y
  _atom_site_fract_z
  _atom_site_occupancy
  Dy  Dy1       1.0  0.28486838936805725  0.5751861929893494  0.503340482711792  1.0000
  Dy  Dy2       1.0  0.7952415943145752  0.7560569643974304  0.6132805347442628  1.0000
  Dy  Dy3       1.0  0.9736053943634033  0.4784599542617798  0.15040455758571625  1.0000
  Fe  Fe1       1.0  0.3117890954017639  0.4589150846004486  0.9216050505638123  1.0000
  Ge  Ge1       1.0  0.9581748247146606  0.2568586468696594  0.4342886805534363  1.0000
  Ge  Ge2       1.0  0.28667259216308594  0.8286826610565186  0.8332496881484985  1.0000
  Ge  Ge3       1.0  0.7101356387138367  0.9401042461395264  0.29378592967987066  1.0000
  Ge  Ge4       1.0  0.886692225933075  0.7346619963645935  0.22915925085544586  1.0000
  Ge  Ge5       1.0  0.4897805154323578  0.3490501940250397  0.4398214817047119  1.0000
  Ge  Ge6       1.0  0.7184179425239563  0.9664953947067261  0.01693163812160492  1.0000
  Se  Se1       1.0  0.7825360894203186  0.7282005548477173  0.7980505228042603  1.0000
