data_image0
_chemical_formula_structural       Dy8Ge2Mg
_chemical_formula_sum              "Dy8 Ge2 Mg1"
_cell_length_a       5.9544975884043305
_cell_length_b       6.13351489395417
_cell_length_c       7.7240118980407715
_cell_angle_alpha    89.8058836787835
_cell_angle_beta     89.3532599590195
_cell_angle_gamma    89.47079541327754

_space_group_name_H-M_alt    "P 1"
_space_group_IT_number       1

loop_
  _space_group_symop_operation_xyz
  'x, y, z'

loop_
  _atom_site_type_symbol
  _atom_site_label
  _atom_site_symmetry_multiplicity
  _atom_site_fract_x
  _atom_site_fract_y
  _atom_site_fract_z
  _atom_site_occupancy
  Dy  Dy1       1.0  0.9049619436264037  0.8648075461387634  0.25197646021842957  1.0000
  Dy  Dy2       1.0  0.8958251476287841  0.5053303837776184  0.8822447657585145  1.0000
  Dy  Dy3       1.0  0.3866897821426391  0.004761725198477507  0.4267240166664124  1.0000
  Dy  Dy4       1.0  0.39950385689735407  0.5013235807418823  0.254071980714798  1.0000
  Dy  Dy5       1.0  0.4095171988010406  0.5583613514900208  0.16384132206439975  1.0000
  Dy  Dy6       1.0  0.8905184268951415  0.8983286619186401  0.4689722061157227  1.0000
  Dy  Dy7       1.0  0.37989488244056696  0.3176986873149872  0.09541115164756776  1.0000
  Dy  Dy8       1.0  0.8863966464996337  0.6828649044036865  0.3924147784709931  1.0000
  Ge  Ge1       1.0  0.9009677171707152  0.33677080273628235  0.9893267154693605  1.0000
  Ge  Ge2       1.0  0.8782330751419066  0.8210028409957886  0.8050844669342042  1.0000
  Mg  Mg1       1.0  0.6667514443397522  0.9327887892723083  0.8544319272041322  1.0000
