data_image0
_chemical_formula_structural       Dy8FeGe2
_chemical_formula_sum              "Dy8 Fe1 Ge2"
_cell_length_a       5.807301263298599
_cell_length_b       5.61893349266804
_cell_length_c       5.3697381019592285
_cell_angle_alpha    113.11643028337882
_cell_angle_beta     115.98354371768015
_cell_angle_gamma    114.35390549063463

_space_group_name_H-M_alt    "P 1"
_space_group_IT_number       1

loop_
  _space_group_symop_operation_xyz
  'x, y, z'

loop_
  _atom_site_type_symbol
  _atom_site_label
  _atom_site_symmetry_multiplicity
  _atom_site_fract_x
  _atom_site_fract_y
  _atom_site_fract_z
  _atom_site_occupancy
  Dy  Dy1       1.0  0.1264293193817139  0.21921743452548983  0.3352144956588745  1.0000
  Dy  Dy2       1.0  0.6990824937820436  0.6666213870048524  0.2018796652555466  1.0000
  Dy  Dy3       1.0  0.6181525588035585  0.1281666606664659  0.9948469400405885  1.0000
  Dy  Dy4       1.0  0.13696402311325073  0.08533383160829543  0.30110397934913635  1.0000
  Dy  Dy5       1.0  0.5407476425170898  0.09410063177347185  0.7950031757354736  1.0000
  Dy  Dy6       1.0  0.6605825424194337  0.9454021453857423  0.13092507421970376  1.0000
  Dy  Dy7       1.0  0.08527804166078568  0.40469369292259216  0.48074156045913696  1.0000
  Dy  Dy8       1.0  0.14896208047866819  0.1495707184076309  0.3002954125404358  1.0000
  Fe  Fe1       1.0  0.1699119359254837  0.3356421887874603  0.06056032329797747  1.0000
  Ge  Ge1       1.0  0.16193185746669778  0.7539746761322023  0.47758838534355164  1.0000
  Ge  Ge2       1.0  0.49231651425361633  0.24051395058631894  0.6221439242362976  1.0000
