data_image0
_chemical_formula_structural       Ge2LaNd7S4
_chemical_formula_sum              "Ge2 La1 Nd7 S4"
_cell_length_a       5.90222292992247
_cell_length_b       9.206265370445205
_cell_length_c       9.426162719726562
_cell_angle_alpha    119.8242962873872
_cell_angle_beta     93.67772834073732
_cell_angle_gamma    89.70954902117732

_space_group_name_H-M_alt    "P 1"
_space_group_IT_number       1

loop_
  _space_group_symop_operation_xyz
  'x, y, z'

loop_
  _atom_site_type_symbol
  _atom_site_label
  _atom_site_symmetry_multiplicity
  _atom_site_fract_x
  _atom_site_fract_y
  _atom_site_fract_z
  _atom_site_occupancy
  Ge  Ge1       1.0  0.908016264438629  0.7759501338005066  0.5246149897575378  1.0000
  Ge  Ge2       1.0  0.4059852361679077  0.25611886382102966  0.46405985951423645  1.0000
  La  La1       1.0  0.020985526964068413  0.5210493803024292  0.8098008632659912  1.0000
  Nd  Nd1       1.0  0.03597617149353027  0.21631769835948944  0.6635835766792297  1.0000
  Nd  Nd2       1.0  0.5341341495513916  0.7915219068527222  0.9581637382507324  1.0000
  Nd  Nd3       1.0  0.5394178032875061  0.7854224443435669  0.046840012073516846  1.0000
  Nd  Nd4       1.0  0.5606010556221008  0.5176888704299927  0.040425341576337814  1.0000
  Nd  Nd5       1.0  0.038222815841436386  0.22191190719604492  0.46713531017303467  1.0000
  Nd  Nd6       1.0  0.04601264372467995  0.41089919209480286  0.2624906003475189  1.0000
  Nd  Nd7       1.0  0.06437046825885773  0.7566645741462708  0.9653146266937256  1.0000
  S   S1        1.0  0.08804690837860107  0.7518602013587952  0.91988605260849  1.0000
  S   S2        1.0  0.5575095415115356  0.5112943053245544  0.3310849070549011  1.0000
  S   S3        1.0  0.4951279759407043  0.03633806109428406  0.7689915299415588  1.0000
  S   S4        1.0  0.7494589686393738  0.3356684148311615  0.8207446336746216  1.0000
