data_image0
_chemical_formula_structural       BGe2Nd7S4
_chemical_formula_sum              "B1 Ge2 Nd7 S4"
_cell_length_a       6.0053617566923805
_cell_length_b       8.213345367371362
_cell_length_c       8.60981273651123
_cell_angle_alpha    118.13358823197301
_cell_angle_beta     107.85488528427786
_cell_angle_gamma    89.9098673708783

_space_group_name_H-M_alt    "P 1"
_space_group_IT_number       1

loop_
  _space_group_symop_operation_xyz
  'x, y, z'

loop_
  _atom_site_type_symbol
  _atom_site_label
  _atom_site_symmetry_multiplicity
  _atom_site_fract_x
  _atom_site_fract_y
  _atom_site_fract_z
  _atom_site_occupancy
  B   B1        1.0  0.2431517094373703  0.2841184139251709  0.10253612697124484  1.0000
  Ge  Ge1       1.0  0.28836557269096375  0.32576313614845276  0.3769124746322632  1.0000
  Ge  Ge2       1.0  0.28353065252304077  0.1802794188261032  0.4529920816421509  1.0000
  Nd  Nd1       1.0  0.6795306205749512  0.7989974021911621  0.12752719223499298  1.0000
  Nd  Nd2       1.0  0.052333422005176544  0.07848862558603287  0.8337002396583557  1.0000
  Nd  Nd3       1.0  0.5085766315460205  0.6388794183731079  0.7218608856201172  1.0000
  Nd  Nd4       1.0  0.05950004234910011  0.38511762022972107  0.31882885098457336  1.0000
  Nd  Nd5       1.0  0.13943830132484436  0.8020156025886536  0.37914347648620605  1.0000
  Nd  Nd6       1.0  0.9041662812232971  0.05578623339533806  0.5391972661018372  1.0000
  Nd  Nd7       1.0  0.5463607311248779  0.6444747447967529  0.8300966620445251  1.0000
  S   S1        1.0  0.44699522852897644  0.4166939854621887  0.5472636222839355  1.0000
  S   S2        1.0  0.9758252501487732  0.3722446858882904  0.6803368926048279  1.0000
  S   S3        1.0  0.9545791745185852  0.09607920050621033  0.575272262096405  1.0000
  S   S4        1.0  0.4867633283138275  0.9675842523574829  0.796496868133545  1.0000
