data_image0
_chemical_formula_structural       CuGe3Nd9S
_chemical_formula_sum              "Cu1 Ge3 Nd9 S1"
_cell_length_a       4.956633649546686
_cell_length_b       8.121785827176636
_cell_length_c       8.560229301452637
_cell_angle_alpha    117.91391322926214
_cell_angle_beta     96.50816549165684
_cell_angle_gamma    88.36873303771533

_space_group_name_H-M_alt    "P 1"
_space_group_IT_number       1

loop_
  _space_group_symop_operation_xyz
  'x, y, z'

loop_
  _atom_site_type_symbol
  _atom_site_label
  _atom_site_symmetry_multiplicity
  _atom_site_fract_x
  _atom_site_fract_y
  _atom_site_fract_z
  _atom_site_occupancy
  Cu  Cu1       1.0  0.26719820499420166  0.8072084784507751  0.2887040972709656  1.0000
  Ge  Ge1       1.0  0.9596338272094727  0.2625119388103485  0.4487418532371521  1.0000
  Ge  Ge2       1.0  0.9406756162643433  0.9312266707420349  0.9511257410049438  1.0000
  Ge  Ge3       1.0  0.2747752368450165  0.3270353078842163  0.9751894474029541  1.0000
  Nd  Nd1       1.0  0.2608909606933594  0.3277013897895813  0.035676393657922745  1.0000
  Nd  Nd2       1.0  0.7551941275596619  0.4384024143218994  0.9269442558288574  1.0000
  Nd  Nd3       1.0  0.5646118521690369  0.5022382736206055  0.5920812487602234  1.0000
  Nd  Nd4       1.0  0.5727643966674805  0.656468391418457  0.7560520172119141  1.0000
  Nd  Nd5       1.0  0.06713029742240906  0.8399474024772644  0.6169430613517761  1.0000
  Nd  Nd6       1.0  0.5976992249488831  0.8598796725273132  0.7222923040390015  1.0000
  Nd  Nd7       1.0  0.01801278069615364  0.5461923480033875  0.4955284595489502  1.0000
  Nd  Nd8       1.0  0.6301039457321167  0.8823502659797668  0.4515133500099182  1.0000
  Nd  Nd9       1.0  0.5618719458580017  0.11268686503171921  0.639838695526123  1.0000
  S   S1        1.0  0.021819617599248886  0.41919004917144775  0.5234935879707336  1.0000
