data_image0
_chemical_formula_structural       Ge2Nd9S3
_chemical_formula_sum              "Ge2 Nd9 S3"
_cell_length_a       5.721596068996958
_cell_length_b       8.405088854594288
_cell_length_c       8.863853454589844
_cell_angle_alpha    118.17302107896415
_cell_angle_beta     108.45957042577567
_cell_angle_gamma    89.9141740490893

_space_group_name_H-M_alt    "P 1"
_space_group_IT_number       1

loop_
  _space_group_symop_operation_xyz
  'x, y, z'

loop_
  _atom_site_type_symbol
  _atom_site_label
  _atom_site_symmetry_multiplicity
  _atom_site_fract_x
  _atom_site_fract_y
  _atom_site_fract_z
  _atom_site_occupancy
  Ge  Ge1       1.0  0.4365577697753906  0.8032801747322083  0.6024215817451477  1.0000
  Ge  Ge2       1.0  0.7720080614089966  0.24807654321193695  0.005385799799114466  1.0000
  Nd  Nd1       1.0  0.040189772844314575  0.005834362935274839  0.6318974494934082  1.0000
  Nd  Nd2       1.0  0.2038484662771225  0.4052976667881012  0.7615427374839783  1.0000
  Nd  Nd3       1.0  0.6299555897712708  0.46217620372772217  0.20259620249271398  1.0000
  Nd  Nd4       1.0  0.15439486503601074  0.050003841519355774  0.7373148202896118  1.0000
  Nd  Nd5       1.0  0.6874224543571472  0.8441131114959717  0.044597577303647995  1.0000
  Nd  Nd6       1.0  0.15956169366836548  0.42456144094467163  0.7039231657981873  1.0000
  Nd  Nd7       1.0  0.17877095937728882  0.20937201380729675  0.5403411984443665  1.0000
  Nd  Nd8       1.0  0.5901525020599365  0.9185605049133301  0.2323134243488313  1.0000
  Nd  Nd9       1.0  0.1298474371433258  0.5111424922943115  0.27576461434364324  1.0000
  S   S1        1.0  0.386544793844223  0.6236111521720886  0.3471562564373017  1.0000
  S   S2        1.0  0.681867241859436  0.4158322513103485  0.7718527913093567  1.0000
  S   S3        1.0  0.7002937197685242  0.18779413402080536  0.4943888187408447  1.0000
