data_image0
_chemical_formula_structural       CuGeNd6S6
_chemical_formula_sum              "Cu1 Ge1 Nd6 S6"
_cell_length_a       5.407124826810957
_cell_length_b       9.142363160890765
_cell_length_c       9.278380393981934
_cell_angle_alpha    120.46980617273067
_cell_angle_beta     93.9383950658797
_cell_angle_gamma    89.77155364273308

_space_group_name_H-M_alt    "P 1"
_space_group_IT_number       1

loop_
  _space_group_symop_operation_xyz
  'x, y, z'

loop_
  _atom_site_type_symbol
  _atom_site_label
  _atom_site_symmetry_multiplicity
  _atom_site_fract_x
  _atom_site_fract_y
  _atom_site_fract_z
  _atom_site_occupancy
  Cu  Cu1       1.0  0.9069867730140686  0.24278348684310913  0.5617309212684631  1.0000
  Ge  Ge1       1.0  0.21209822595119476  0.7182031869888306  0.35373574495315546  1.0000
  Nd  Nd1       1.0  0.2647186517715454  0.4233621060848236  0.5685099959373474  1.0000
  Nd  Nd2       1.0  0.7733348608016968  0.9549916386604309  0.27281591296195973  1.0000
  Nd  Nd3       1.0  0.29509618878364563  0.21783490478992462  0.5621591806411743  1.0000
  Nd  Nd4       1.0  0.6181890964508057  0.43281662464141846  0.5059688091278076  1.0000
  Nd  Nd5       1.0  0.7891868948936462  0.6740621328353882  0.7673239707946777  1.0000
  Nd  Nd6       1.0  0.2792331874370575  0.7303024530410767  0.5230293869972229  1.0000
  S   S1        1.0  0.7942962646484375  0.645818293094635  0.6298924684524536  1.0000
  S   S2        1.0  0.332813560962677  0.3141894042491913  0.947767972946167  1.0000
  S   S3        1.0  0.7884752154350281  0.7093643546104431  0.2408636063337326  1.0000
  S   S4        1.0  0.07998967915773392  0.9692520499229431  0.05913063883781433  1.0000
  S   S5        1.0  0.295635849237442  0.9813067317008972  0.7893593311309813  1.0000
  S   S6        1.0  0.8136618733406067  0.48017409443855286  0.6562118530273438  1.0000
