data_image0
_chemical_formula_structural       Ge2LuNd7S4
_chemical_formula_sum              "Ge2 Lu1 Nd7 S4"
_cell_length_a       5.4345666777919135
_cell_length_b       9.1168693688796
_cell_length_c       9.41862964630127
_cell_angle_alpha    118.71429762504928
_cell_angle_beta     93.95175425880005
_cell_angle_gamma    89.09209828126001

_space_group_name_H-M_alt    "P 1"
_space_group_IT_number       1

loop_
  _space_group_symop_operation_xyz
  'x, y, z'

loop_
  _atom_site_type_symbol
  _atom_site_label
  _atom_site_symmetry_multiplicity
  _atom_site_fract_x
  _atom_site_fract_y
  _atom_site_fract_z
  _atom_site_occupancy
  Ge  Ge1       1.0  0.628934383392334  0.3829602599143982  0.08150487393140796  1.0000
  Ge  Ge2       1.0  0.45048290491104126  0.7028744220733643  0.3474744260311127  1.0000
  Lu  Lu1       1.0  0.13163191080093384  0.15076987445354462  0.8534425497055054  1.0000
  Nd  Nd1       1.0  0.10330082476139069  0.960536003112793  0.25555184483528154  1.0000
  Nd  Nd2       1.0  0.6271497011184692  0.6963304877281189  0.9387621879577637  1.0000
  Nd  Nd3       1.0  0.08187280595302582  0.6322202682495117  0.22475022077560433  1.0000
  Nd  Nd4       1.0  0.11066789925098419  0.08400698006153107  0.24691227078437805  1.0000
  Nd  Nd5       1.0  0.5842215418815613  0.34775519371032715  0.11610085517168049  1.0000
  Nd  Nd6       1.0  0.5852399468421936  0.5212078094482422  0.26382443308830267  1.0000
  Nd  Nd7       1.0  0.6238364577293396  0.13190050423145294  0.08402711153030397  1.0000
  S   S1        1.0  0.08908142149448395  0.32850685715675354  0.034765731543302585  1.0000
  S   S2        1.0  0.608501136302948  0.6448286771774292  0.19832643866539007  1.0000
  S   S3        1.0  0.34558552503585815  0.8773260116577148  0.7604731917381288  1.0000
  S   S4        1.0  0.8465422987937927  0.8889648914337158  0.7928286194801332  1.0000
