data_image0
_chemical_formula_structural       B2CuGePdPrScZr
_chemical_formula_sum              "B2 Cu1 Ge1 Pd1 Pr1 Sc1 Zr1"
_cell_length_a       5.70242394475627
_cell_length_b       5.675322248466693
_cell_length_c       5.709415912628174
_cell_angle_alpha    61.52115280662243
_cell_angle_beta     61.78979607798909
_cell_angle_gamma    61.09234719412152

_space_group_name_H-M_alt    "P 1"
_space_group_IT_number       1

loop_
  _space_group_symop_operation_xyz
  'x, y, z'

loop_
  _atom_site_type_symbol
  _atom_site_label
  _atom_site_symmetry_multiplicity
  _atom_site_fract_x
  _atom_site_fract_y
  _atom_site_fract_z
  _atom_site_occupancy
  B   B1        1.0  0.553123950958252  0.8881368041038513  0.0007982276147231168  1.0000
  B   B2        1.0  0.2656055688858032  0.8800459504127502  0.996833860874176  1.0000
  Cu  Cu1       1.0  0.3164187967777252  0.5493844747543335  0.8263345956802368  1.0000
  Ge  Ge1       1.0  0.7882224917411804  0.6115168333053589  0.7257925271987915  1.0000
  Pd  Pd1       1.0  0.8835968375205994  0.13707253336906433  0.8776745200157164  1.0000
  Pr  Pr1       1.0  0.4581388831138611  0.24854005873203278  0.421905368566513  1.0000
  Sc  Sc1       1.0  0.8731312155723572  0.6276518702507019  0.22136811912059784  1.0000
  Zr  Zr1       1.0  0.14225199818611145  0.9277840256690979  0.4206277132034302  1.0000
