data_image0
_chemical_formula_structural       B3CuPrScTeW
_chemical_formula_sum              "B3 Cu1 Pr1 Sc1 Te1 W1"
_cell_length_a       5.623192618018993
_cell_length_b       5.605060325102586
_cell_length_c       5.601024150848389
_cell_angle_alpha    66.83133031807199
_cell_angle_beta     66.79814024288738
_cell_angle_gamma    66.48189137300915

_space_group_name_H-M_alt    "P 1"
_space_group_IT_number       1

loop_
  _space_group_symop_operation_xyz
  'x, y, z'

loop_
  _atom_site_type_symbol
  _atom_site_label
  _atom_site_symmetry_multiplicity
  _atom_site_fract_x
  _atom_site_fract_y
  _atom_site_fract_z
  _atom_site_occupancy
  B   B1        1.0  0.41271042823791504  0.7031061053276062  0.9217278361320496  1.0000
  B   B2        1.0  0.7568119764328003  0.37383443117141724  0.9174683094024658  1.0000
  B   B3        1.0  0.6905897259712219  0.06293553113937378  0.10371363908052443  1.0000
  Cu  Cu1       1.0  0.39233359694480896  0.37717127799987793  0.911123514175415  1.0000
  Pr  Pr1       1.0  0.8503084182739258  0.8516232967376709  0.6616030335426331  1.0000
  Sc  Sc1       1.0  0.6233028769493103  0.6066299676895142  0.28051486611366266  1.0000
  Te  Te1       1.0  0.24088546633720398  0.2551330327987671  0.46680453419685364  1.0000
  W   W1        1.0  0.09545496851205826  0.041711896657943726  0.0720728039741516  1.0000
