data_image0
_chemical_formula_structural       B3Cu3Pd2
_chemical_formula_sum              "B3 Cu3 Pd2"
_cell_length_a       3.0345784129329507
_cell_length_b       5.1198300241807075
_cell_length_c       6.3759284019470215
_cell_angle_alpha    83.38884136009429
_cell_angle_beta     76.08308184010274
_cell_angle_gamma    72.84468012783323

_space_group_name_H-M_alt    "P 1"
_space_group_IT_number       1

loop_
  _space_group_symop_operation_xyz
  'x, y, z'

loop_
  _atom_site_type_symbol
  _atom_site_label
  _atom_site_symmetry_multiplicity
  _atom_site_fract_x
  _atom_site_fract_y
  _atom_site_fract_z
  _atom_site_occupancy
  B   B1        1.0  0.2593287527561188  0.24941816926002502  0.8726966381072998  1.0000
  B   B2        1.0  0.9650324583053589  0.4943043887615204  0.23543167114257812  1.0000
  B   B3        1.0  0.7305704951286316  0.656178891658783  0.5398437976837158  1.0000
  Cu  Cu1       1.0  0.6628478765487671  0.17092403769493103  0.13294881582260132  1.0000
  Cu  Cu2       1.0  0.5444402098655701  0.5862932205200195  0.9310553073883057  1.0000
  Cu  Cu3       1.0  0.9511174559593201  0.9606493711471558  0.7347742915153503  1.0000
  Pd  Pd1       1.0  0.3740338683128357  0.34460312128067017  0.527745246887207  1.0000
  Pd  Pd2       1.0  0.23244105279445648  0.8259798884391785  0.3200448453426361  1.0000
