data_image0
_chemical_formula_structural       Cd3DyGeHg2SbSi
_chemical_formula_sum              "Cd3 Dy1 Ge1 Hg2 Sb1 Si1"
_cell_length_a       6.36726604182434
_cell_length_b       6.679588351781423
_cell_length_c       6.693023681640625
_cell_angle_alpha    62.02676867261526
_cell_angle_beta     62.8617683641946
_cell_angle_gamma    65.39373077521698

_space_group_name_H-M_alt    "P 1"
_space_group_IT_number       1

loop_
  _space_group_symop_operation_xyz
  'x, y, z'

loop_
  _atom_site_type_symbol
  _atom_site_label
  _atom_site_symmetry_multiplicity
  _atom_site_fract_x
  _atom_site_fract_y
  _atom_site_fract_z
  _atom_site_occupancy
  Cd  Cd1       1.0  0.7157270908355713  0.11678369343280791  0.9670488238334656  1.0000
  Cd  Cd2       1.0  0.22900943458080292  0.6717376112937927  0.09289372712373734  1.0000
  Cd  Cd3       1.0  0.2242828756570816  0.23201641440391538  0.03426814451813698  1.0000
  Dy  Dy1       1.0  0.21113909780979156  0.15338847041130066  0.9968279600143433  1.0000
  Ge  Ge1       1.0  0.23095965385437012  0.5646152496337891  0.9854584336280823  1.0000
  Hg  Hg1       1.0  0.7432167530059814  0.06415023654699326  0.2112744301557541  1.0000
  Hg  Hg2       1.0  0.7329987287521362  0.3362685739994049  0.17446506023406982  1.0000
  Sb  Sb1       1.0  0.22662822902202606  0.09886609017848969  0.6270639300346375  1.0000
  Si  Si1       1.0  0.7275079488754272  0.9509404897689818  0.13203226029872894  1.0000
