data_image0
_chemical_formula_structural       CCrDy3I2SbTb
_chemical_formula_sum              "C1 Cr1 Dy3 I2 Sb1 Tb1"
_cell_length_a       5.9188463927038075
_cell_length_b       7.012071007774395
_cell_length_c       7.587047100067139
_cell_angle_alpha    119.12884573169447
_cell_angle_beta     91.62086198123575
_cell_angle_gamma    89.52588871439688

_space_group_name_H-M_alt    "P 1"
_space_group_IT_number       1

loop_
  _space_group_symop_operation_xyz
  'x, y, z'

loop_
  _atom_site_type_symbol
  _atom_site_label
  _atom_site_symmetry_multiplicity
  _atom_site_fract_x
  _atom_site_fract_y
  _atom_site_fract_z
  _atom_site_occupancy
  C   C1        1.0  0.3814233541488647  0.9571301937103271  0.3257327675819397  1.0000
  Cr  Cr1       1.0  0.3827976286411285  0.22333769500255585  0.2847026288509369  1.0000
  Dy  Dy1       1.0  0.8836243152618407  0.8727452754974365  0.2429038435220718  1.0000
  Dy  Dy2       1.0  0.8806585669517516  0.4674837291240692  0.049243494868278496  1.0000
  Dy  Dy3       1.0  0.38109216094017023  0.8226880431175232  0.653709352016449  1.0000
  I   I1        1.0  0.3796572089195251  0.9347574710845947  0.1968041807413101  1.0000
  I   I2        1.0  0.3780680298805236  0.7868027091026306  0.822762370109558  1.0000
  Sb  Sb1       1.0  0.8780798912048339  0.918362557888031  0.016633419319987297  1.0000
  Tb  Tb1       1.0  0.8827684521675109  0.41183504462242126  0.23151662945747373  1.0000
