data_image0
_chemical_formula_structural       CaCd2HfHg2IMnV
_chemical_formula_sum              "Ca1 Cd2 Hf1 Hg2 I1 Mn1 V1"
_cell_length_a       5.3479768514411115
_cell_length_b       5.753278895343444
_cell_length_c       8.674856185913086
_cell_angle_alpha    92.1813559329975
_cell_angle_beta     89.98568692180388
_cell_angle_gamma    89.27198420420156

_space_group_name_H-M_alt    "P 1"
_space_group_IT_number       1

loop_
  _space_group_symop_operation_xyz
  'x, y, z'

loop_
  _atom_site_type_symbol
  _atom_site_label
  _atom_site_symmetry_multiplicity
  _atom_site_fract_x
  _atom_site_fract_y
  _atom_site_fract_z
  _atom_site_occupancy
  Ca  Ca1       1.0  0.46589070558547974  0.48960983753204346  0.1902831345796585  1.0000
  Cd  Cd1       1.0  0.9696272015571594  0.06604762375354767  0.3424113988876343  1.0000
  Cd  Cd2       1.0  0.9646697044372559  0.30321788787841797  0.711448073387146  1.0000
  Hf  Hf1       1.0  0.4644993245601654  0.03158606216311455  0.18965870141983032  1.0000
  Hg  Hg1       1.0  0.4657530188560486  0.26539239287376404  0.8258976340293884  1.0000
  Hg  Hg2       1.0  0.4625838100910187  0.5037603378295898  0.7645562887191772  1.0000
  I   I1        1.0  0.9642137289047241  0.8260895609855652  0.9061501026153564  1.0000
  Mn  Mn1       1.0  0.9632567763328552  0.8585430979728699  0.052714455872774124  1.0000
  V   V1        1.0  0.4661206901073456  0.9838250279426575  0.8329103589057922  1.0000
