data_image0
_chemical_formula_structural       Cd2CrHfKMn4
_chemical_formula_sum              "Cd2 Cr1 Hf1 K1 Mn4"
_cell_length_a       5.44894406196475
_cell_length_b       4.932749793487831
_cell_length_c       7.169671535491943
_cell_angle_alpha    89.00960202679624
_cell_angle_beta     90.13756612671715
_cell_angle_gamma    116.65645202375784

_space_group_name_H-M_alt    "P 1"
_space_group_IT_number       1

loop_
  _space_group_symop_operation_xyz
  'x, y, z'

loop_
  _atom_site_type_symbol
  _atom_site_label
  _atom_site_symmetry_multiplicity
  _atom_site_fract_x
  _atom_site_fract_y
  _atom_site_fract_z
  _atom_site_occupancy
  Cd  Cd1       1.0  0.9039855599403381  0.2533985674381256  0.2819487154483795  1.0000
  Cd  Cd2       1.0  0.9109504222869873  0.6772866249084473  0.695794403553009  1.0000
  Cr  Cr1       1.0  0.40729498863220215  0.7993929982185364  0.7230589389801025  1.0000
  Hf  Hf1       1.0  0.41387248039245605  0.6966983675956726  0.9967082142829895  1.0000
  K   K1        1.0  0.929926872253418  0.06336331367492676  0.0382845439016819  1.0000
  Mn  Mn1       1.0  0.4141246974468231  0.02210482954978943  0.3124537467956543  1.0000
  Mn  Mn2       1.0  0.9084806442260742  0.805526852607727  0.7227416634559631  1.0000
  Mn  Mn3       1.0  0.9093204140663147  0.7470577955245972  0.6166049242019653  1.0000
  Mn  Mn4       1.0  0.4039575159549713  0.27780047059059143  0.7255975008010864  1.0000
