data_image0
_chemical_formula_structural       Cd2Hf2Hg2Mn3
_chemical_formula_sum              "Cd2 Hf2 Hg2 Mn3"
_cell_length_a       5.306473765478704
_cell_length_b       4.182484823610358
_cell_length_c       6.299400329589844
_cell_angle_alpha    93.12814876351715
_cell_angle_beta     91.05264440441667
_cell_angle_gamma    123.7719887234449

_space_group_name_H-M_alt    "P 1"
_space_group_IT_number       1

loop_
  _space_group_symop_operation_xyz
  'x, y, z'

loop_
  _atom_site_type_symbol
  _atom_site_label
  _atom_site_symmetry_multiplicity
  _atom_site_fract_x
  _atom_site_fract_y
  _atom_site_fract_z
  _atom_site_occupancy
  Cd  Cd1       1.0  0.07463254034519196  0.5754281878471375  0.06442248076200485  1.0000
  Cd  Cd2       1.0  0.7040577530860901  0.9123246073722839  0.8736297488212587  1.0000
  Hf  Hf1       1.0  0.09432695806026459  0.31753209233283997  0.8036695122718812  1.0000
  Hf  Hf2       1.0  0.6043673157691956  0.7884930968284607  0.39693146944046026  1.0000
  Hg  Hg1       1.0  0.3799695372581482  0.3853902518749237  0.6080754399299622  1.0000
  Hg  Hg2       1.0  0.07243847101926804  0.912665843963623  0.4351839721202851  1.0000
  Mn  Mn1       1.0  0.5557934045791626  0.8319288492202759  0.3658235371112824  1.0000
  Mn  Mn2       1.0  0.34315598011016846  0.2765386700630188  0.040061719715595245  1.0000
  Mn  Mn3       1.0  0.057195998728275306  0.14198541641235352  0.45702031254768377  1.0000
