data_image0
_chemical_formula_structural       GaH3Hg2NPb2Pt3Zn
_chemical_formula_sum              "Ga1 H3 Hg2 N1 Pb2 Pt3 Zn1"
_cell_length_a       4.869604445056974
_cell_length_b       4.108401302294658
_cell_length_c       7.37200927734375
_cell_angle_alpha    150.71180679339776
_cell_angle_beta     96.39364583318846
_cell_angle_gamma    93.60448589956279

_space_group_name_H-M_alt    "P 1"
_space_group_IT_number       1

loop_
  _space_group_symop_operation_xyz
  'x, y, z'

loop_
  _atom_site_type_symbol
  _atom_site_label
  _atom_site_symmetry_multiplicity
  _atom_site_fract_x
  _atom_site_fract_y
  _atom_site_fract_z
  _atom_site_occupancy
  Ga  Ga1       1.0  0.6774449944496155  0.5974491834640503  0.400911808013916  1.0000
  H   H1        1.0  0.6650017499923706  0.7705959677696228  0.8752291202545166  1.0000
  H   H2        1.0  0.6969123482704163  0.05540799722075485  0.6989601254463197  1.0000
  H   H3        1.0  0.16183686256408691  0.25413841009140015  0.6329602003097534  1.0000
  Hg  Hg1       1.0  0.6596554517745972  0.4892789721488954  0.9412782192230225  1.0000
  Hg  Hg2       1.0  0.669174313545227  0.5361459255218506  0.4894419312477112  1.0000
  N   N1        1.0  0.24096974730491638  0.9540033340454102  0.8551168441772461  1.0000
  Pb  Pb1       1.0  0.1703008115291596  0.6981060504913332  0.9404397010803224  1.0000
  Pb  Pb2       1.0  0.1816740036010742  0.817513346672058  0.30407539010047907  1.0000
  Pt  Pt1       1.0  0.03444535285234453  0.6409556269645692  0.6894311308860779  1.0000
  Pt  Pt2       1.0  0.8338069319725037  0.16976988315582273  0.4754464626312256  1.0000
  Pt  Pt3       1.0  0.17736966907978058  0.016919242218136808  0.49336764216423035  1.0000
  Zn  Zn1       1.0  0.679828941822052  0.1683129370212555  0.2936527132987976  1.0000
