data_image0
_chemical_formula_structural       CGa2GeH2Hg2NPt3Zn
_chemical_formula_sum              "C1 Ga2 Ge1 H2 Hg2 N1 Pt3 Zn1"
_cell_length_a       5.3224118413736905
_cell_length_b       5.046764622259696
_cell_length_c       5.380134582519531
_cell_angle_alpha    150.96838724845873
_cell_angle_beta     91.17012888583193
_cell_angle_gamma    100.03498926116174

_space_group_name_H-M_alt    "P 1"
_space_group_IT_number       1

loop_
  _space_group_symop_operation_xyz
  'x, y, z'

loop_
  _atom_site_type_symbol
  _atom_site_label
  _atom_site_symmetry_multiplicity
  _atom_site_fract_x
  _atom_site_fract_y
  _atom_site_fract_z
  _atom_site_occupancy
  C   C1        1.0  0.8506997823715209  0.2827422320842743  0.4761613607406616  1.0000
  Ga  Ga1       1.0  0.362857848405838  0.7136675119400023  0.8304149508476257  1.0000
  Ga  Ga2       1.0  0.09296486526727675  0.43267747759819025  0.6135064363479614  1.0000
  Ge  Ge1       1.0  0.8677579760551452  0.4499368965625763  0.6362770795822144  1.0000
  H   H1        1.0  0.34867691993713373  0.0835279449820517  0.9788272380828856  1.0000
  H   H2        1.0  0.8663341999053954  0.5740434527397156  0.5900077819824219  1.0000
  Hg  Hg1       1.0  0.8086360096931458  0.862230896949768  0.12620744109153745  1.0000
  Hg  Hg2       1.0  0.3149609863758087  0.3504887223243713  0.8789762258529663  1.0000
  N   N1        1.0  0.36359730362892145  0.9796903133392332  0.47341543436050415  1.0000
  Pt  Pt1       1.0  0.3558519184589386  0.2913789451122284  0.4266898036003113  1.0000
  Pt  Pt2       1.0  0.8635796904563903  0.31729525327682495  0.14016227424144742  1.0000
  Pt  Pt3       1.0  0.36288583278656006  0.11187925934791557  0.9907339215278625  1.0000
  Zn  Zn1       1.0  0.8423837423324584  0.44569793343543995  0.38398644328117365  1.0000
