data_image0
_chemical_formula_structural       CdGaH3Hg3Pt3SnTh
_chemical_formula_sum              "Cd1 Ga1 H3 Hg3 Pt3 Sn1 Th1"
_cell_length_a       6.13746204387718
_cell_length_b       6.774360294539057
_cell_length_c       7.297097682952881
_cell_angle_alpha    119.10937125845197
_cell_angle_beta     89.49205205885302
_cell_angle_gamma    90.01517620438446

_space_group_name_H-M_alt    "P 1"
_space_group_IT_number       1

loop_
  _space_group_symop_operation_xyz
  'x, y, z'

loop_
  _atom_site_type_symbol
  _atom_site_label
  _atom_site_symmetry_multiplicity
  _atom_site_fract_x
  _atom_site_fract_y
  _atom_site_fract_z
  _atom_site_occupancy
  Cd  Cd1       1.0  0.5302296876907349  0.453665554523468  0.7733014822006226  1.0000
  Ga  Ga1       1.0  0.5313013195991516  0.16425149142742157  0.007769110146909952  1.0000
  H   H1        1.0  0.5292078852653503  0.1153385192155838  0.9864804744720459  1.0000
  H   H2        1.0  0.5358148813247681  0.21825473010540009  0.053916189819574356  1.0000
  H   H3        1.0  0.031553011387586594  0.8961018919944763  0.05534336343407631  1.0000
  Hg  Hg1       1.0  0.5353952646255493  0.2574506103992462  0.05713103339076042  1.0000
  Hg  Hg2       1.0  0.5389926433563232  0.409639447927475  0.5569524765014648  1.0000
  Hg  Hg3       1.0  0.027216855436563492  0.3559563159942627  0.2800784707069397  1.0000
  Pt  Pt1       1.0  0.03196104243397713  0.32508182525634766  0.6902356147766113  1.0000
  Pt  Pt2       1.0  0.5330977439880371  0.8271604180335999  0.9843884706497192  1.0000
  Pt  Pt3       1.0  0.03063550963997841  0.840582013130188  0.9177557826042175  1.0000
  Sn  Sn1       1.0  0.032810743898153305  0.8029102683067322  0.11207287758588791  1.0000
  Th  Th1       1.0  0.03099334053695202  0.6305700540542603  0.22675582766532892  1.0000
