data_image0
_chemical_formula_structural       H3Hg5Pb2Pt3
_chemical_formula_sum              "H3 Hg5 Pb2 Pt3"
_cell_length_a       6.042726191005462
_cell_length_b       8.046839092245017
_cell_length_c       8.810232162475586
_cell_angle_alpha    115.13303960442731
_cell_angle_beta     89.62715269033414
_cell_angle_gamma    101.38057324523818

_space_group_name_H-M_alt    "P 1"
_space_group_IT_number       1

loop_
  _space_group_symop_operation_xyz
  'x, y, z'

loop_
  _atom_site_type_symbol
  _atom_site_label
  _atom_site_symmetry_multiplicity
  _atom_site_fract_x
  _atom_site_fract_y
  _atom_site_fract_z
  _atom_site_occupancy
  H   H1        1.0  0.8340774774551392  0.90665203332901  0.4874008297920227  1.0000
  H   H2        1.0  0.3703807294368744  0.6313204765319824  0.08552548289299011  1.0000
  H   H3        1.0  0.3784346878528595  0.8050636053085327  0.39995157718658453  1.0000
  Hg  Hg1       1.0  0.8134639263153076  0.6413662433624268  0.7035847306251526  1.0000
  Hg  Hg2       1.0  0.30852794647216797  0.3804573714733124  0.20756842195987701  1.0000
  Hg  Hg3       1.0  0.0485212504863739  0.6463634967803955  0.7484944462776184  1.0000
  Hg  Hg4       1.0  0.8123853802680969  0.9394641518592834  0.6359058618545532  1.0000
  Hg  Hg5       1.0  0.8135892152786255  0.405662477016449  0.6420841813087463  1.0000
  Pb  Pb1       1.0  0.816267192363739  0.7192301750183105  0.7305875420570374  1.0000
  Pb  Pb2       1.0  0.32946404814720154  0.8671364784240723  0.3700277507305145  1.0000
  Pt  Pt1       1.0  0.821670651435852  0.6235772371292114  0.8835043907165527  1.0000
  Pt  Pt2       1.0  0.3252992630004883  0.7559038400650024  0.6630808711051941  1.0000
  Pt  Pt3       1.0  0.8146024942398071  0.6092304587364197  0.3434644639492035  1.0000
