data_image0
_chemical_formula_structural       ClHg12
_chemical_formula_sum              "Cl1 Hg12"
_cell_length_a       8.098362943882877
_cell_length_b       10.421951682526203
_cell_length_c       11.895812034606934
_cell_angle_alpha    119.12503407923202
_cell_angle_beta     88.73517496330193
_cell_angle_gamma    107.9959580224421

_space_group_name_H-M_alt    "P 1"
_space_group_IT_number       1

loop_
  _space_group_symop_operation_xyz
  'x, y, z'

loop_
  _atom_site_type_symbol
  _atom_site_label
  _atom_site_symmetry_multiplicity
  _atom_site_fract_x
  _atom_site_fract_y
  _atom_site_fract_z
  _atom_site_occupancy
  Cl  Cl1       1.0  0.4119475185871124  0.1257408857345581  0.7039022445678711  1.0000
  Hg  Hg1       1.0  0.8292809724807739  0.7980360984802246  0.9641390442848206  1.0000
  Hg  Hg2       1.0  0.43366512656211853  0.2527799904346466  0.6668640375137329  1.0000
  Hg  Hg3       1.0  0.5933989882469177  0.840682327747345  0.4911678731441498  1.0000
  Hg  Hg4       1.0  0.823054313659668  0.09448754042387009  0.02106458693742752  1.0000
  Hg  Hg5       1.0  0.818390965461731  0.3126184344291687  0.9262660145759583  1.0000
  Hg  Hg6       1.0  0.8605203628540039  0.13546323776245117  0.6256261467933655  1.0000
  Hg  Hg7       1.0  0.9666197896003723  0.3113701045513153  0.7602350115776062  1.0000
  Hg  Hg8       1.0  0.9786763191223145  0.047536466270685196  0.028590967878699303  1.0000
  Hg  Hg9       1.0  0.7509492635726929  0.24056173861026764  0.06066267564892769  1.0000
  Hg  Hg10      1.0  0.3524300456047058  0.3219273090362549  0.4078868329524994  1.0000
  Hg  Hg11      1.0  0.36192557215690613  0.3192995488643646  0.8833538293838501  1.0000
  Hg  Hg12      1.0  0.9008761644363403  0.13892273604869843  0.630024790763855  1.0000
