data_image0
_chemical_formula_structural       HHg12
_chemical_formula_sum              "H1 Hg12"
_cell_length_a       7.476256338066372
_cell_length_b       9.317831223422406
_cell_length_c       9.7799654006958
_cell_angle_alpha    118.96367828597919
_cell_angle_beta     87.97380515045536
_cell_angle_gamma    106.43994541747367

_space_group_name_H-M_alt    "P 1"
_space_group_IT_number       1

loop_
  _space_group_symop_operation_xyz
  'x, y, z'

loop_
  _atom_site_type_symbol
  _atom_site_label
  _atom_site_symmetry_multiplicity
  _atom_site_fract_x
  _atom_site_fract_y
  _atom_site_fract_z
  _atom_site_occupancy
  H   H1        1.0  0.6255171895027161  0.8973992466926576  0.6781132221221924  1.0000
  Hg  Hg1       1.0  0.6661489009857178  0.8035641908645631  0.36022102832794195  1.0000
  Hg  Hg2       1.0  0.8812970519065857  0.20280672609806064  0.5067970156669617  1.0000
  Hg  Hg3       1.0  0.1671734899282456  0.9397167563438417  0.23020599782466897  1.0000
  Hg  Hg4       1.0  0.33225664496421814  0.1409630924463272  0.37094441056251526  1.0000
  Hg  Hg5       1.0  0.11050600558519366  0.39316955208778387  0.14149516820907593  1.0000
  Hg  Hg6       1.0  0.5805492997169495  0.5608468651771545  0.9554007649421692  1.0000
  Hg  Hg7       1.0  0.12504538893699646  0.18716739118099215  0.0972481518983841  1.0000
  Hg  Hg8       1.0  0.8792921304702759  0.3762911260128022  0.5031298995018005  1.0000
  Hg  Hg9       1.0  0.6573178768157959  0.1209213510155678  0.16583196818828583  1.0000
  Hg  Hg10      1.0  0.24334451556205758  0.8299873471260072  0.9443938732147217  1.0000
  Hg  Hg11      1.0  0.6330004930496216  0.6298663020133972  0.3578503131866455  1.0000
  Hg  Hg12      1.0  0.882878303527832  0.3573212921619416  0.7760510444641113  1.0000
