data_image0
_chemical_formula_structural       Ba7GaGeSV4
_chemical_formula_sum              "Ba7 Ga1 Ge1 S1 V4"
_cell_length_a       6.162295998941208
_cell_length_b       7.886686411937095
_cell_length_c       8.262351036071777
_cell_angle_alpha    124.86455492810502
_cell_angle_beta     89.40733216968229
_cell_angle_gamma    87.02605795220602

_space_group_name_H-M_alt    "P 1"
_space_group_IT_number       1

loop_
  _space_group_symop_operation_xyz
  'x, y, z'

loop_
  _atom_site_type_symbol
  _atom_site_label
  _atom_site_symmetry_multiplicity
  _atom_site_fract_x
  _atom_site_fract_y
  _atom_site_fract_z
  _atom_site_occupancy
  Ba  Ba1       1.0  0.7306600213050842  0.35624366998672485  0.09518011659383774  1.0000
  Ba  Ba2       1.0  0.22890634834766388  0.11723119765520096  0.7485933899879456  1.0000
  Ba  Ba3       1.0  0.22816680371761322  0.4405151903629303  0.5094724893569946  1.0000
  Ba  Ba4       1.0  0.7299696207046509  0.23191498219966888  0.439425528049469  1.0000
  Ba  Ba5       1.0  0.7318435311317444  0.8056594729423523  0.057186610996723175  1.0000
  Ba  Ba6       1.0  0.7274720072746277  0.22796405851840973  0.7525539398193359  1.0000
  Ba  Ba7       1.0  0.23015393316745758  0.35796087980270386  0.4716756045818329  1.0000
  Ga  Ga1       1.0  0.20129112899303436  0.6164832711219788  0.22880181670188904  1.0000
  Ge  Ge1       1.0  0.7310616374015808  0.03141115605831146  0.5186405777931213  1.0000
  S   S1        1.0  0.43758803606033325  0.46352505683898926  0.6320507526397705  1.0000
  V   V1        1.0  0.73121577501297  0.7489714622497559  0.00777269434183836  1.0000
  V   V2        1.0  0.730243444442749  0.5158040523529053  0.0790700912475586  1.0000
  V   V3        1.0  0.22989067435264587  0.6358166337013245  0.9159247875213623  1.0000
  V   V4        1.0  0.23050153255462646  0.7516162395477295  0.008422174490988255  1.0000
