data_image0
_chemical_formula_structural       Ba6CdFGaILaSVZn
_chemical_formula_sum              "Ba6 Cd1 F1 Ga1 I1 La1 S1 V1 Zn1"
_cell_length_a       6.75636353192697
_cell_length_b       6.859272530925303
_cell_length_c       8.185977935791016
_cell_angle_alpha    79.03631987569113
_cell_angle_beta     69.00093317437847
_cell_angle_gamma    61.5883314414436

_space_group_name_H-M_alt    "P 1"
_space_group_IT_number       1

loop_
  _space_group_symop_operation_xyz
  'x, y, z'

loop_
  _atom_site_type_symbol
  _atom_site_label
  _atom_site_symmetry_multiplicity
  _atom_site_fract_x
  _atom_site_fract_y
  _atom_site_fract_z
  _atom_site_occupancy
  Ba  Ba1       1.0  0.1790299117565155  0.13226772844791412  0.9798216819763184  1.0000
  Ba  Ba2       1.0  0.1653682291507721  0.8145091533660889  0.17217496037483215  1.0000
  Ba  Ba3       1.0  0.6669954061508179  0.7866394519805908  0.5419971346855164  1.0000
  Ba  Ba4       1.0  0.6813097596168518  0.96006178855896  0.9055958390235901  1.0000
  Ba  Ba5       1.0  0.17489208281040192  0.3598935902118683  0.25767239928245544  1.0000
  Ba  Ba6       1.0  0.6714363098144531  0.3942704200744629  0.4995403289794922  1.0000
  Cd  Cd1       1.0  0.6573330163955688  0.8041499853134155  0.2318960279226303  1.0000
  F   F1        1.0  0.03516039624810219  0.8752772212028503  0.11506257206201553  1.0000
  Ga  Ga1       1.0  0.6739365458488464  0.3952717185020447  0.34549906849861145  1.0000
  I   I1        1.0  0.16727663576602936  0.01513291709125042  0.5203452706336975  1.0000
  La  La1       1.0  0.16862498223781586  0.30077558755874634  0.9752209186553955  1.0000
  S   S1        1.0  0.6700035333633423  0.6653361320495605  0.604800820350647  1.0000
  V   V1        1.0  0.6694003343582153  0.31543657183647156  0.0577758364379406  1.0000
  Zn  Zn1       1.0  0.17653849720954895  0.9789524674415588  0.028280213475227356  1.0000
