data_image0
_chemical_formula_structural       Ba11GaS2
_chemical_formula_sum              "Ba11 Ga1 S2"
_cell_length_a       7.923611393203913
_cell_length_b       7.478538753347804
_cell_length_c       10.308646202087402
_cell_angle_alpha    112.40296655759673
_cell_angle_beta     107.90772604021431
_cell_angle_gamma    118.36879692048608

_space_group_name_H-M_alt    "P 1"
_space_group_IT_number       1

loop_
  _space_group_symop_operation_xyz
  'x, y, z'

loop_
  _atom_site_type_symbol
  _atom_site_label
  _atom_site_symmetry_multiplicity
  _atom_site_fract_x
  _atom_site_fract_y
  _atom_site_fract_z
  _atom_site_occupancy
  Ba  Ba1       1.0  0.21620002388954163  0.2988142967224121  0.7286380529403687  1.0000
  Ba  Ba2       1.0  0.4353152513504027  0.9237853288650512  0.33983930945396423  1.0000
  Ba  Ba3       1.0  0.5685100555419922  0.2212773263454437  0.58743816614151  1.0000
  Ba  Ba4       1.0  0.6702041625976562  0.6932445764541626  0.2887304425239563  1.0000
  Ba  Ba5       1.0  0.9117308259010315  0.16249558329582214  0.26129430532455444  1.0000
  Ba  Ba6       1.0  0.16953568160533905  0.6260151267051697  0.33626097440719604  1.0000
  Ba  Ba7       1.0  0.670416533946991  0.7501914501190186  0.5337517857551575  1.0000
  Ba  Ba8       1.0  0.17765425145626068  0.3789157569408417  0.6874374151229858  1.0000
  Ba  Ba9       1.0  0.084644079208374  0.4199124872684478  0.14631690084934235  1.0000
  Ba  Ba10      1.0  0.6694702506065369  0.31111329793930054  0.017226243391633034  1.0000
  Ba  Ba11      1.0  0.9214338660240173  0.64495450258255  0.025128928944468498  1.0000
  Ga  Ga1       1.0  0.11924283951520914  0.841695725917816  0.7778323888778687  1.0000
  S   S1        1.0  0.8784567713737488  0.41008651256561274  0.2047627568244934  1.0000
  S   S2        1.0  0.4552895128726959  0.8031232357025146  0.8674072027206421  1.0000
