data_image0
_chemical_formula_structural       Ba9Ga2S3
_chemical_formula_sum              "Ba9 Ga2 S3"
_cell_length_a       7.038083413335211
_cell_length_b       10.091788019691808
_cell_length_c       10.515889167785645
_cell_angle_alpha    121.3678891169436
_cell_angle_beta     90.44825456494402
_cell_angle_gamma    90.02680440794119

_space_group_name_H-M_alt    "P 1"
_space_group_IT_number       1

loop_
  _space_group_symop_operation_xyz
  'x, y, z'

loop_
  _atom_site_type_symbol
  _atom_site_label
  _atom_site_symmetry_multiplicity
  _atom_site_fract_x
  _atom_site_fract_y
  _atom_site_fract_z
  _atom_site_occupancy
  Ba  Ba1       1.0  0.21784625947475433  0.5413140654563904  0.7422884702682495  1.0000
  Ba  Ba2       1.0  0.7154483795166016  0.9085487723350525  0.4308057129383087  1.0000
  Ba  Ba3       1.0  0.7155429720878601  0.6303329467773438  0.28526899218559265  1.0000
  Ba  Ba4       1.0  0.7198924422264099  0.4062594175338745  0.15252406895160675  1.0000
  Ba  Ba5       1.0  0.7199072241783142  0.6819581389427185  0.6193813681602478  1.0000
  Ba  Ba6       1.0  0.7120755910873413  0.47623446583747864  0.26391658186912537  1.0000
  Ba  Ba7       1.0  0.215560644865036  0.02858429215848446  0.03566168621182442  1.0000
  Ba  Ba8       1.0  0.9696073532104492  0.5063358545303345  0.7610303163528442  1.0000
  Ba  Ba9       1.0  0.21793536841869354  0.4810296297073364  0.590013861656189  1.0000
  Ga  Ga1       1.0  0.21548223495483398  0.663274347782135  0.6969506144523621  1.0000
  Ga  Ga2       1.0  0.2140752524137497  0.6349055767059326  0.016217758879065514  1.0000
  S   S1        1.0  0.21634188294410706  0.06569676101207733  0.39510467648506165  1.0000
  S   S2        1.0  0.21934063732624054  0.39424481987953186  0.26834872364997864  1.0000
  S   S3        1.0  0.5220638513565063  0.050750721246004105  0.7363738417625427  1.0000
