data_image0
_chemical_formula_structural       Ba11GaS2
_chemical_formula_sum              "Ba11 Ga1 S2"
_cell_length_a       7.56939906929212
_cell_length_b       7.776409201619668
_cell_length_c       11.022668838500977
_cell_angle_alpha    112.5211435831866
_cell_angle_beta     103.3341598363848
_cell_angle_gamma    105.74015934723008

_space_group_name_H-M_alt    "P 1"
_space_group_IT_number       1

loop_
  _space_group_symop_operation_xyz
  'x, y, z'

loop_
  _atom_site_type_symbol
  _atom_site_label
  _atom_site_symmetry_multiplicity
  _atom_site_fract_x
  _atom_site_fract_y
  _atom_site_fract_z
  _atom_site_occupancy
  Ba  Ba1       1.0  0.6569640040397644  0.31909826397895813  0.32886409759521484  1.0000
  Ba  Ba2       1.0  0.0936187356710434  0.6707656979560852  0.4320352077484131  1.0000
  Ba  Ba3       1.0  0.5511227250099182  0.18453161418437958  0.8787624835968018  1.0000
  Ba  Ba4       1.0  0.588965117931366  0.9700684547424316  0.39899227023124695  1.0000
  Ba  Ba5       1.0  0.6264855861663818  0.718399167060852  0.20535844564437866  1.0000
  Ba  Ba6       1.0  0.11734919995069504  0.7581119537353516  0.49783724546432495  1.0000
  Ba  Ba7       1.0  0.5420212149620056  0.14067156612873077  0.9556415677070618  1.0000
  Ba  Ba8       1.0  0.5532522201538086  0.10510421544313431  0.14526014029979706  1.0000
  Ba  Ba9       1.0  0.12395718693733214  0.523041307926178  0.9384704232215881  1.0000
  Ba  Ba10      1.0  0.9287693500518799  0.5090256929397583  0.29221126437187195  1.0000
  Ba  Ba11      1.0  0.6033980846405029  0.6357216835021973  0.15791663527488708  1.0000
  Ga  Ga1       1.0  0.28561869263648987  0.31613779067993164  0.4990120530128479  1.0000
  S   S1        1.0  0.05027235299348831  0.7641671299934387  0.34008336067199707  1.0000
  S   S2        1.0  0.09805292636156082  0.1389327198266983  0.5004228353500366  1.0000
