data_image0
_chemical_formula_structural       Ba12GaS
_chemical_formula_sum              "Ba12 Ga1 S1"
_cell_length_a       7.713640671326121
_cell_length_b       7.719451878370861
_cell_length_c       10.265023231506348
_cell_angle_alpha    116.7045613696362
_cell_angle_beta     104.56600858877201
_cell_angle_gamma    109.20895960181154

_space_group_name_H-M_alt    "P 1"
_space_group_IT_number       1

loop_
  _space_group_symop_operation_xyz
  'x, y, z'

loop_
  _atom_site_type_symbol
  _atom_site_label
  _atom_site_symmetry_multiplicity
  _atom_site_fract_x
  _atom_site_fract_y
  _atom_site_fract_z
  _atom_site_occupancy
  Ba  Ba1       1.0  0.10916980355978012  0.5366600751876831  0.31465017795562744  1.0000
  Ba  Ba2       1.0  0.11253272742033005  0.04771929234266281  0.4602580964565277  1.0000
  Ba  Ba3       1.0  0.5657263398170471  0.05716351792216301  0.41208991408348083  1.0000
  Ba  Ba4       1.0  0.17731216549873352  0.8557687997817993  0.8387089967727661  1.0000
  Ba  Ba5       1.0  0.6012896299362183  0.4724405109882355  0.21772798895835876  1.0000
  Ba  Ba6       1.0  0.21599359810352325  0.922042191028595  0.09685762971639639  1.0000
  Ba  Ba7       1.0  0.767253041267395  0.2936987280845642  0.6715888977050781  1.0000
  Ba  Ba8       1.0  0.6287261247634888  0.39382803440093994  0.17581918835639954  1.0000
  Ba  Ba9       1.0  0.5144127011299133  0.2740119397640228  0.452280730009079  1.0000
  Ba  Ba10      1.0  0.6216261386871338  0.6113472580909729  0.5643678903579712  1.0000
  Ba  Ba11      1.0  0.1222108379006386  0.6612895131111145  0.10967905074357986  1.0000
  Ba  Ba12      1.0  0.06198642402887345  0.8209645748138428  0.49549257755279547  1.0000
  Ga  Ga1       1.0  0.6277750730514526  0.7414665818214417  0.7398585677146912  1.0000
  S   S1        1.0  0.08590472489595413  0.06517293304204941  0.551158607006073  1.0000
