data_image0
_chemical_formula_structural       LiO3SSi9
_chemical_formula_sum              "Li1 O3 S1 Si9"
_cell_length_a       5.260993195367649
_cell_length_b       7.506249299085417
_cell_length_c       8.076350212097168
_cell_angle_alpha    116.56958977980891
_cell_angle_beta     101.94970776684085
_cell_angle_gamma    88.39568453729935

_space_group_name_H-M_alt    "P 1"
_space_group_IT_number       1

loop_
  _space_group_symop_operation_xyz
  'x, y, z'

loop_
  _atom_site_type_symbol
  _atom_site_label
  _atom_site_symmetry_multiplicity
  _atom_site_fract_x
  _atom_site_fract_y
  _atom_site_fract_z
  _atom_site_occupancy
  Li  Li1       1.0  0.026471868157386773  0.4353999495506286  0.33754849433898926  1.0000
  O   O1        1.0  0.7965210676193237  0.18125063180923462  0.9872197508811951  1.0000
  O   O2        1.0  0.22405119240283966  0.5939359664916992  0.7150925993919373  1.0000
  O   O3        1.0  0.1831018328666687  0.08391552418470383  0.8827821016311646  1.0000
  S   S1        1.0  0.03100716136395931  0.6326041221618652  0.551108717918396  1.0000
  Si  Si1       1.0  0.8499106168746948  0.3834644854068756  0.717777669429779  1.0000
  Si  Si2       1.0  0.3775453567504883  0.32873740792274475  0.9808184504508972  1.0000
  Si  Si3       1.0  0.5245715379714966  0.39581120014190674  0.6405293941497803  1.0000
  Si  Si4       1.0  0.032923243939876556  0.13818994164466858  0.6628875136375427  1.0000
  Si  Si5       1.0  0.33519822359085083  0.4802695512771606  0.042582090944051715  1.0000
  Si  Si6       1.0  0.6269292831420898  0.4415594935417175  0.8254852890968323  1.0000
  Si  Si7       1.0  0.5497039556503296  0.8410360217094421  0.9857239723205566  1.0000
  Si  Si8       1.0  0.7256494760513306  0.9185065627098082  0.1363284140825271  1.0000
  Si  Si9       1.0  0.23295140266418457  0.9086076617240905  0.4148871004581451  1.0000
