data_image0
_chemical_formula_structural       LiLuO4Si8
_chemical_formula_sum              "Li1 Lu1 O4 Si8"
_cell_length_a       4.664154410490795
_cell_length_b       6.637557804508188
_cell_length_c       7.715134143829346
_cell_angle_alpha    103.42397640800819
_cell_angle_beta     108.14766556318618
_cell_angle_gamma    88.96805394384616

_space_group_name_H-M_alt    "P 1"
_space_group_IT_number       1

loop_
  _space_group_symop_operation_xyz
  'x, y, z'

loop_
  _atom_site_type_symbol
  _atom_site_label
  _atom_site_symmetry_multiplicity
  _atom_site_fract_x
  _atom_site_fract_y
  _atom_site_fract_z
  _atom_site_occupancy
  Li  Li1       1.0  0.18255949020385742  0.5465761423110962  0.014288778416812422  1.0000
  Lu  Lu1       1.0  0.8976778388023376  0.5503106117248535  0.4509848356246949  1.0000
  O   O1        1.0  0.3157510459423065  0.03388909623026848  0.13473878800868988  1.0000
  O   O2        1.0  0.35697123408317566  0.9176327586174011  0.1185874789953232  1.0000
  O   O3        1.0  0.8186010122299194  0.049818575382232666  0.026493037119507793  1.0000
  O   O4        1.0  0.9812129139900208  0.5251892805099487  0.5010150671005249  1.0000
  Si  Si1       1.0  0.44017091393470764  0.07182212173938751  0.7261517643928529  1.0000
  Si  Si2       1.0  0.3358490765094757  0.8467004299163818  0.15445236861705783  1.0000
  Si  Si3       1.0  0.4592401385307312  0.061477940529584885  0.8499807715415956  1.0000
  Si  Si4       1.0  0.28715407848358154  0.5176537036895752  0.24252149462699893  1.0000
  Si  Si5       1.0  0.8539755344390869  0.32300257682800293  0.09458883106708528  1.0000
  Si  Si6       1.0  0.7129149436950684  0.44974109530448914  0.6846119761466981  1.0000
  Si  Si7       1.0  0.13404840230941772  0.9298593401908875  0.5853431224822999  1.0000
  Si  Si8       1.0  0.8540176153182983  0.8291606307029724  0.12203512340784074  1.0000
