data_image0
_chemical_formula_structural       Lu2O4Si8
_chemical_formula_sum              "Lu2 O4 Si8"
_cell_length_a       5.616143517297129
_cell_length_b       7.137436268572409
_cell_length_c       7.614329814910889
_cell_angle_alpha    113.32571806594228
_cell_angle_beta     111.39352548754393
_cell_angle_gamma    89.37185355993134

_space_group_name_H-M_alt    "P 1"
_space_group_IT_number       1

loop_
  _space_group_symop_operation_xyz
  'x, y, z'

loop_
  _atom_site_type_symbol
  _atom_site_label
  _atom_site_symmetry_multiplicity
  _atom_site_fract_x
  _atom_site_fract_y
  _atom_site_fract_z
  _atom_site_occupancy
  Lu  Lu1       1.0  0.3720463812351227  0.7617719769477844  0.15763308107852944  1.0000
  Lu  Lu2       1.0  0.7896513342857361  0.5963448882102966  0.7522916197776796  1.0000
  O   O1        1.0  0.9770047664642335  0.2844172418117523  0.38535833358764654  1.0000
  O   O2        1.0  0.9022698402404785  0.961990237236023  0.0051901666447519675  1.0000
  O   O3        1.0  0.6534822583198547  0.6451943516731262  0.4047493934631348  1.0000
  O   O4        1.0  0.42290735244750977  0.08175084739923477  0.22310979664325717  1.0000
  Si  Si1       1.0  0.4252987504005432  0.06493593007326126  0.6704568266868592  1.0000
  Si  Si2       1.0  0.9111024141311646  0.08300746232271194  0.8658572435379029  1.0000
  Si  Si3       1.0  0.7684279084205627  0.5250460505485535  0.6156014800071717  1.0000
  Si  Si4       1.0  0.1892000138759613  0.5864416360855103  0.9787132143974305  1.0000
  Si  Si5       1.0  0.24898898601531985  0.10170319676399231  0.8877354860305787  1.0000
  Si  Si6       1.0  0.6057232022285461  0.11213747411966324  0.2347662150859833  1.0000
  Si  Si7       1.0  0.4213119149208069  0.9975179433822632  0.45967561006546026  1.0000
  Si  Si8       1.0  0.08626043051481247  0.10153539478778839  0.28849187493324285  1.0000
