data_image0
_chemical_formula_structural       LuO4Si9
_chemical_formula_sum              "Lu1 O4 Si9"
_cell_length_a       5.9864262762987615
_cell_length_b       6.516881123512928
_cell_length_c       7.493551254272461
_cell_angle_alpha    112.54801294329157
_cell_angle_beta     99.44214938961721
_cell_angle_gamma    109.67905286431879

_space_group_name_H-M_alt    "P 1"
_space_group_IT_number       1

loop_
  _space_group_symop_operation_xyz
  'x, y, z'

loop_
  _atom_site_type_symbol
  _atom_site_label
  _atom_site_symmetry_multiplicity
  _atom_site_fract_x
  _atom_site_fract_y
  _atom_site_fract_z
  _atom_site_occupancy
  Lu  Lu1       1.0  0.1508682668209076  0.46746668219566345  0.47921159863471985  1.0000
  O   O1        1.0  0.3010571002960205  0.1387486755847931  0.1687854379415512  1.0000
  O   O2        1.0  0.06343714892864227  0.9536048173904419  0.4279267489910126  1.0000
  O   O3        1.0  0.7659408450126648  0.6678024530410767  0.30636313557624817  1.0000
  O   O4        1.0  0.6471849083900452  0.7937752604484558  0.9351643323898315  1.0000
  Si  Si1       1.0  0.060613688081502914  0.6511316299438477  0.9157361388206482  1.0000
  Si  Si2       1.0  0.5173837542533875  0.8003120422363281  0.1701517254114151  1.0000
  Si  Si3       1.0  0.5295342206954956  0.36977964639663696  0.1659805178642273  1.0000
  Si  Si4       1.0  0.8043254017829895  0.7633005380630493  0.7979326248168945  1.0000
  Si  Si5       1.0  0.3805277347564697  0.9109212756156921  0.41490164399147034  1.0000
  Si  Si6       1.0  0.022154102101922035  0.7185079455375671  0.7910597324371338  1.0000
  Si  Si7       1.0  0.5263878703117371  0.5664675831794739  0.9506462812423706  1.0000
  Si  Si8       1.0  0.1437319964170456  0.2768157720565796  0.15055930614471436  1.0000
  Si  Si9       1.0  0.5797054767608643  0.04875526949763298  0.7366809248924255  1.0000
