data_image0
_chemical_formula_structural       FeO6Si7
_chemical_formula_sum              "Fe1 O6 Si7"
_cell_length_a       4.413294263659794
_cell_length_b       6.462086671834119
_cell_length_c       6.432358741760254
_cell_angle_alpha    91.61916781693162
_cell_angle_beta     87.96434747047705
_cell_angle_gamma    88.64449066569239

_space_group_name_H-M_alt    "P 1"
_space_group_IT_number       1

loop_
  _space_group_symop_operation_xyz
  'x, y, z'

loop_
  _atom_site_type_symbol
  _atom_site_label
  _atom_site_symmetry_multiplicity
  _atom_site_fract_x
  _atom_site_fract_y
  _atom_site_fract_z
  _atom_site_occupancy
  Fe  Fe1       1.0  0.8002110123634338  0.2141859084367752  0.6805588006973267  1.0000
  O   O1        1.0  0.7927113771438599  0.488494336605072  0.35358279943466187  1.0000
  O   O2        1.0  0.3121865391731262  0.8636685609817505  0.9478521943092346  1.0000
  O   O3        1.0  0.28351303935050964  0.7978419065475464  0.6848068237304688  1.0000
  O   O4        1.0  0.7388440370559692  0.30507445335388184  0.39316874742507935  1.0000
  O   O5        1.0  0.7932934165000916  0.7942954897880554  0.19991281628608704  1.0000
  O   O6        1.0  0.2929345667362213  0.25706616044044495  0.21898509562015533  1.0000
  Si  Si1       1.0  0.5236852765083313  0.2890450358390808  0.058529362082481384  1.0000
  Si  Si2       1.0  0.7744997143745422  0.5065193176269531  0.7031947374343872  1.0000
  Si  Si3       1.0  0.2683100998401642  0.1526285707950592  0.7703525424003601  1.0000
  Si  Si4       1.0  0.775060772895813  0.7966766953468323  0.7380660176277161  1.0000
  Si  Si5       1.0  0.03196263313293457  0.3111003339290619  0.44672608375549316  1.0000
  Si  Si6       1.0  0.2737106382846832  0.31537753343582153  0.3725026547908783  1.0000
  Si  Si7       1.0  0.2670738101005554  0.9859784841537476  0.18812593817710876  1.0000
