data_image0
_chemical_formula_structural       Fe2O4Si8
_chemical_formula_sum              "Fe2 O4 Si8"
_cell_length_a       5.0899758842357645
_cell_length_b       6.134678659632243
_cell_length_c       6.336024761199951
_cell_angle_alpha    74.17224023770416
_cell_angle_beta     67.23103311920238
_cell_angle_gamma    67.78486005285083

_space_group_name_H-M_alt    "P 1"
_space_group_IT_number       1

loop_
  _space_group_symop_operation_xyz
  'x, y, z'

loop_
  _atom_site_type_symbol
  _atom_site_label
  _atom_site_symmetry_multiplicity
  _atom_site_fract_x
  _atom_site_fract_y
  _atom_site_fract_z
  _atom_site_occupancy
  Fe  Fe1       1.0  0.36655595898628235  0.17373879253864288  0.8181787729263306  1.0000
  Fe  Fe2       1.0  0.6278442144393921  0.8813214898109435  0.8754519820213318  1.0000
  O   O1        1.0  0.2811925709247589  0.5861696600914001  0.5641513466835022  1.0000
  O   O2        1.0  0.786609947681427  0.20222821831703183  0.12196864932775502  1.0000
  O   O3        1.0  0.714897871017456  0.622227132320404  0.730774998664856  1.0000
  O   O4        1.0  0.20542207360267642  0.796321153640747  0.19280874729156494  1.0000
  Si  Si1       1.0  0.23639243841171262  0.19483530521392822  0.03150537237524986  1.0000
  Si  Si2       1.0  0.7702109217643738  0.060821309685707085  0.016742564737796783  1.0000
  Si  Si3       1.0  0.8195433020591736  0.38578227162361145  0.21331536769866943  1.0000
  Si  Si4       1.0  0.4554186761379242  0.04832331836223602  0.24111036956310272  1.0000
  Si  Si5       1.0  0.8119272589683533  0.182429701089859  0.6123114824295044  1.0000
  Si  Si6       1.0  0.6121387481689453  0.3696013391017914  0.5718139410018921  1.0000
  Si  Si7       1.0  0.07849279791116719  0.8280884027481078  0.9607009887695312  1.0000
  Si  Si8       1.0  0.06597577780485153  0.7281756401062012  0.02136600948870182  1.0000
