data_image0
_chemical_formula_structural       CCd3ClCoGa2H5NZn
_chemical_formula_sum              "C1 Cd3 Cl1 Co1 Ga2 H5 N1 Zn1"
_cell_length_a       6.207515922035598
_cell_length_b       6.180403186557016
_cell_length_c       8.025818824768066
_cell_angle_alpha    72.0104888830253
_cell_angle_beta     69.07620897178464
_cell_angle_gamma    64.63420433527266

_space_group_name_H-M_alt    "P 1"
_space_group_IT_number       1

loop_
  _space_group_symop_operation_xyz
  'x, y, z'

loop_
  _atom_site_type_symbol
  _atom_site_label
  _atom_site_symmetry_multiplicity
  _atom_site_fract_x
  _atom_site_fract_y
  _atom_site_fract_z
  _atom_site_occupancy
  C   C1        1.0  0.15387709438800812  0.6083970069885254  0.8763372898101807  1.0000
  Cd  Cd1       1.0  0.9775002002716064  0.7724055051803589  0.3878527879714966  1.0000
  Cd  Cd2       1.0  0.6274847388267517  0.35478675365448  0.15147775411605835  1.0000
  Cd  Cd3       1.0  0.6447142362594604  0.5920149087905884  0.3064596652984619  1.0000
  Cl  Cl1       1.0  0.2027612328529358  0.06492454558610916  0.6052152514457703  1.0000
  Co  Co1       1.0  0.1802806407213211  0.7704626321792603  0.380082905292511  1.0000
  Ga  Ga1       1.0  0.37108010053634644  0.005432412959635258  0.19146685302257538  1.0000
  Ga  Ga2       1.0  0.6320557594299316  0.653749942779541  0.1817167103290558  1.0000
  H   H1        1.0  0.13291695713996887  0.444831907749176  0.34257155656814575  1.0000
  H   H2        1.0  0.12730346620082855  0.24708335101604462  0.2800213694572449  1.0000
  H   H3        1.0  0.15391290187835693  0.9709787964820862  0.664681077003479  1.0000
  H   H4        1.0  0.48009392619132996  0.597832977771759  0.1247173324227333  1.0000
  H   H5        1.0  0.7017643451690674  0.5368107557296753  0.005067926831543446  1.0000
  N   N1        1.0  0.1555596888065338  0.29572224617004395  0.4909681975841522  1.0000
  Zn  Zn1       1.0  0.7167603969573975  0.03126578405499458  0.5831610560417175  1.0000
