data_image0
_chemical_formula_structural       Cd3H5La3NS3
_chemical_formula_sum              "Cd3 H5 La3 N1 S3"
_cell_length_a       5.846891081469183
_cell_length_b       8.342304189628882
_cell_length_c       8.37144947052002
_cell_angle_alpha    105.17030346959537
_cell_angle_beta     90.16738484354212
_cell_angle_gamma    91.37555363487105

_space_group_name_H-M_alt    "P 1"
_space_group_IT_number       1

loop_
  _space_group_symop_operation_xyz
  'x, y, z'

loop_
  _atom_site_type_symbol
  _atom_site_label
  _atom_site_symmetry_multiplicity
  _atom_site_fract_x
  _atom_site_fract_y
  _atom_site_fract_z
  _atom_site_occupancy
  Cd  Cd1       1.0  0.4834813177585602  0.24473384022712708  0.30442309379577637  1.0000
  Cd  Cd2       1.0  0.485005646944046  0.3708896338939667  0.3234001100063324  1.0000
  Cd  Cd3       1.0  0.9865383505821228  0.7392119765281677  0.4592108130455017  1.0000
  H   H1        1.0  0.4916815161705017  0.7968499660491943  0.4359334111213684  1.0000
  H   H2        1.0  0.9942830801010132  0.5556488633155823  0.4365152418613434  1.0000
  H   H3        1.0  0.9873884320259094  0.4246583878993988  0.02844196744263172  1.0000
  H   H4        1.0  0.9944585561752319  0.2641700804233551  0.6209664940834045  1.0000
  H   H5        1.0  0.756069540977478  0.056833505630493164  0.5660495162010193  1.0000
  La  La1       1.0  0.9842735528945923  0.9781416654586792  0.30571833252906805  1.0000
  La  La2       1.0  0.7227293252944946  0.2932024300098419  0.7119660973548889  1.0000
  La  La3       1.0  0.48514819145202637  0.6332215070724487  0.7226839065551758  1.0000
  N   N1        1.0  0.4837470054626465  0.8341715335845947  0.6637975573539734  1.0000
  S   S1        1.0  0.9941422343254089  0.008789172396063805  0.8071178197860718  1.0000
  S   S2        1.0  0.488867849111557  0.5431684255599976  0.001011314685456468  1.0000
  S   S3        1.0  0.4932713508605957  0.7010596394538879  0.5987696647644043  1.0000
