data_image0
_chemical_formula_structural       Cd4H4N2S5
_chemical_formula_sum              "Cd4 H4 N2 S5"
_cell_length_a       5.405955549683047
_cell_length_b       7.329284360754475
_cell_length_c       7.465097904205322
_cell_angle_alpha    114.80435902727167
_cell_angle_beta     89.7358396655264
_cell_angle_gamma    95.20295775041846

_space_group_name_H-M_alt    "P 1"
_space_group_IT_number       1

loop_
  _space_group_symop_operation_xyz
  'x, y, z'

loop_
  _atom_site_type_symbol
  _atom_site_label
  _atom_site_symmetry_multiplicity
  _atom_site_fract_x
  _atom_site_fract_y
  _atom_site_fract_z
  _atom_site_occupancy
  Cd  Cd1       1.0  0.5927740335464478  0.12294298410415651  0.6516218781471252  1.0000
  Cd  Cd2       1.0  0.5934333205223083  0.8344916105270386  0.790321946144104  1.0000
  Cd  Cd3       1.0  0.08789343386888504  0.554410994052887  0.11227846145629886  1.0000
  Cd  Cd4       1.0  0.5891649127006531  0.5940149426460266  0.03032715432345867  1.0000
  H   H1        1.0  0.5951826572418213  0.46595755219459534  0.37107518315315247  1.0000
  H   H2        1.0  0.09276583045721054  0.8121619820594788  0.38950914144515997  1.0000
  H   H3        1.0  0.578362762928009  0.42433464527130127  0.08592008054256442  1.0000
  H   H4        1.0  0.08853267878293991  0.03881808742880821  0.17095473408699036  1.0000
  N   N1        1.0  0.077985480427742  0.8873898983001709  0.9566752910614014  1.0000
  N   N2        1.0  0.08023244887590408  0.8872706294059753  0.10759943723678589  1.0000
  S   S1        1.0  0.08609376847743988  0.143599733710289  0.6272045373916626  1.0000
  S   S2        1.0  0.08822412043809891  0.7597510814666748  0.3292154371738434  1.0000
  S   S3        1.0  0.5869268774986267  0.9185096621513367  0.9098361134529114  1.0000
  S   S4        1.0  0.5912528038024902  0.8248838186264038  0.7075921893119812  1.0000
  S   S5        1.0  0.5845750570297241  0.5458454489707947  0.5010217428207397  1.0000
