data_image0
_chemical_formula_structural       Cd7H6S2
_chemical_formula_sum              "Cd7 H6 S2"
_cell_length_a       5.5641993487306864
_cell_length_b       7.439248268312954
_cell_length_c       7.845149517059326
_cell_angle_alpha    90.25963871664636
_cell_angle_beta     89.87271952557364
_cell_angle_gamma    90.2697742937863

_space_group_name_H-M_alt    "P 1"
_space_group_IT_number       1

loop_
  _space_group_symop_operation_xyz
  'x, y, z'

loop_
  _atom_site_type_symbol
  _atom_site_label
  _atom_site_symmetry_multiplicity
  _atom_site_fract_x
  _atom_site_fract_y
  _atom_site_fract_z
  _atom_site_occupancy
  Cd  Cd1       1.0  0.4968461990356445  0.7600589990615846  0.07758960127830505  1.0000
  Cd  Cd2       1.0  0.999277889728546  0.8170509934425355  0.44798904657363897  1.0000
  Cd  Cd3       1.0  0.0023612608201801777  0.3716698586940766  0.4137509763240815  1.0000
  Cd  Cd4       1.0  0.7897325158119202  0.47517901659011846  0.06681761145591736  1.0000
  Cd  Cd5       1.0  0.7899922132492065  0.8622034192085267  0.0916193276643753  1.0000
  Cd  Cd6       1.0  0.5085950493812561  0.31004154682159424  0.9223948121070863  1.0000
  Cd  Cd7       1.0  0.339491605758667  0.8638867139816285  0.08324328809976578  1.0000
  H   H1        1.0  0.2012905478477478  0.2963160276412964  0.7221999168395996  1.0000
  H   H2        1.0  0.3921193778514862  0.519207775592804  0.5795901417732239  1.0000
  H   H3        1.0  0.32200974225997925  0.552727222442627  0.9245996475219728  1.0000
  H   H4        1.0  0.9977105855941771  0.5407605767250061  0.43514007329940807  1.0000
  H   H5        1.0  0.4896817207336425  0.7883496284484864  0.9931412339210511  1.0000
  H   H6        1.0  0.005015894770622253  0.18554103374481204  0.37932425737380987  1.0000
  S   S1        1.0  0.2990184724330902  0.5965390205383301  0.2096182554960251  1.0000
  S   S2        1.0  0.2916082441806793  0.8846785426139833  0.31197240948677063  1.0000
