data_image0
_chemical_formula_structural       CdGaH6N3S4
_chemical_formula_sum              "Cd1 Ga1 H6 N3 S4"
_cell_length_a       5.948041527307654
_cell_length_b       6.460426684690862
_cell_length_c       9.279902458190918
_cell_angle_alpha    90.1780067606604
_cell_angle_beta     90.00986986215901
_cell_angle_gamma    90.12710830670666

_space_group_name_H-M_alt    "P 1"
_space_group_IT_number       1

loop_
  _space_group_symop_operation_xyz
  'x, y, z'

loop_
  _atom_site_type_symbol
  _atom_site_label
  _atom_site_symmetry_multiplicity
  _atom_site_fract_x
  _atom_site_fract_y
  _atom_site_fract_z
  _atom_site_occupancy
  Cd  Cd1       1.0  0.9661110639572144  0.5160066485404968  0.3450183868408203  1.0000
  Ga  Ga1       1.0  0.46567726135253906  0.8197421431541443  0.4815363585948944  1.0000
  H   H1        1.0  0.4562118351459503  0.9268863797187804  0.3229939043521881  1.0000
  H   H2        1.0  0.4537389874458313  0.6998015642166138  0.1643752157688141  1.0000
  H   H3        1.0  0.9507777094841003  0.19995757937431335  0.48906078934669495  1.0000
  H   H4        1.0  0.459545373916626  0.9950861334800719  0.44123607873916626  1.0000
  H   H5        1.0  0.9668214917182922  0.2258811295032501  0.22107890248298645  1.0000
  H   H6        1.0  0.9773904085159302  0.5349754691123962  0.7031839489936829  1.0000
  N   N1        1.0  0.4395858347415924  0.3804662227630615  0.12302117794752121  1.0000
  N   N2        1.0  0.462250292301178  0.11892654746770857  0.4768490791320801  1.0000
  N   N3        1.0  0.8052589893341064  0.9670697450637816  0.9430091381072998  1.0000
  S   S1        1.0  0.9552494883537292  0.4496218562126159  0.8715662360191345  1.0000
  S   S2        1.0  0.9569579362869263  0.16598628461360931  0.17347753047943115  1.0000
  S   S3        1.0  0.49247458577156067  0.811420738697052  0.5280998349189758  1.0000
  S   S4        1.0  0.9758318662643433  0.7231569886207581  0.6444007754325867  1.0000
