data_image0
_chemical_formula_structural       Cd5H5LaS4
_chemical_formula_sum              "Cd5 H5 La1 S4"
_cell_length_a       5.704111118342321
_cell_length_b       6.878387619126537
_cell_length_c       7.3183817863464355
_cell_angle_alpha    118.5122276300671
_cell_angle_beta     92.1792854903531
_cell_angle_gamma    94.33205911340063

_space_group_name_H-M_alt    "P 1"
_space_group_IT_number       1

loop_
  _space_group_symop_operation_xyz
  'x, y, z'

loop_
  _atom_site_type_symbol
  _atom_site_label
  _atom_site_symmetry_multiplicity
  _atom_site_fract_x
  _atom_site_fract_y
  _atom_site_fract_z
  _atom_site_occupancy
  Cd  Cd1       1.0  0.8716620802879333  0.5963608026504517  0.9621652960777284  1.0000
  Cd  Cd2       1.0  0.6199510097503662  0.33512499928474426  0.3115882873535156  1.0000
  Cd  Cd3       1.0  0.8724627494812012  0.7430523633956909  0.5506274104118347  1.0000
  Cd  Cd4       1.0  0.531966507434845  0.5858789682388306  0.8313739895820619  1.0000
  Cd  Cd5       1.0  0.36977726221084595  0.1081182211637497  0.5867212414741516  1.0000
  H   H1        1.0  0.875791609287262  0.8130068182945251  0.9810885787010194  1.0000
  H   H2        1.0  0.8629558682441711  0.7957717776298523  0.11982880532741541  1.0000
  H   H3        1.0  0.3780510723590851  0.8567010164260864  0.7012897133827208  1.0000
  H   H4        1.0  0.8599809408187866  0.6781617403030396  0.37392801046371454  1.0000
  H   H5        1.0  0.3618903160095215  0.3313285708427429  0.5802921652793884  1.0000
  La  La1       1.0  0.35792627930641174  0.9182140827178955  0.6051766276359558  1.0000
  S   S1        1.0  0.8653602004051208  0.3192768394947052  0.6942465901374817  1.0000
  S   S2        1.0  0.3660162687301636  0.7790274620056152  0.5973474979400635  1.0000
  S   S3        1.0  0.8684444427490234  0.2755560874938965  0.9644119143486024  1.0000
  S   S4        1.0  0.3627525866031647  0.20259223878383636  0.09839653968811034  1.0000
