data_image0
_chemical_formula_structural       AlK4LaO9SeZn
_chemical_formula_sum              "Al1 K4 La1 O9 Se1 Zn1"
_cell_length_a       6.2214263349204835
_cell_length_b       5.994148129646231
_cell_length_c       9.586670875549316
_cell_angle_alpha    74.46684454695377
_cell_angle_beta     76.32035184684747
_cell_angle_gamma    69.0298694158478

_space_group_name_H-M_alt    "P 1"
_space_group_IT_number       1

loop_
  _space_group_symop_operation_xyz
  'x, y, z'

loop_
  _atom_site_type_symbol
  _atom_site_label
  _atom_site_symmetry_multiplicity
  _atom_site_fract_x
  _atom_site_fract_y
  _atom_site_fract_z
  _atom_site_occupancy
  Al  Al1       1.0  0.9284766912460327  0.6493279337882996  0.49616819620132446  1.0000
  K   K1        1.0  0.6817247867584229  0.8903300166130065  0.2336602509021759  1.0000
  K   K2        1.0  0.22981023788452148  0.1269882172346115  0.33934757113456726  1.0000
  K   K3        1.0  0.5034157633781433  0.609731912612915  0.02661399915814402  1.0000
  K   K4        1.0  0.9960259199142456  0.618561863899231  0.24692046642303467  1.0000
  La  La1       1.0  0.03375685587525371  0.8583822846412658  0.9547317028045654  1.0000
  O   O1        1.0  0.7257072925567627  0.4873912632465362  0.4549928903579712  1.0000
  O   O2        1.0  0.3491956889629364  0.8919561505317687  0.1787293255329132  1.0000
  O   O3        1.0  0.02721046842634678  0.6903897523880005  0.1405385285615921  1.0000
  O   O4        1.0  0.42584049701690674  0.8501476049423217  0.8104838132858276  1.0000
  O   O5        1.0  0.1762927770614624  0.09413090348243713  0.07824933528900146  1.0000
  O   O6        1.0  0.43514251708984375  0.6669139266014099  0.3165455162525177  1.0000
  O   O7        1.0  0.03846248239278793  0.36282283067703247  0.7898139953613281  1.0000
  O   O8        1.0  0.1292191445827484  0.14887844026088715  0.43302541971206665  1.0000
  O   O9        1.0  0.203806534409523  0.3767884075641632  0.21477675437927246  1.0000
  Se  Se1       1.0  0.07954210042953491  0.29651153087615967  0.7077270150184631  1.0000
  Zn  Zn1       1.0  0.7622370719909668  0.199632465839386  0.4922129809856415  1.0000
