data_image0
_chemical_formula_structural       AlGa2K4NNiO8
_chemical_formula_sum              "Al1 Ga2 K4 N1 Ni1 O8"
_cell_length_a       6.081289695177277
_cell_length_b       6.82592514292429
_cell_length_c       9.451796531677246
_cell_angle_alpha    89.6230009866866
_cell_angle_beta     90.61590754948186
_cell_angle_gamma    114.7879841110782

_space_group_name_H-M_alt    "P 1"
_space_group_IT_number       1

loop_
  _space_group_symop_operation_xyz
  'x, y, z'

loop_
  _atom_site_type_symbol
  _atom_site_label
  _atom_site_symmetry_multiplicity
  _atom_site_fract_x
  _atom_site_fract_y
  _atom_site_fract_z
  _atom_site_occupancy
  Al  Al1       1.0  0.63499516248703  0.9380786418914795  0.17743772268295288  1.0000
  Ga  Ga1       1.0  0.22578351199626923  0.042416878044605255  0.9809630513191223  1.0000
  Ga  Ga2       1.0  0.2251695990562439  0.10843723267316818  0.03839368000626564  1.0000
  K   K1        1.0  0.6865862011909485  0.07402414828538895  0.11135421693325043  1.0000
  K   K2        1.0  0.7133486866950989  0.6075846552848816  0.34984084963798523  1.0000
  K   K3        1.0  0.2076549082994461  0.5865033864974976  0.882515013217926  1.0000
  K   K4        1.0  0.7904236912727356  0.3511376976966858  0.8672252297401428  1.0000
  N   N1        1.0  0.8382545113563538  0.8478964567184448  0.3812292814254761  1.0000
  Ni  Ni1       1.0  0.028529729694128036  0.3999445140361786  0.39625993371009827  1.0000
  O   O1        1.0  0.9966370463371277  0.4273580014705658  0.6091258525848389  1.0000
  O   O2        1.0  0.0032473073806613684  0.4134487509727478  0.5953087210655212  1.0000
  O   O3        1.0  0.052560221403837204  0.9364127516746521  0.67086261510849  1.0000
  O   O4        1.0  0.40269336104393005  0.6784939169883728  0.8758070468902588  1.0000
  O   O5        1.0  0.5994881391525269  0.18810231983661652  0.6021620035171509  1.0000
  O   O6        1.0  0.8868920207023621  0.9447812438011169  0.364178329706192  1.0000
  O   O7        1.0  0.943840742111206  0.16376428306102753  0.11478971689939499  1.0000
  O   O8        1.0  0.9279693365097046  0.2757262587547302  0.8061842918395996  1.0000
