data_image0
_chemical_formula_structural       EuK3O12Rb
_chemical_formula_sum              "Eu1 K3 O12 Rb1"
_cell_length_a       4.96460965563957
_cell_length_b       5.471916560453677
_cell_length_c       11.623082160949707
_cell_angle_alpha    103.7793543733188
_cell_angle_beta     91.5733211806723
_cell_angle_gamma    90.38539329583155

_space_group_name_H-M_alt    "P 1"
_space_group_IT_number       1

loop_
  _space_group_symop_operation_xyz
  'x, y, z'

loop_
  _atom_site_type_symbol
  _atom_site_label
  _atom_site_symmetry_multiplicity
  _atom_site_fract_x
  _atom_site_fract_y
  _atom_site_fract_z
  _atom_site_occupancy
  Eu  Eu1       1.0  0.7821269631385803  0.2372565716505051  0.19726693630218506  1.0000
  K   K1        1.0  0.7728361487388611  0.8343660235404968  0.7229099869728088  1.0000
  K   K2        1.0  0.9815731644630432  0.41280195116996765  0.8420657515525818  1.0000
  K   K3        1.0  0.786934494972229  0.44346943497657776  0.10666653513908386  1.0000
  O   O1        1.0  0.7797998785972595  0.629684329032898  0.3687082529067993  1.0000
  O   O2        1.0  0.27827757596969604  0.272268146276474  0.8498338460922241  1.0000
  O   O3        1.0  0.7839140892028809  0.5967027544975281  0.234865203499794  1.0000
  O   O4        1.0  0.28340423107147217  0.47009763121604925  0.5189914107322693  1.0000
  O   O5        1.0  0.2778443694114685  0.003918676171451807  0.5637813210487366  1.0000
  O   O6        1.0  0.3014286160469055  0.7160376310348511  0.7007992267608643  1.0000
  O   O7        1.0  0.7814996838569641  0.09779249131679535  0.4700622260570526  1.0000
  O   O8        1.0  0.28593990206718445  0.9884597659111024  0.5866540670394897  1.0000
  O   O9        1.0  0.2903919517993927  0.09729720652103424  0.23448839783668518  1.0000
  O   O10       1.0  0.28007882833480835  0.590326189994812  0.9830065369606018  1.0000
  O   O11       1.0  0.3132244050502777  0.7624815702438354  0.1746034473180771  1.0000
  O   O12       1.0  0.7853186726570129  0.20162437856197357  0.8678660988807678  1.0000
  Rb  Rb1       1.0  0.2912759780883789  0.9510469436645509  0.41572079062461853  1.0000
