data_image0
_chemical_formula_structural       Al2AsGaKNaO9Se2
_chemical_formula_sum              "Al2 As1 Ga1 K1 Na1 O9 Se2"
_cell_length_a       5.263943881916473
_cell_length_b       5.987518473778706
_cell_length_c       9.348823547363281
_cell_angle_alpha    77.56004783751958
_cell_angle_beta     73.08964690086644
_cell_angle_gamma    66.95083623565591

_space_group_name_H-M_alt    "P 1"
_space_group_IT_number       1

loop_
  _space_group_symop_operation_xyz
  'x, y, z'

loop_
  _atom_site_type_symbol
  _atom_site_label
  _atom_site_symmetry_multiplicity
  _atom_site_fract_x
  _atom_site_fract_y
  _atom_site_fract_z
  _atom_site_occupancy
  Al  Al1       1.0  0.10854602605104446  0.46454983949661255  0.8586734533309937  1.0000
  Al  Al2       1.0  0.36055877804756165  0.2972680926322937  0.9300822019577026  1.0000
  As  As1       1.0  0.4391252100467682  0.1610274314880371  0.44628557562828064  1.0000
  Ga  Ga1       1.0  0.6515627503395081  0.9039716124534607  0.6626985669136047  1.0000
  K   K1        1.0  0.7813181281089783  0.36375054717063904  0.3799571394920349  1.0000
  Na  Na1       1.0  0.9305777549743652  0.5723437666893005  0.4822548031806946  1.0000
  O   O1        1.0  0.5905740261077881  0.6654716730117798  0.20217606425285342  1.0000
  O   O2        1.0  0.05867099389433861  0.22443421185016632  0.3318280279636383  1.0000
  O   O3        1.0  0.25048717856407166  0.9240409135818481  0.15497790277004242  1.0000
  O   O4        1.0  0.16106264293193817  0.8480323553085327  0.019299032166600227  1.0000
  O   O5        1.0  0.5330555438995361  0.31970515847206116  0.24281959235668182  1.0000
  O   O6        1.0  0.8167122006416321  0.6893621683120728  0.15965239703655243  1.0000
  O   O7        1.0  0.07021907716989517  0.5894842147827148  0.08492087572813034  1.0000
  O   O8        1.0  0.4456196129322052  0.07473433762788773  0.8311266899108887  1.0000
  O   O9        1.0  0.7606717944145203  0.03574815019965172  0.4114444851875305  1.0000
  Se  Se1       1.0  0.44122976064682007  0.15944944322109222  0.8490485548973083  1.0000
  Se  Se2       1.0  0.7616108655929565  0.5531960129737854  0.33819499611854553  1.0000
