data_image0
_chemical_formula_structural       Eu2KMoNaO12
_chemical_formula_sum              "Eu2 K1 Mo1 Na1 O12"
_cell_length_a       7.097696899763753
_cell_length_b       7.02605008752729
_cell_length_c       10.134329795837402
_cell_angle_alpha    89.60927983549955
_cell_angle_beta     89.53355747274875
_cell_angle_gamma    117.31554475286991

_space_group_name_H-M_alt    "P 1"
_space_group_IT_number       1

loop_
  _space_group_symop_operation_xyz
  'x, y, z'

loop_
  _atom_site_type_symbol
  _atom_site_label
  _atom_site_symmetry_multiplicity
  _atom_site_fract_x
  _atom_site_fract_y
  _atom_site_fract_z
  _atom_site_occupancy
  Eu  Eu1       1.0  0.5537394285202026  0.21931767463684082  0.26713618636131287  1.0000
  Eu  Eu2       1.0  0.8382883071899414  0.7639175653457642  0.09799904376268387  1.0000
  K   K1        1.0  0.48164260387420654  0.5643924474716187  0.6389383673667908  1.0000
  Mo  Mo1       1.0  0.19253453612327576  0.3679909110069275  0.2774391174316406  1.0000
  Na  Na1       1.0  0.5249354839324951  0.8654242753982544  0.27060025930404663  1.0000
  O   O1        1.0  0.306643545627594  0.03433135151863098  0.07767603546380997  1.0000
  O   O2        1.0  0.41107696294784546  0.24777528643608093  0.6074517369270325  1.0000
  O   O3        1.0  0.5403592586517334  0.2274216115474701  0.7928401231765747  1.0000
  O   O4        1.0  0.09225621819496155  0.19080689549446106  0.7872125506401062  1.0000
  O   O5        1.0  0.17905855178833008  0.7397132515907288  0.630997896194458  1.0000
  O   O6        1.0  0.9171939492225647  0.5537208318710327  0.27388879656791687  1.0000
  O   O7        1.0  0.15781158208847046  0.7395449876785278  0.5418484210968018  1.0000
  O   O8        1.0  0.4745379388332367  0.5596944689750671  0.7994403839111328  1.0000
  O   O9        1.0  0.8913103342056274  0.08837111294269562  0.1426301747560501  1.0000
  O   O10       1.0  0.24404940009117126  0.4606589376926422  0.24256767332553864  1.0000
  O   O11       1.0  0.7954031229019165  0.054778825491666794  0.6330077648162842  1.0000
  O   O12       1.0  0.9039335250854492  0.23755548894405365  0.6124062538146973  1.0000
