data_image0
_chemical_formula_structural       AlEuK3NaO9Se2
_chemical_formula_sum              "Al1 Eu1 K3 Na1 O9 Se2"
_cell_length_a       6.328377109341325
_cell_length_b       7.055171909270112
_cell_length_c       8.192867279052734
_cell_angle_alpha    73.19963342341971
_cell_angle_beta     71.54628086504705
_cell_angle_gamma    71.12401933519862

_space_group_name_H-M_alt    "P 1"
_space_group_IT_number       1

loop_
  _space_group_symop_operation_xyz
  'x, y, z'

loop_
  _atom_site_type_symbol
  _atom_site_label
  _atom_site_symmetry_multiplicity
  _atom_site_fract_x
  _atom_site_fract_y
  _atom_site_fract_z
  _atom_site_occupancy
  Al  Al1       1.0  0.5402183532714844  0.07224226742982864  0.105463981628418  1.0000
  Eu  Eu1       1.0  0.5417254567146301  0.2844090163707733  0.559273362159729  1.0000
  K   K1        1.0  0.6107946634292603  0.5553960204124451  0.07284151017665863  1.0000
  K   K2        1.0  0.30033236742019653  0.2663331627845764  0.47018662095069885  1.0000
  K   K3        1.0  0.9298515915870667  0.12307105958461763  0.6513421535491943  1.0000
  Na  Na1       1.0  0.1901475489139557  0.5215134620666504  0.1959189474582672  1.0000
  O   O1        1.0  0.5527835488319397  0.8121999502182007  0.3164452016353607  1.0000
  O   O2        1.0  0.8768210411071777  0.8589798212051393  0.23979811370372772  1.0000
  O   O3        1.0  0.4812313914299011  0.1716722548007965  0.3680175244808197  1.0000
  O   O4        1.0  0.9347857236862183  0.18113252520561218  0.09690235555171967  1.0000
  O   O5        1.0  0.4936419725418091  0.9584153294563295  0.2184622585773468  1.0000
  O   O6        1.0  0.9281930327415466  0.13504131138324738  0.630423367023468  1.0000
  O   O7        1.0  0.19767962396144867  0.5190023183822632  0.35314086079597473  1.0000
  O   O8        1.0  0.7454451322555542  0.4315140247344971  0.3655661642551422  1.0000
  O   O9        1.0  0.24197651445865628  0.933062255382538  0.03726035729050636  1.0000
  Se  Se1       1.0  0.6669557690620422  0.02038370445370674  0.22534902393817902  1.0000
  Se  Se2       1.0  0.9338954091072083  0.8101739287376404  0.6740916967391968  1.0000
