data_image0
_chemical_formula_structural       Cd8Ce3
_chemical_formula_sum              "Cd8 Ce3"
_cell_length_a       4.442916527959944
_cell_length_b       8.999336534007604
_cell_length_c       9.933455467224121
_cell_angle_alpha    89.39558604474739
_cell_angle_beta     89.65769562921301
_cell_angle_gamma    88.93106885114047

_space_group_name_H-M_alt    "P 1"
_space_group_IT_number       1

loop_
  _space_group_symop_operation_xyz
  'x, y, z'

loop_
  _atom_site_type_symbol
  _atom_site_label
  _atom_site_symmetry_multiplicity
  _atom_site_fract_x
  _atom_site_fract_y
  _atom_site_fract_z
  _atom_site_occupancy
  Cd  Cd1       1.0  0.7305110096931458  0.5357750058174133  0.07166992872953415  1.0000
  Cd  Cd2       1.0  0.7083188891410828  0.03114059939980507  0.3321194052696228  1.0000
  Cd  Cd3       1.0  0.22157041728496552  0.5448145270347595  0.961102306842804  1.0000
  Cd  Cd4       1.0  0.2296575307846069  0.6488023400306702  0.09760681539773941  1.0000
  Cd  Cd5       1.0  0.7114675045013428  0.5328305959701538  0.34350353479385376  1.0000
  Cd  Cd6       1.0  0.730431318283081  0.7803723812103271  0.8589884042739868  1.0000
  Cd  Cd7       1.0  0.7240532040596008  0.326782763004303  0.6100088953971863  1.0000
  Cd  Cd8       1.0  0.22438739240169525  0.12507346272468567  0.3400479555130005  1.0000
  Ce  Ce1       1.0  0.22523577511310577  0.11490291357040405  0.09649813920259476  1.0000
  Ce  Ce2       1.0  0.21859663724899292  0.5532065629959106  0.8250563740730286  1.0000
  Ce  Ce3       1.0  0.23186914622783658  0.03705728054046631  0.111543670296669  1.0000
