data_image0
_chemical_formula_structural       Cd8Ce2Tb
_chemical_formula_sum              "Cd8 Ce2 Tb1"
_cell_length_a       4.439320271683286
_cell_length_b       9.220182469425142
_cell_length_c       9.986825942993164
_cell_angle_alpha    89.90520591301227
_cell_angle_beta     89.33535761681439
_cell_angle_gamma    89.20988737878363

_space_group_name_H-M_alt    "P 1"
_space_group_IT_number       1

loop_
  _space_group_symop_operation_xyz
  'x, y, z'

loop_
  _atom_site_type_symbol
  _atom_site_label
  _atom_site_symmetry_multiplicity
  _atom_site_fract_x
  _atom_site_fract_y
  _atom_site_fract_z
  _atom_site_occupancy
  Cd  Cd1       1.0  0.5528591275215149  0.3170255422592163  0.1959158182144165  1.0000
  Cd  Cd2       1.0  0.057456374168395996  0.33843129873275757  0.3575367033481598  1.0000
  Cd  Cd3       1.0  0.5503742694854736  0.7688305377960205  0.8209731578826904  1.0000
  Cd  Cd4       1.0  0.5552377700805664  0.8103622198104858  0.961830735206604  1.0000
  Cd  Cd5       1.0  0.05714597925543785  0.1284765899181366  0.9013332724571228  1.0000
  Cd  Cd6       1.0  0.05303928256034851  0.3426932394504547  0.027358103543519974  1.0000
  Cd  Cd7       1.0  0.560342013835907  0.5344313979148865  0.3668891489505768  1.0000
  Cd  Cd8       1.0  0.04096215218305588  0.8407865166664124  0.5787503719329834  1.0000
  Ce  Ce1       1.0  0.55316162109375  0.6026175022125244  0.07403849810361862  1.0000
  Ce  Ce2       1.0  0.5472108125686646  0.018835442140698433  0.7624387741088867  1.0000
  Tb  Tb1       1.0  0.05579999089241028  0.76429283618927  0.6942111849784851  1.0000
