data_image0
_chemical_formula_structural       Cd5Ce4SbTl
_chemical_formula_sum              "Cd5 Ce4 Sb1 Tl1"
_cell_length_a       6.2247116038487365
_cell_length_b       8.074331989231894
_cell_length_c       7.410048484802246
_cell_angle_alpha    91.89242576864004
_cell_angle_beta     90.91576956018581
_cell_angle_gamma    91.86310231750574

_space_group_name_H-M_alt    "P 1"
_space_group_IT_number       1

loop_
  _space_group_symop_operation_xyz
  'x, y, z'

loop_
  _atom_site_type_symbol
  _atom_site_label
  _atom_site_symmetry_multiplicity
  _atom_site_fract_x
  _atom_site_fract_y
  _atom_site_fract_z
  _atom_site_occupancy
  Cd  Cd1       1.0  0.15991421043872833  0.21638202667236328  0.2717893719673157  1.0000
  Cd  Cd2       1.0  0.6399785280227661  0.043048229068517685  0.7116470932960511  1.0000
  Cd  Cd3       1.0  0.6483622789382935  0.6599459052085876  0.6363441944122314  1.0000
  Cd  Cd4       1.0  0.14778071641921997  0.6758636832237244  0.8500401973724366  1.0000
  Cd  Cd5       1.0  0.6440340280532837  0.3547206521034241  0.14538566768169403  1.0000
  Ce  Ce1       1.0  0.1454814374446869  0.3515741229057312  0.9096931815147401  1.0000
  Ce  Ce2       1.0  0.6466894149780273  0.6539981961250305  0.9587026834487916  1.0000
  Ce  Ce3       1.0  0.13776661455631256  0.918790340423584  0.9796252846717836  1.0000
  Ce  Ce4       1.0  0.9065423607826233  0.5213702917098999  0.6370306611061098  1.0000
  Sb  Sb1       1.0  0.6525678038597107  0.7030270099639893  0.24198302626609805  1.0000
  Tl  Tl1       1.0  0.40783241391181946  0.012517064809799194  0.12877699732780457  1.0000
