data_image0
_chemical_formula_structural       Cd5Ce3TbTl2
_chemical_formula_sum              "Cd5 Ce3 Tb1 Tl2"
_cell_length_a       6.215551264734722
_cell_length_b       8.421931630729885
_cell_length_c       7.637397766113281
_cell_angle_alpha    113.01444508106134
_cell_angle_beta     87.48459163716645
_cell_angle_gamma    89.49369103037095

_space_group_name_H-M_alt    "P 1"
_space_group_IT_number       1

loop_
  _space_group_symop_operation_xyz
  'x, y, z'

loop_
  _atom_site_type_symbol
  _atom_site_label
  _atom_site_symmetry_multiplicity
  _atom_site_fract_x
  _atom_site_fract_y
  _atom_site_fract_z
  _atom_site_occupancy
  Cd  Cd1       1.0  0.40565374493598927  0.2078753858804703  0.597193717956543  1.0000
  Cd  Cd2       1.0  0.9111028909683228  0.11215246468782426  0.12049070000648499  1.0000
  Cd  Cd3       1.0  0.9058961868286133  0.5469821095466614  0.7403730750083923  1.0000
  Cd  Cd4       1.0  0.40222495794296265  0.7260899543762208  0.41805958747863775  1.0000
  Cd  Cd5       1.0  0.9207145571708679  0.854882299900055  0.9834460616111755  1.0000
  Ce  Ce1       1.0  0.40044522285461426  0.34875294566154486  0.008356585167348414  1.0000
  Ce  Ce2       1.0  0.9035984873771667  0.8809425830841066  0.48926386237144476  1.0000
  Ce  Ce3       1.0  0.9221407771110535  0.27077165246009827  0.602784276008606  1.0000
  Tb  Tb1       1.0  0.9089215397834778  0.8880275487899781  0.12331975251436239  1.0000
  Tl  Tl1       1.0  0.4178631007671356  0.6198030710220338  0.5936553478240967  1.0000
  Tl  Tl2       1.0  0.4194624423980713  0.30521768331527716  0.12343192100524904  1.0000
