data_image0
_chemical_formula_structural       AgCd6Ce2SbTi
_chemical_formula_sum              "Ag1 Cd6 Ce2 Sb1 Ti1"
_cell_length_a       4.646506336316696
_cell_length_b       8.60750228554478
_cell_length_c       8.674283027648926
_cell_angle_alpha    96.022223374919
_cell_angle_beta     88.98397954778783
_cell_angle_gamma    89.41969417088498

_space_group_name_H-M_alt    "P 1"
_space_group_IT_number       1

loop_
  _space_group_symop_operation_xyz
  'x, y, z'

loop_
  _atom_site_type_symbol
  _atom_site_label
  _atom_site_symmetry_multiplicity
  _atom_site_fract_x
  _atom_site_fract_y
  _atom_site_fract_z
  _atom_site_occupancy
  Ag  Ag1       1.0  0.7591556310653687  0.09707812964916229  0.5208077430725098  1.0000
  Cd  Cd1       1.0  0.27056974172592163  0.8960667848587036  0.14277727901935577  1.0000
  Cd  Cd2       1.0  0.2304348200559616  0.3637694716453552  0.7678168416023254  1.0000
  Cd  Cd3       1.0  0.25012850761413574  0.7319642305374146  0.36996981501579285  1.0000
  Cd  Cd4       1.0  0.2517925202846527  0.15115006268024445  0.09349453449249268  1.0000
  Cd  Cd5       1.0  0.7698335647583008  0.10508614033460617  0.289236456155777  1.0000
  Cd  Cd6       1.0  0.7442635297775269  0.969285786151886  0.014058132655918586  1.0000
  Ce  Ce1       1.0  0.7550960779190063  0.5820130109786987  0.7140686511993408  1.0000
  Ce  Ce2       1.0  0.7466397881507874  0.5673876404762268  0.11484908312559126  1.0000
  Sb  Sb1       1.0  0.26854875683784485  0.9193354249000549  0.28026318550109863  1.0000
  Ti  Ti1       1.0  0.26869165897369385  0.4260686933994293  0.6632722616195679  1.0000
