data_image0
_chemical_formula_structural       Cd7Ce3Tb
_chemical_formula_sum              "Cd7 Ce3 Tb1"
_cell_length_a       4.872675181482461
_cell_length_b       9.451086410708818
_cell_length_c       10.043899536132812
_cell_angle_alpha    89.91673659488534
_cell_angle_beta     89.48021401142047
_cell_angle_gamma    90.02392904512502

_space_group_name_H-M_alt    "P 1"
_space_group_IT_number       1

loop_
  _space_group_symop_operation_xyz
  'x, y, z'

loop_
  _atom_site_type_symbol
  _atom_site_label
  _atom_site_symmetry_multiplicity
  _atom_site_fract_x
  _atom_site_fract_y
  _atom_site_fract_z
  _atom_site_occupancy
  Cd  Cd1       1.0  0.7373044490814209  0.633686900138855  0.583050012588501  1.0000
  Cd  Cd2       1.0  0.2327946126461029  0.6597726345062256  0.2928330600261688  1.0000
  Cd  Cd3       1.0  0.23211005330085754  0.1752413958311081  0.3392559289932251  1.0000
  Cd  Cd4       1.0  0.7374044060707092  0.8887519240379333  0.36161425709724426  1.0000
  Cd  Cd5       1.0  0.23903833329677582  0.8488922715187073  0.9788637757301331  1.0000
  Cd  Cd6       1.0  0.7207754254341125  0.8202003836631775  0.5553674697875977  1.0000
  Cd  Cd7       1.0  0.23478476703166962  0.3847511112689972  0.5815645456314087  1.0000
  Ce  Ce1       1.0  0.7182843089103699  0.019167665392160416  0.7233300805091858  1.0000
  Ce  Ce2       1.0  0.737716019153595  0.260920912027359  0.9737210869789124  1.0000
  Ce  Ce3       1.0  0.2188870906829834  0.9788496494293213  0.7951907515525817  1.0000
  Tb  Tb1       1.0  0.7277853488922119  0.4925740361213684  0.12297945469617844  1.0000
