data_image0
_chemical_formula_structural       MnO7Pr2SSbSmTb
_chemical_formula_sum              "Mn1 O7 Pr2 S1 Sb1 Sm1 Tb1"
_cell_length_a       6.013476248608375
_cell_length_b       8.298306764036617
_cell_length_c       8.373653411865234
_cell_angle_alpha    122.244147734966
_cell_angle_beta     92.05640084335047
_cell_angle_gamma    89.22861380798446

_space_group_name_H-M_alt    "P 1"
_space_group_IT_number       1

loop_
  _space_group_symop_operation_xyz
  'x, y, z'

loop_
  _atom_site_type_symbol
  _atom_site_label
  _atom_site_symmetry_multiplicity
  _atom_site_fract_x
  _atom_site_fract_y
  _atom_site_fract_z
  _atom_site_occupancy
  Mn  Mn1       1.0  0.9722545742988588  0.2647017538547516  0.7432815432548523  1.0000
  O   O1        1.0  0.20459224283695224  0.8156293034553529  0.14515064656734472  1.0000
  O   O2        1.0  0.4815471172332764  0.11459117382764818  0.5048317313194275  1.0000
  O   O3        1.0  0.2324144542217255  0.9851667881011964  0.32713189721107483  1.0000
  O   O4        1.0  0.20236054062843326  0.48217868804931646  0.24163818359375  1.0000
  O   O5        1.0  0.9227125048637391  0.5955184102058411  0.473217785358429  1.0000
  O   O6        1.0  0.4309921264648438  0.6660073399543762  0.4586040377616883  1.0000
  O   O7        1.0  0.4732996821403504  0.8413663506507875  0.9308168888092041  1.0000
  Pr  Pr1       1.0  0.5208733677864076  0.8434872031211854  0.7224994897842407  1.0000
  Pr  Pr2       1.0  0.9600555300712588  0.8405379056930543  0.06750203669071198  1.0000
  S   S1        1.0  0.9776254296302797  0.34507501125335693  0.6085795164108276  1.0000
  Sb  Sb1       1.0  0.198609933257103  0.10607814043760301  0.5095891356468201  1.0000
  Sm  Sm1       1.0  0.49585181474685674  0.2606172263622284  0.7716801166534424  1.0000
  Tb  Tb1       1.0  0.949522376060486  0.5770658850669861  0.9428547024726868  1.0000
