data_image0
_chemical_formula_structural       AgHoO8PbPr2Tb
_chemical_formula_sum              "Ag1 Ho1 O8 Pb1 Pr2 Tb1"
_cell_length_a       5.935831111541006
_cell_length_b       7.706125663358521
_cell_length_c       8.01511287689209
_cell_angle_alpha    120.88117347464865
_cell_angle_beta     92.07583307578838
_cell_angle_gamma    88.85154424311375

_space_group_name_H-M_alt    "P 1"
_space_group_IT_number       1

loop_
  _space_group_symop_operation_xyz
  'x, y, z'

loop_
  _atom_site_type_symbol
  _atom_site_label
  _atom_site_symmetry_multiplicity
  _atom_site_fract_x
  _atom_site_fract_y
  _atom_site_fract_z
  _atom_site_occupancy
  Ag  Ag1       1.0  0.4460330605506897  0.9169539213180543  0.02184486016631132  1.0000
  Ho  Ho1       1.0  0.19131816923618317  0.2606852948665619  0.4483851194381714  1.0000
  O   O1        1.0  0.6735187768936156  0.4239762127399445  0.5411050915718079  1.0000
  O   O2        1.0  0.7310680747032166  0.5708350539207458  0.805006206035614  1.0000
  O   O3        1.0  0.18027183413505551  0.945855736732483  0.7435322403907776  1.0000
  O   O4        1.0  0.21119190752506256  0.5476062297821045  0.9160527586936951  1.0000
  O   O5        1.0  0.20113049447536469  0.2717069387435913  0.8353620171546936  1.0000
  O   O6        1.0  0.6939192414283752  0.9314351677894593  0.8893046379089357  1.0000
  O   O7        1.0  0.6955855488777161  0.6606180667877197  0.45891514420509344  1.0000
  O   O8        1.0  0.16500888764858246  0.38036200404167175  0.2651866674423218  1.0000
  Pb  Pb1       1.0  0.6926984190940857  0.4618624150753022  0.4235815107822418  1.0000
  Pr  Pr1       1.0  0.9883244633674622  0.6663002371788025  0.0615182481706143  1.0000
  Pr  Pr2       1.0  0.9912005662918091  0.7719739675521851  0.5095855593681335  1.0000
  Tb  Tb1       1.0  0.48665472865104675  0.0018514697439968588  0.4464871883392334  1.0000
