data_image0
_chemical_formula_structural       O9PPrSTb2
_chemical_formula_sum              "O9 P1 Pr1 S1 Tb2"
_cell_length_a       6.5547714854692565
_cell_length_b       7.17332390603014
_cell_length_c       6.767121315002441
_cell_angle_alpha    113.98669183734418
_cell_angle_beta     91.16184295524357
_cell_angle_gamma    93.58454228483188

_space_group_name_H-M_alt    "P 1"
_space_group_IT_number       1

loop_
  _space_group_symop_operation_xyz
  'x, y, z'

loop_
  _atom_site_type_symbol
  _atom_site_label
  _atom_site_symmetry_multiplicity
  _atom_site_fract_x
  _atom_site_fract_y
  _atom_site_fract_z
  _atom_site_occupancy
  O   O1        1.0  0.47684845328330994  0.048776067793369286  0.2715494632720947  1.0000
  O   O2        1.0  0.9681079387664795  0.8101743459701537  0.2734198272228241  1.0000
  O   O3        1.0  0.15932562947273254  0.3054518699645996  0.37748658657073975  1.0000
  O   O4        1.0  0.21620288491249084  0.8527625799179076  0.2497980147600174  1.0000
  O   O5        1.0  0.404131680727005  0.7708486318588257  0.7734947800636292  1.0000
  O   O6        1.0  0.3178204596042633  0.5757049918174744  0.4893961250782013  1.0000
  O   O7        1.0  0.7035846710205078  0.8107746243476867  0.580630898475647  1.0000
  O   O8        1.0  0.9321447014808655  0.8272665739059447  0.9372361302375793  1.0000
  O   O9        1.0  0.989861786365509  0.05036963149905204  0.7580628991127014  1.0000
  P   P1        1.0  0.956876277923584  0.5595422983169556  0.8827114105224609  1.0000
  Pr  Pr1       1.0  0.9634189605712891  0.8198161721229552  0.17506262660026545  1.0000
  S   S1        1.0  0.8162462711334229  0.29669833183288574  0.42969295382499695  1.0000
  Tb  Tb1       1.0  0.6910215616226195  0.05038356035947799  0.9609984159469604  1.0000
  Tb  Tb2       1.0  0.2228240668773651  0.280231237411499  0.47083425521850586  1.0000
