data_image0
_chemical_formula_structural       O8PPr2STb2
_chemical_formula_sum              "O8 P1 Pr2 S1 Tb2"
_cell_length_a       6.17536093889183
_cell_length_b       7.548165597183981
_cell_length_c       8.476602554321289
_cell_angle_alpha    119.33108694825307
_cell_angle_beta     90.37034883801208
_cell_angle_gamma    89.01412856872378

_space_group_name_H-M_alt    "P 1"
_space_group_IT_number       1

loop_
  _space_group_symop_operation_xyz
  'x, y, z'

loop_
  _atom_site_type_symbol
  _atom_site_label
  _atom_site_symmetry_multiplicity
  _atom_site_fract_x
  _atom_site_fract_y
  _atom_site_fract_z
  _atom_site_occupancy
  O   O1        1.0  0.07058949023485184  0.01083362940698862  0.9517983198165894  1.0000
  O   O2        1.0  0.12107012420892717  0.6629252433776855  0.5570626854896545  1.0000
  O   O3        1.0  0.6577185392379761  0.591006875038147  0.26818951964378357  1.0000
  O   O4        1.0  0.8284776210784913  0.3504806458950043  0.8181979060173035  1.0000
  O   O5        1.0  0.0607203096151352  0.34833794832229614  0.8368887305259705  1.0000
  O   O6        1.0  0.3495689034461975  0.3402389883995056  0.8807126879692078  1.0000
  O   O7        1.0  0.38513436913490295  0.10658811032772064  0.8456316590309143  1.0000
  O   O8        1.0  0.8297997117042543  0.7005459666252136  0.7018962502479553  1.0000
  P   P1        1.0  0.5029648542404175  0.95616215467453  0.6826059222221375  1.0000
  Pr  Pr1       1.0  0.2987351417541504  0.4910235106945038  0.5665648579597473  1.0000
  Pr  Pr2       1.0  0.579420268535614  0.07051660120487213  0.9518728256225586  1.0000
  S   S1        1.0  0.8876013159751893  0.6128554940223694  0.5159004926681519  1.0000
  Tb  Tb1       1.0  0.7901721000671387  0.6284656524658203  0.0628950372338295  1.0000
  Tb  Tb2       1.0  0.581099808216095  0.6980676054954529  0.4464480876922607  1.0000
