data_image0
_chemical_formula_structural       MnO7Rb2SSbTb2
_chemical_formula_sum              "Mn1 O7 Rb2 S1 Sb1 Tb2"
_cell_length_a       6.228830777736169
_cell_length_b       8.49598821467769
_cell_length_c       8.3633394241333
_cell_angle_alpha    121.48525544330171
_cell_angle_beta     89.96166918870706
_cell_angle_gamma    89.17619404484711

_space_group_name_H-M_alt    "P 1"
_space_group_IT_number       1

loop_
  _space_group_symop_operation_xyz
  'x, y, z'

loop_
  _atom_site_type_symbol
  _atom_site_label
  _atom_site_symmetry_multiplicity
  _atom_site_fract_x
  _atom_site_fract_y
  _atom_site_fract_z
  _atom_site_occupancy
  Mn  Mn1       1.0  0.30482423305511475  0.5190404057502747  0.46301615238189686  1.0000
  O   O1        1.0  0.5202640295028687  0.33509597182273865  0.6783066391944885  1.0000
  O   O2        1.0  0.7990232706069946  0.8751498460769652  0.0689591690897941  1.0000
  O   O3        1.0  0.8090125322341919  0.5171160697937012  0.01959290727972979  1.0000
  O   O4        1.0  0.3006909191608429  0.9328974485397338  0.05736605450510979  1.0000
  O   O5        1.0  0.1296798139810562  0.32291844487190247  0.02877021394670007  1.0000
  O   O6        1.0  0.776223361492157  0.2851886451244354  0.9594163298606873  1.0000
  O   O7        1.0  0.30085089802742004  0.8440570235252379  0.8856142759323119  1.0000
  Rb  Rb1       1.0  0.7983596920967102  0.39278197288513184  0.8744366168975829  1.0000
  Rb  Rb2       1.0  0.30459341406822205  0.12062067538499831  0.37737083435058594  1.0000
  S   S1        1.0  0.9982617497444153  0.8502261042594909  0.45864611864089955  1.0000
  Sb  Sb1       1.0  0.792586088180542  0.016323139891028404  0.30001044273376465  1.0000
  Tb  Tb1       1.0  0.027033235877752304  0.6608912944793701  0.4542857110500335  1.0000
  Tb  Tb2       1.0  0.8019074201583862  0.1285252422094345  0.7715215086936951  1.0000
