data_image0
_chemical_formula_structural       MnMoO7ReSSbTb2
_chemical_formula_sum              "Mn1 Mo1 O7 Re1 S1 Sb1 Tb2"
_cell_length_a       6.122314203396962
_cell_length_b       7.768520584286228
_cell_length_c       7.692058563232422
_cell_angle_alpha    120.50495929382022
_cell_angle_beta     88.98302028992349
_cell_angle_gamma    89.97462038956184

_space_group_name_H-M_alt    "P 1"
_space_group_IT_number       1

loop_
  _space_group_symop_operation_xyz
  'x, y, z'

loop_
  _atom_site_type_symbol
  _atom_site_label
  _atom_site_symmetry_multiplicity
  _atom_site_fract_x
  _atom_site_fract_y
  _atom_site_fract_z
  _atom_site_occupancy
  Mn  Mn1       1.0  0.34756702184677124  0.8515998125076294  0.6658010482788086  1.0000
  Mo  Mo1       1.0  0.8438913226127626  0.8481842279434204  0.8768379092216492  1.0000
  O   O1        1.0  0.48027044534683233  0.3053234815597534  0.40032586455345154  1.0000
  O   O2        1.0  0.9103853106498719  0.0985022708773613  0.7823080420494078  1.0000
  O   O3        1.0  0.8648748993873597  0.44469064474105835  0.042033616453409195  1.0000
  O   O4        1.0  0.9119887351989747  0.25120535492897034  0.6610924005508423  1.0000
  O   O5        1.0  0.3841273188591004  0.6133193373680115  0.8501135706901549  1.0000
  O   O6        1.0  0.42918249964714056  0.610530436038971  0.9044797420501709  1.0000
  O   O7        1.0  0.8446074724197389  0.34454768896102905  0.2040419578552246  1.0000
  Re  Re1       1.0  0.8762980699539186  0.31388920545578003  0.3693697452545166  1.0000
  S   S1        1.0  0.5911309123039246  0.4387199878692627  0.42095452547073364  1.0000
  Sb  Sb1       1.0  0.6042874455451965  0.7912421822547913  0.36650362610816956  1.0000
  Tb  Tb1       1.0  0.09617511928081514  0.2654314339160919  0.46000850200653076  1.0000
  Tb  Tb2       1.0  0.3346664607524872  0.8473855257034302  0.026963282376527727  1.0000
