data_image0
_chemical_formula_structural       GeHI3PSb3YbZn
_chemical_formula_sum              "Ge1 H1 I3 P1 Sb3 Yb1 Zn1"
_cell_length_a       5.638854122058208
_cell_length_b       7.346823931210219
_cell_length_c       8.365964889526367
_cell_angle_alpha    110.40550219084454
_cell_angle_beta     89.65114257050021
_cell_angle_gamma    90.35793004774601

_space_group_name_H-M_alt    "P 1"
_space_group_IT_number       1

loop_
  _space_group_symop_operation_xyz
  'x, y, z'

loop_
  _atom_site_type_symbol
  _atom_site_label
  _atom_site_symmetry_multiplicity
  _atom_site_fract_x
  _atom_site_fract_y
  _atom_site_fract_z
  _atom_site_occupancy
  Ge  Ge1       1.0  0.24934843182563782  0.09680754691362381  0.08703102916479111  1.0000
  H   H1        1.0  0.7495396733283997  0.6078141927719116  0.01910438947379589  1.0000
  I   I1        1.0  0.7477394938468933  0.7263343334197998  0.17249277234077454  1.0000
  I   I2        1.0  0.2465968132019043  0.7217720746994019  0.5555930733680725  1.0000
  I   I3        1.0  0.24810227751731873  0.7745005488395691  0.29327043890953064  1.0000
  P   P1        1.0  0.7490254640579224  0.084612175822258  0.2831927239894867  1.0000
  Sb  Sb1       1.0  0.2483491152524948  0.18973204493522644  0.28980937600135803  1.0000
  Sb  Sb2       1.0  0.7524603009223938  0.9432676434516907  0.898108720779419  1.0000
  Sb  Sb3       1.0  0.74891597032547  0.263096421957016  0.67051762342453  1.0000
  Yb  Yb1       1.0  0.24856312572956085  0.45812660455703735  0.807230770587921  1.0000
  Zn  Zn1       1.0  0.7519000768661499  0.5123497843742371  0.9250122308731079  1.0000
