data_image0
_chemical_formula_structural       HI2Ir2Pr2SbTaZnZr
_chemical_formula_sum              "H1 I2 Ir2 Pr2 Sb1 Ta1 Zn1 Zr1"
_cell_length_a       5.869413771589933
_cell_length_b       7.318730895896199
_cell_length_c       7.8343586921691895
_cell_angle_alpha    121.29846880704864
_cell_angle_beta     90.76836754336604
_cell_angle_gamma    88.91555691063232

_space_group_name_H-M_alt    "P 1"
_space_group_IT_number       1

loop_
  _space_group_symop_operation_xyz
  'x, y, z'

loop_
  _atom_site_type_symbol
  _atom_site_label
  _atom_site_symmetry_multiplicity
  _atom_site_fract_x
  _atom_site_fract_y
  _atom_site_fract_z
  _atom_site_occupancy
  H   H1        1.0  0.906077742576599  0.42739343643188477  0.02485642582178116  1.0000
  I   I1        1.0  0.9093675613403319  0.47374841570854187  0.5891456604003906  1.0000
  I   I2        1.0  0.4085524678230285  0.5683277249336243  0.20253515243530273  1.0000
  Ir  Ir1       1.0  0.41257733106613154  0.530592679977417  0.9550788998603821  1.0000
  Ir  Ir2       1.0  0.9118388891220092  0.924923837184906  0.16923855245113367  1.0000
  Pr  Pr1       1.0  0.9088559746742247  0.29182857275009155  0.5826349258422852  1.0000
  Pr  Pr2       1.0  0.9119327068328856  0.6211804151535034  0.2072860300540924  1.0000
  Sb  Sb1       1.0  0.4080813527107238  0.41037285327911377  0.28754180669784546  1.0000
  Ta  Ta1       1.0  0.9277899861335753  0.9336134195327759  0.8150259852409363  1.0000
  Zn  Zn1       1.0  0.4068119525909423  0.9328791499137878  0.1961895078420639  1.0000
  Zr  Zr1       1.0  0.9361649751663207  0.6849989295005798  0.09611835330724716  1.0000
