data_image0
_chemical_formula_structural       InIr2PdPr2Sb5
_chemical_formula_sum              "In1 Ir2 Pd1 Pr2 Sb5"
_cell_length_a       6.358968601049783
_cell_length_b       5.967135149764436
_cell_length_c       7.198767185211182
_cell_angle_alpha    114.23400270428887
_cell_angle_beta     110.66323883378277
_cell_angle_gamma    99.59378632441108

_space_group_name_H-M_alt    "P 1"
_space_group_IT_number       1

loop_
  _space_group_symop_operation_xyz
  'x, y, z'

loop_
  _atom_site_type_symbol
  _atom_site_label
  _atom_site_symmetry_multiplicity
  _atom_site_fract_x
  _atom_site_fract_y
  _atom_site_fract_z
  _atom_site_occupancy
  In  In1       1.0  0.835487961769104  0.3150331377983093  0.05959661677479744  1.0000
  Ir  Ir1       1.0  0.5392330884933472  0.5697116851806641  0.2264789491891861  1.0000
  Ir  Ir2       1.0  0.24154548346996305  0.8508298397064209  0.5296754240989685  1.0000
  Pd  Pd1       1.0  0.5165234208106995  0.6568136811256409  0.6887073516845703  1.0000
  Pr  Pr1       1.0  0.24642570316791532  0.3654913306236267  0.512021541595459  1.0000
  Pr  Pr2       1.0  0.9997967481613158  0.23627646267414093  0.9886051416397095  1.0000
  Sb  Sb1       1.0  0.538962721824646  0.3758622407913208  0.1492737978696823  1.0000
  Sb  Sb2       1.0  0.9715803861618041  0.26881277561187744  0.5121928453445435  1.0000
  Sb  Sb3       1.0  0.5295444130897522  0.09187527000904083  0.07021909952163696  1.0000
  Sb  Sb4       1.0  0.04648058488965036  0.4941253066062928  0.3166796863079071  1.0000
  Sb  Sb5       1.0  0.006265684496611357  0.28836047649383545  0.28390252590179443  1.0000
