data_image0
_chemical_formula_structural       IIr2PdPrRhSb5
_chemical_formula_sum              "I1 Ir2 Pd1 Pr1 Rh1 Sb5"
_cell_length_a       5.648422806278203
_cell_length_b       6.26848871801846
_cell_length_c       6.65784215927124
_cell_angle_alpha    70.2529580157604
_cell_angle_beta     56.389767760280435
_cell_angle_gamma    48.60078193163861

_space_group_name_H-M_alt    "P 1"
_space_group_IT_number       1

loop_
  _space_group_symop_operation_xyz
  'x, y, z'

loop_
  _atom_site_type_symbol
  _atom_site_label
  _atom_site_symmetry_multiplicity
  _atom_site_fract_x
  _atom_site_fract_y
  _atom_site_fract_z
  _atom_site_occupancy
  I   I1        1.0  0.9333077669143676  0.25042200088500977  0.501305341720581  1.0000
  Ir  Ir1       1.0  0.1850297451019287  0.17492185533046722  0.8905044198036194  1.0000
  Ir  Ir2       1.0  0.3864845931529999  0.48182252049446106  0.618903636932373  1.0000
  Pd  Pd1       1.0  0.4145525395870209  0.9902584552764893  0.7064006328582764  1.0000
  Pr  Pr1       1.0  0.8766494393348694  0.4172660708427429  0.3531147837638854  1.0000
  Rh  Rh1       1.0  0.06182239949703216  0.13465484976768494  0.03477132320404051  1.0000
  Sb  Sb1       1.0  0.8886160254478453  0.21349406242370605  0.9750300645828246  1.0000
  Sb  Sb2       1.0  0.4310443103313446  0.9746733903884888  0.6911081671714783  1.0000
  Sb  Sb3       1.0  0.7227951884269714  0.3249415159225464  0.2975085973739623  1.0000
  Sb  Sb4       1.0  0.38090887665748596  0.4448900520801544  0.6130231022834778  1.0000
  Sb  Sb5       1.0  0.05467304214835167  0.6531755924224854  0.5027741193771362  1.0000
