data_image0
_chemical_formula_structural       CsH2I2InPr2Sb2Si
_chemical_formula_sum              "Cs1 H2 I2 In1 Pr2 Sb2 Si1"
_cell_length_a       5.196795651165013
_cell_length_b       4.429682831404541
_cell_length_c       6.814898490905762
_cell_angle_alpha    119.97477350204339
_cell_angle_beta     106.04814854306927
_cell_angle_gamma    131.54243187599135

_space_group_name_H-M_alt    "P 1"
_space_group_IT_number       1

loop_
  _space_group_symop_operation_xyz
  'x, y, z'

loop_
  _atom_site_type_symbol
  _atom_site_label
  _atom_site_symmetry_multiplicity
  _atom_site_fract_x
  _atom_site_fract_y
  _atom_site_fract_z
  _atom_site_occupancy
  Cs  Cs1       1.0  0.2931211292743681  0.4412737786769865  0.5789040327072142  1.0000
  H   H1        1.0  0.9518027901649475  0.12015694379806517  0.04330436140298843  1.0000
  H   H2        1.0  0.7681731581687926  0.5075276494026182  0.7122431397438048  1.0000
  I   I1        1.0  0.3269015550613403  0.022018903866410183  0.9754350781440735  1.0000
  I   I2        1.0  0.7607257962226868  0.17122344672679896  0.7133650183677673  1.0000
  In  In1       1.0  0.8314626812934874  0.6032250523567197  0.9600210785865783  1.0000
  Pr  Pr1       1.0  0.7939084768295287  0.0516708493232725  0.7153006196022033  1.0000
  Pr  Pr2       1.0  0.29484137892723067  0.9249986410140989  0.8083665370941161  1.0000
  Sb  Sb1       1.0  0.7808467149734496  0.7673140764236448  0.40134766697883595  1.0000
  Sb  Sb2       1.0  0.5848231911659241  0.9847767353057861  0.4032303094863891  1.0000
  Si  Si1       1.0  0.36703318357467635  0.609917104244232  0.7563397288322448  1.0000
