data_image0
_chemical_formula_structural       HI3IrPPr3SbZr
_chemical_formula_sum              "H1 I3 Ir1 P1 Pr3 Sb1 Zr1"
_cell_length_a       5.975870285329571
_cell_length_b       7.118771924037277
_cell_length_c       8.224048614501953
_cell_angle_alpha    116.01636293711695
_cell_angle_beta     93.25421005116665
_cell_angle_gamma    105.76105321812814

_space_group_name_H-M_alt    "P 1"
_space_group_IT_number       1

loop_
  _space_group_symop_operation_xyz
  'x, y, z'

loop_
  _atom_site_type_symbol
  _atom_site_label
  _atom_site_symmetry_multiplicity
  _atom_site_fract_x
  _atom_site_fract_y
  _atom_site_fract_z
  _atom_site_occupancy
  H   H1        1.0  0.7661720514297484  0.18305148184299466  0.7566363215446472  1.0000
  I   I1        1.0  0.7674632668495177  0.024072363972663876  0.6391152739524841  1.0000
  I   I2        1.0  0.7600508928298949  0.7188872098922728  0.18653851747512806  1.0000
  I   I3        1.0  0.776967942714691  0.2657497227191925  0.8857101202011108  1.0000
  Ir  Ir1       1.0  0.267518013715744  0.4712033867835998  0.38974753022193903  1.0000
  P   P1        1.0  0.4048715531826019  0.7422844767570494  0.9607546925544739  1.0000
  Pr  Pr1       1.0  0.2635935544967651  0.843480348587036  0.47036188840866083  1.0000
  Pr  Pr2       1.0  0.5143182277679443  0.13463690876960754  0.9374993443489075  1.0000
  Pr  Pr3       1.0  0.2445956766605377  0.22421833872795102  0.9140093922615051  1.0000
  Sb  Sb1       1.0  0.9089757800102233  0.3516390323638916  0.9704139828681946  1.0000
  Zr  Zr1       1.0  0.8034908175468444  0.5293399691581726  0.41812449693679804  1.0000
