data_image0
_chemical_formula_structural       GeSn3TeZn4
_chemical_formula_sum              "Ge1 Sn3 Te1 Zn4"
_cell_length_a       4.904050950035247
_cell_length_b       4.9401052049336
_cell_length_c       11.417917251586914
_cell_angle_alpha    89.5394794737384
_cell_angle_beta     89.65332499124605
_cell_angle_gamma    109.23636122312536

_space_group_name_H-M_alt    "P 1"
_space_group_IT_number       1

loop_
  _space_group_symop_operation_xyz
  'x, y, z'

loop_
  _atom_site_type_symbol
  _atom_site_label
  _atom_site_symmetry_multiplicity
  _atom_site_fract_x
  _atom_site_fract_y
  _atom_site_fract_z
  _atom_site_occupancy
  Ge  Ge1       1.0  0.3337247669696808  0.9195830821990967  0.44437068700790405  1.0000
  Sn  Sn1       1.0  0.6423267126083374  0.9894410967826843  0.29259103536605835  1.0000
  Sn  Sn2       1.0  0.9693045616149902  0.9819465279579163  0.056193556636571884  1.0000
  Sn  Sn3       1.0  0.9678793549537659  0.643016517162323  0.9835366010665892  1.0000
  Te  Te1       1.0  0.6575254201889038  0.4179033935070038  0.5504611134529114  1.0000
  Zn  Zn1       1.0  0.3381529748439789  0.4209173917770386  0.0535680390894413  1.0000
  Zn  Zn2       1.0  0.0760195180773735  0.41502565145492554  0.5565147995948792  1.0000
  Zn  Zn3       1.0  0.9829609394073486  0.3081265687942505  0.4438038766384125  1.0000
  Zn  Zn4       1.0  0.31212317943573  0.9113811254501343  0.8769817352294922  1.0000
