data_image0
_chemical_formula_structural       GeSn3TeZn3Zr
_chemical_formula_sum              "Ge1 Sn3 Te1 Zn3 Zr1"
_cell_length_a       5.5015414250404175
_cell_length_b       5.568175286197011
_cell_length_c       11.645750045776367
_cell_angle_alpha    93.13583682580276
_cell_angle_beta     89.53217028855094
_cell_angle_gamma    102.85946739414014

_space_group_name_H-M_alt    "P 1"
_space_group_IT_number       1

loop_
  _space_group_symop_operation_xyz
  'x, y, z'

loop_
  _atom_site_type_symbol
  _atom_site_label
  _atom_site_symmetry_multiplicity
  _atom_site_fract_x
  _atom_site_fract_y
  _atom_site_fract_z
  _atom_site_occupancy
  Ge  Ge1       1.0  0.18545590341091156  0.7886993288993835  0.3138243854045868  1.0000
  Sn  Sn1       1.0  0.8611266016960144  0.513303279876709  0.5284967422485352  1.0000
  Sn  Sn2       1.0  0.4369194805622101  0.7095440030097961  0.02624068781733513  1.0000
  Sn  Sn3       1.0  0.48141011595726013  0.4249987304210663  0.5255858302116394  1.0000
  Te  Te1       1.0  0.6868126392364502  0.7875024080276489  0.326240599155426  1.0000
  Zn  Zn1       1.0  0.3450814187526703  0.01917690597474575  0.8206363320350647  1.0000
  Zn  Zn2       1.0  0.860550582408905  0.4809742271900177  0.990476906299591  1.0000
  Zn  Zn3       1.0  0.3435980975627899  0.1786317229270935  0.8208590149879456  1.0000
  Zr  Zr1       1.0  0.16802391409873962  0.008610855787992477  0.005079865455627441  1.0000
