data_image0
_chemical_formula_structural       Sn4Te2Zn3
_chemical_formula_sum              "Sn4 Te2 Zn3"
_cell_length_a       5.340185092202356
_cell_length_b       5.8086953532501715
_cell_length_c       11.70547866821289
_cell_angle_alpha    91.0001326889152
_cell_angle_beta     91.2357880902713
_cell_angle_gamma    94.87709311570572

_space_group_name_H-M_alt    "P 1"
_space_group_IT_number       1

loop_
  _space_group_symop_operation_xyz
  'x, y, z'

loop_
  _atom_site_type_symbol
  _atom_site_label
  _atom_site_symmetry_multiplicity
  _atom_site_fract_x
  _atom_site_fract_y
  _atom_site_fract_z
  _atom_site_occupancy
  Sn  Sn1       1.0  0.376592218875885  0.8693731427192688  0.12899249792099  1.0000
  Sn  Sn2       1.0  0.7842601537704468  0.861378014087677  0.4372828900814056  1.0000
  Sn  Sn3       1.0  0.3768646717071533  0.5981845259666443  0.3197009861469269  1.0000
  Sn  Sn4       1.0  0.8024948239326477  0.5990648865699768  0.1164000630378723  1.0000
  Te  Te1       1.0  0.38256940245628357  0.09963659942150116  0.831481397151947  1.0000
  Te  Te2       1.0  0.30695369839668274  0.3535614311695099  0.48989522457122797  1.0000
  Zn  Zn1       1.0  0.03862474486231804  0.4385788142681122  0.2418076395988464  1.0000
  Zn  Zn2       1.0  0.2965396046638489  0.9743348956108093  0.2430760562419891  1.0000
  Zn  Zn3       1.0  0.7820298671722412  0.37621980905532837  0.35517606139183044  1.0000
