data_image0
_chemical_formula_structural       Sn4Te2Zn3
_chemical_formula_sum              "Sn4 Te2 Zn3"
_cell_length_a       4.883397806562321
_cell_length_b       5.921153919966011
_cell_length_c       10.761852264404297
_cell_angle_alpha    103.53280341798529
_cell_angle_beta     91.48108681992626
_cell_angle_gamma    89.77962637633748

_space_group_name_H-M_alt    "P 1"
_space_group_IT_number       1

loop_
  _space_group_symop_operation_xyz
  'x, y, z'

loop_
  _atom_site_type_symbol
  _atom_site_label
  _atom_site_symmetry_multiplicity
  _atom_site_fract_x
  _atom_site_fract_y
  _atom_site_fract_z
  _atom_site_occupancy
  Sn  Sn1       1.0  0.7770950198173523  0.0182206891477108  0.1928182691335678  1.0000
  Sn  Sn2       1.0  0.7896633148193359  0.05548792704939842  0.5135493278503418  1.0000
  Sn  Sn3       1.0  0.7719085812568665  0.9133805632591248  0.005082332063466331  1.0000
  Sn  Sn4       1.0  0.29996007680892944  0.4011875092983246  0.8420019149780273  1.0000
  Te  Te1       1.0  0.27661022543907166  0.517012894153595  0.5453867316246033  1.0000
  Te  Te2       1.0  0.28664806485176086  0.5364047288894653  0.006284529343247424  1.0000
  Zn  Zn1       1.0  0.26776358485221863  0.4262121021747589  0.08563914149999619  1.0000
  Zn  Zn2       1.0  0.7840631008148193  0.3163720369338989  0.006555068772286177  1.0000
  Zn  Zn3       1.0  0.2897225320339203  0.5171067714691162  0.3497764766216278  1.0000
