data_image0
_chemical_formula_structural       AuSn5Te2Zn
_chemical_formula_sum              "Au1 Sn5 Te2 Zn1"
_cell_length_a       5.35841568026944
_cell_length_b       6.0217157034220214
_cell_length_c       11.654618263244629
_cell_angle_alpha    95.36546638223092
_cell_angle_beta     92.4881231901884
_cell_angle_gamma    91.64967380111575

_space_group_name_H-M_alt    "P 1"
_space_group_IT_number       1

loop_
  _space_group_symop_operation_xyz
  'x, y, z'

loop_
  _atom_site_type_symbol
  _atom_site_label
  _atom_site_symmetry_multiplicity
  _atom_site_fract_x
  _atom_site_fract_y
  _atom_site_fract_z
  _atom_site_occupancy
  Au  Au1       1.0  0.2958696186542511  0.3052861988544464  0.7517034411430359  1.0000
  Sn  Sn1       1.0  0.5157377123832703  0.9409238696098328  0.14808514714241028  1.0000
  Sn  Sn2       1.0  0.8067955374717712  0.1409951150417328  0.9996256232261658  1.0000
  Sn  Sn3       1.0  0.25937485694885254  0.6415176391601562  0.6338430643081665  1.0000
  Sn  Sn4       1.0  0.9130385518074036  0.10548070818185806  0.411681592464447  1.0000
  Sn  Sn5       1.0  0.4139021635055542  0.5738679766654968  0.4088228940963745  1.0000
  Te  Te1       1.0  0.7443677186965942  0.6027497053146362  0.08002439886331558  1.0000
  Te  Te2       1.0  0.19775933027267456  0.0996224507689476  0.8447292447090149  1.0000
  Zn  Zn1       1.0  0.7071190476417542  0.6123613715171814  0.6571415662765503  1.0000
