data_image0
_chemical_formula_structural       Sn5Te3Zn
_chemical_formula_sum              "Sn5 Te3 Zn1"
_cell_length_a       5.15952076533916
_cell_length_b       5.462721681137295
_cell_length_c       10.713238716125488
_cell_angle_alpha    90.3903527300179
_cell_angle_beta     89.9209741005948
_cell_angle_gamma    89.87655032195856

_space_group_name_H-M_alt    "P 1"
_space_group_IT_number       1

loop_
  _space_group_symop_operation_xyz
  'x, y, z'

loop_
  _atom_site_type_symbol
  _atom_site_label
  _atom_site_symmetry_multiplicity
  _atom_site_fract_x
  _atom_site_fract_y
  _atom_site_fract_z
  _atom_site_occupancy
  Sn  Sn1       1.0  0.5632967352867126  0.8254019021987915  0.14422883093357086  1.0000
  Sn  Sn2       1.0  0.05858074501156807  0.6610226631164551  0.3448414206504822  1.0000
  Sn  Sn3       1.0  0.5646750330924988  0.4536343514919281  0.9201864004135132  1.0000
  Sn  Sn4       1.0  0.5688487887382507  0.4196523427963257  0.6509832143783569  1.0000
  Sn  Sn5       1.0  0.06818848848342896  0.6580616235733032  0.13880182802677155  1.0000
  Te  Te1       1.0  0.06802237033843994  0.4034598171710968  0.6440797448158264  1.0000
  Te  Te2       1.0  0.06978612393140793  0.6627465486526489  0.6434041261672974  1.0000
  Te  Te3       1.0  0.5670861601829529  0.14404304325580597  0.144931361079216  1.0000
  Zn  Zn1       1.0  0.056170448660850525  0.16437695920467377  0.9473883509635925  1.0000
