data_image0
_chemical_formula_structural       Ho3RhSSi4
_chemical_formula_sum              "Ho3 Rh1 S1 Si4"
_cell_length_a       4.191240227454171
_cell_length_b       4.838168994427372
_cell_length_c       6.623595714569092
_cell_angle_alpha    112.85864327415757
_cell_angle_beta     107.29805513698646
_cell_angle_gamma    88.8243095029365

_space_group_name_H-M_alt    "P 1"
_space_group_IT_number       1

loop_
  _space_group_symop_operation_xyz
  'x, y, z'

loop_
  _atom_site_type_symbol
  _atom_site_label
  _atom_site_symmetry_multiplicity
  _atom_site_fract_x
  _atom_site_fract_y
  _atom_site_fract_z
  _atom_site_occupancy
  Ho  Ho1       1.0  0.844424307346344  0.8390370011329651  0.8091385960578918  1.0000
  Ho  Ho2       1.0  0.4189503788948059  0.36291176080703735  0.8881191611289978  1.0000
  Ho  Ho3       1.0  0.3803139328956604  0.7423543334007263  0.5412546992301941  1.0000
  Rh  Rh1       1.0  0.881581723690033  0.09624554961919785  0.8494912981987  1.0000
  S   S1        1.0  0.7250134348869324  0.6990028619766235  0.08696332573890686  1.0000
  Si  Si1       1.0  0.38559842109680176  0.5559747219085693  0.8371582627296448  1.0000
  Si  Si2       1.0  0.3977508544921875  0.6523836851119995  0.8262032270431519  1.0000
  Si  Si3       1.0  0.973430335521698  0.5860458612442017  0.04217573255300522  1.0000
  Si  Si4       1.0  0.1416197419166565  0.23383672535419464  0.34713515639305115  1.0000
