data_image0
_chemical_formula_structural       Ho3RhSi5
_chemical_formula_sum              "Ho3 Rh1 Si5"
_cell_length_a       4.450999355375757
_cell_length_b       5.18367801995331
_cell_length_c       7.416588306427002
_cell_angle_alpha    109.19521215049011
_cell_angle_beta     105.45041348245341
_cell_angle_gamma    88.91881693399483

_space_group_name_H-M_alt    "P 1"
_space_group_IT_number       1

loop_
  _space_group_symop_operation_xyz
  'x, y, z'

loop_
  _atom_site_type_symbol
  _atom_site_label
  _atom_site_symmetry_multiplicity
  _atom_site_fract_x
  _atom_site_fract_y
  _atom_site_fract_z
  _atom_site_occupancy
  Ho  Ho1       1.0  0.8825795650482178  0.3223162889480591  0.04616015776991845  1.0000
  Ho  Ho2       1.0  0.8657975792884827  0.527207612991333  0.040366753935813904  1.0000
  Ho  Ho3       1.0  0.12420040369033813  0.5200780630111694  0.647496223449707  1.0000
  Rh  Rh1       1.0  0.2455071359872818  0.29541870951652527  0.3283539116382599  1.0000
  Si  Si1       1.0  0.7625357508659363  0.7171592712402344  0.24517193436622622  1.0000
  Si  Si2       1.0  0.4407537877559662  0.6528511047363281  0.8563145399093629  1.0000
  Si  Si3       1.0  0.466948926448822  0.9160739183425903  0.29262208938598633  1.0000
  Si  Si4       1.0  0.11223308742046356  0.0657086968421936  0.09719316661357881  1.0000
  Si  Si5       1.0  0.6534424424171448  0.8064180612564087  0.10464136302471162  1.0000
