data_image0
_chemical_formula_structural       HoRhSi7
_chemical_formula_sum              "Ho1 Rh1 Si7"
_cell_length_a       4.259349712417783
_cell_length_b       5.472377315698679
_cell_length_c       7.751474857330322
_cell_angle_alpha    103.5468400312754
_cell_angle_beta     105.26234437177646
_cell_angle_gamma    88.31855976933093

_space_group_name_H-M_alt    "P 1"
_space_group_IT_number       1

loop_
  _space_group_symop_operation_xyz
  'x, y, z'

loop_
  _atom_site_type_symbol
  _atom_site_label
  _atom_site_symmetry_multiplicity
  _atom_site_fract_x
  _atom_site_fract_y
  _atom_site_fract_z
  _atom_site_occupancy
  Ho  Ho1       1.0  0.2553251087665558  0.7623401880264282  0.027476133778691295  1.0000
  Rh  Rh1       1.0  0.7685770988464355  0.7905232906341553  0.8479754328727723  1.0000
  Si  Si1       1.0  0.31319135427474976  0.723904013633728  0.4555695056915284  1.0000
  Si  Si2       1.0  0.040248796343803406  0.26000380516052246  0.3383483290672302  1.0000
  Si  Si3       1.0  0.6367387771606445  0.22699911892414093  0.6664659380912781  1.0000
  Si  Si4       1.0  0.9829694032669067  0.45784637331962585  0.774760365486145  1.0000
  Si  Si5       1.0  0.6421599388122559  0.21845699846744537  0.5296763181686401  1.0000
  Si  Si6       1.0  0.9940288662910461  0.9906556010246277  0.27457746863365173  1.0000
  Si  Si7       1.0  0.47326937317848206  0.16429206728935242  0.25460880994796753  1.0000
