data_image0
_chemical_formula_structural       Ho3Rh2RuSSi2
_chemical_formula_sum              "Ho3 Rh2 Ru1 S1 Si2"
_cell_length_a       4.409338943456056
_cell_length_b       5.31079404279871
_cell_length_c       7.653602600097656
_cell_angle_alpha    110.2347975835031
_cell_angle_beta     102.48510162095637
_cell_angle_gamma    87.8389578094996

_space_group_name_H-M_alt    "P 1"
_space_group_IT_number       1

loop_
  _space_group_symop_operation_xyz
  'x, y, z'

loop_
  _atom_site_type_symbol
  _atom_site_label
  _atom_site_symmetry_multiplicity
  _atom_site_fract_x
  _atom_site_fract_y
  _atom_site_fract_z
  _atom_site_occupancy
  Ho  Ho1       1.0  0.08531522750854492  0.3480639159679413  0.730480432510376  1.0000
  Ho  Ho2       1.0  0.5722355246543884  0.7831084728240967  0.6492528319358826  1.0000
  Ho  Ho3       1.0  0.7268991470336914  0.3445909023284912  0.26599612832069397  1.0000
  Rh  Rh1       1.0  0.2986072897911072  0.8125629425048828  0.1596962064504623  1.0000
  Rh  Rh2       1.0  0.8203014135360718  0.3144576847553253  0.7947207093238831  1.0000
  Ru  Ru1       1.0  0.3190554678440094  0.32083436846733093  0.9498308897018433  1.0000
  S   S1        1.0  0.5070208311080933  0.08805229514837265  0.6465438604354858  1.0000
  Si  Si1       1.0  0.6208826899528503  0.6773925423622131  0.5265700817108154  1.0000
  Si  Si2       1.0  0.8399450182914734  0.04885680601000786  0.6818534135818481  1.0000
