data_image0
_chemical_formula_structural       Rh2Si7
_chemical_formula_sum              "Rh2 Si7"
_cell_length_a       4.40517084441121
_cell_length_b       4.817289949957545
_cell_length_c       7.4197893142700195
_cell_angle_alpha    113.53133159839479
_cell_angle_beta     89.52471796888274
_cell_angle_gamma    89.21677205239915

_space_group_name_H-M_alt    "P 1"
_space_group_IT_number       1

loop_
  _space_group_symop_operation_xyz
  'x, y, z'

loop_
  _atom_site_type_symbol
  _atom_site_label
  _atom_site_symmetry_multiplicity
  _atom_site_fract_x
  _atom_site_fract_y
  _atom_site_fract_z
  _atom_site_occupancy
  Rh  Rh1       1.0  0.12912939488887787  0.5657710433006287  0.20287981629371643  1.0000
  Rh  Rh2       1.0  0.1572805494070053  0.41749197244644165  0.5069589018821716  1.0000
  Si  Si1       1.0  0.14951203763484955  0.9883963465690613  0.7888479232788086  1.0000
  Si  Si2       1.0  0.17775750160217285  0.5931141376495361  0.9681599140167236  1.0000
  Si  Si3       1.0  0.6499212980270386  0.641647458076477  0.5391680002212524  1.0000
  Si  Si4       1.0  0.1546337604522705  0.9815913438796997  0.4371696412563324  1.0000
  Si  Si5       1.0  0.17548635601997375  0.45118850469589233  0.44251337647438055  1.0000
  Si  Si6       1.0  0.6518083214759827  0.1214582696557045  0.026663370430469513  1.0000
  Si  Si7       1.0  0.6528783440589905  0.03620639443397522  0.82243812084198  1.0000
