data_image0
_chemical_formula_structural       RhSi8
_chemical_formula_sum              "Rh1 Si8"
_cell_length_a       4.468689419171641
_cell_length_b       4.663531101806939
_cell_length_c       6.856199264526367
_cell_angle_alpha    112.86125347113797
_cell_angle_beta     105.9805832116475
_cell_angle_gamma    90.88682771639708

_space_group_name_H-M_alt    "P 1"
_space_group_IT_number       1

loop_
  _space_group_symop_operation_xyz
  'x, y, z'

loop_
  _atom_site_type_symbol
  _atom_site_label
  _atom_site_symmetry_multiplicity
  _atom_site_fract_x
  _atom_site_fract_y
  _atom_site_fract_z
  _atom_site_occupancy
  Rh  Rh1       1.0  0.6696737408638  0.05430604889988899  0.8603124022483826  1.0000
  Si  Si1       1.0  0.8908411860466003  0.28772029280662537  0.10734761506319046  1.0000
  Si  Si2       1.0  0.19405385851860046  0.042206816375255585  0.6103197932243347  1.0000
  Si  Si3       1.0  0.42752429842948914  0.2963985502719879  0.24891066551208496  1.0000
  Si  Si4       1.0  0.6514173746109009  0.8578174710273743  0.8447827100753784  1.0000
  Si  Si5       1.0  0.14716379344463348  0.7718708515167236  0.35071685910224915  1.0000
  Si  Si6       1.0  0.14379532635211945  0.6239660978317261  0.08084237575531006  1.0000
  Si  Si7       1.0  0.39661169052124023  0.29588350653648376  0.8577350378036499  1.0000
  Si  Si8       1.0  0.7167404890060425  0.5337100028991699  0.35346755385398865  1.0000
