data_image0
_chemical_formula_structural       Ca5Ge5Si
_chemical_formula_sum              "Ca5 Ge5 Si1"
_cell_length_a       5.635456622781215
_cell_length_b       8.672765359009302
_cell_length_c       9.707487106323242
_cell_angle_alpha    121.91584892176904
_cell_angle_beta     89.07020874439797
_cell_angle_gamma    90.21212655010451

_space_group_name_H-M_alt    "P 1"
_space_group_IT_number       1

loop_
  _space_group_symop_operation_xyz
  'x, y, z'

loop_
  _atom_site_type_symbol
  _atom_site_label
  _atom_site_symmetry_multiplicity
  _atom_site_fract_x
  _atom_site_fract_y
  _atom_site_fract_z
  _atom_site_occupancy
  Ca  Ca1       1.0  0.3907521367073059  0.1897682547569275  0.6299299597740173  1.0000
  Ca  Ca2       1.0  0.8879787921905518  0.3280383050441742  0.14549612998962402  1.0000
  Ca  Ca3       1.0  0.3893416225910187  0.8661828637123108  0.6391900181770325  1.0000
  Ca  Ca4       1.0  0.8958360552787781  0.783679187297821  0.8816736340522766  1.0000
  Ca  Ca5       1.0  0.3892805278301239  0.6650194525718689  0.6832485198974609  1.0000
  Ge  Ge1       1.0  0.39511436223983765  0.5108115673065186  0.6300966143608093  1.0000
  Ge  Ge2       1.0  0.9006235003471375  0.6642665266990662  0.9992244839668274  1.0000
  Ge  Ge3       1.0  0.3946346938610077  0.9234356880187988  0.14711709320545205  1.0000
  Ge  Ge4       1.0  0.8796947598457336  0.2263687402009964  0.1515100747346878  1.0000
  Ge  Ge5       1.0  0.39610737562179565  0.319160133600235  0.17251721024513245  1.0000
  Si  Si1       1.0  0.40225934982299805  0.5839905142784119  0.3624879717826844  1.0000
