data_image0
_chemical_formula_structural       Ca4Ge3NiSi3
_chemical_formula_sum              "Ca4 Ge3 Ni1 Si3"
_cell_length_a       5.127262114763409
_cell_length_b       7.904342566048102
_cell_length_c       8.104299545288086
_cell_angle_alpha    120.74155455900559
_cell_angle_beta     89.23796830930674
_cell_angle_gamma    89.62905000116763

_space_group_name_H-M_alt    "P 1"
_space_group_IT_number       1

loop_
  _space_group_symop_operation_xyz
  'x, y, z'

loop_
  _atom_site_type_symbol
  _atom_site_label
  _atom_site_symmetry_multiplicity
  _atom_site_fract_x
  _atom_site_fract_y
  _atom_site_fract_z
  _atom_site_occupancy
  Ca  Ca1       1.0  0.1453889012336731  0.101577527821064  0.6807025074958801  1.0000
  Ca  Ca2       1.0  0.6444090008735657  0.9771528244018555  0.29150930047035223  1.0000
  Ca  Ca3       1.0  0.6296577453613281  0.7847268581390381  0.2628226280212403  1.0000
  Ca  Ca4       1.0  0.39755940437316895  0.30500558018684387  0.03309223800897601  1.0000
  Ge  Ge1       1.0  0.14352111518383026  0.3756626546382904  0.38169828057289124  1.0000
  Ge  Ge2       1.0  0.651290237903595  0.39972972869873047  0.4918518364429474  1.0000
  Ge  Ge3       1.0  0.13834749162197113  0.8683169484138489  0.945068359375  1.0000
  Ni  Ni1       1.0  0.14598722755908966  0.5703604817390442  0.6092585325241089  1.0000
  Si  Si1       1.0  0.12915730476379395  0.5047556757926941  0.5632670521736145  1.0000
  Si  Si2       1.0  0.12722614407539368  0.8964998126029968  0.6445039510726929  1.0000
  Si  Si3       1.0  0.6352229118347168  0.7769726514816284  0.7841252684593201  1.0000
