data_image0
_chemical_formula_structural       AlCa6CeGe3
_chemical_formula_sum              "Al1 Ca6 Ce1 Ge3"
_cell_length_a       5.228142904045508
_cell_length_b       8.559901712644466
_cell_length_c       8.808733940124512
_cell_angle_alpha    120.5663745008109
_cell_angle_beta     89.1581998348106
_cell_angle_gamma    87.727040877734

_space_group_name_H-M_alt    "P 1"
_space_group_IT_number       1

loop_
  _space_group_symop_operation_xyz
  'x, y, z'

loop_
  _atom_site_type_symbol
  _atom_site_label
  _atom_site_symmetry_multiplicity
  _atom_site_fract_x
  _atom_site_fract_y
  _atom_site_fract_z
  _atom_site_occupancy
  Al  Al1       1.0  0.43154507875442505  0.5468829274177551  0.6526941657066345  1.0000
  Ca  Ca1       1.0  0.9425685405731201  0.5405539274215698  0.8987210392951965  1.0000
  Ca  Ca2       1.0  0.9463618397712708  0.5435383319854736  0.16803190112113958  1.0000
  Ca  Ca3       1.0  0.9463455677032471  0.01990223117172718  0.8975542187690735  1.0000
  Ca  Ca4       1.0  0.9461005330085754  0.6486572623252869  0.3048059344291688  1.0000
  Ca  Ca5       1.0  0.4472080171108246  0.5464219450950623  0.7206819653511048  1.0000
  Ca  Ca6       1.0  0.44855746626853943  0.22064182162284854  0.17646081745624545  1.0000
  Ce  Ce1       1.0  0.44672757387161255  0.5383583903312683  0.8848224878311157  1.0000
  Ge  Ge1       1.0  0.43878793716430664  0.27722397446632385  0.4132346510887146  1.0000
  Ge  Ge2       1.0  0.4453716278076172  0.03636627271771431  0.8147932887077332  1.0000
  Ge  Ge3       1.0  0.9470434784889221  0.7614335417747498  0.3354183435440064  1.0000
