data_image0
_chemical_formula_structural       Ca5Ge5Si
_chemical_formula_sum              "Ca5 Ge5 Si1"
_cell_length_a       5.155266705229133
_cell_length_b       7.947691425594852
_cell_length_c       8.534433364868164
_cell_angle_alpha    119.19492345861617
_cell_angle_beta     89.65246795030428
_cell_angle_gamma    89.05972686417574

_space_group_name_H-M_alt    "P 1"
_space_group_IT_number       1

loop_
  _space_group_symop_operation_xyz
  'x, y, z'

loop_
  _atom_site_type_symbol
  _atom_site_label
  _atom_site_symmetry_multiplicity
  _atom_site_fract_x
  _atom_site_fract_y
  _atom_site_fract_z
  _atom_site_occupancy
  Ca  Ca1       1.0  0.7248498201370239  0.8154539465904235  0.4734787046909332  1.0000
  Ca  Ca2       1.0  0.22533144056797028  0.8390190601348876  0.17520931363105768  1.0000
  Ca  Ca3       1.0  0.7259838581085205  0.5878061652183533  0.893524706363678  1.0000
  Ca  Ca4       1.0  0.7238615155220032  0.31897762417793274  0.7253481149673462  1.0000
  Ca  Ca5       1.0  0.2244129180908203  0.8337008953094481  0.6272855997085571  1.0000
  Ge  Ge1       1.0  0.7264404296875  0.13099126517772675  0.2382112741470337  1.0000
  Ge  Ge2       1.0  0.7195394039154053  0.34483519196510315  0.11217615008354187  1.0000
  Ge  Ge3       1.0  0.213147833943367  0.3012382984161377  0.5459098219871521  1.0000
  Ge  Ge4       1.0  0.2138868272304535  0.34135928750038147  0.7100583910942078  1.0000
  Ge  Ge5       1.0  0.7162468433380127  0.527115523815155  0.04449412226676941  1.0000
  Si  Si1       1.0  0.21201713383197784  0.8054047822952269  0.4828265905380249  1.0000
