data_image0
_chemical_formula_structural       Ca5Ge6
_chemical_formula_sum              "Ca5 Ge6"
_cell_length_a       4.460035323758963
_cell_length_b       8.224072987239786
_cell_length_c       8.436049461364746
_cell_angle_alpha    120.81266532381807
_cell_angle_beta     87.6629208913916
_cell_angle_gamma    88.83630804018497

_space_group_name_H-M_alt    "P 1"
_space_group_IT_number       1

loop_
  _space_group_symop_operation_xyz
  'x, y, z'

loop_
  _atom_site_type_symbol
  _atom_site_label
  _atom_site_symmetry_multiplicity
  _atom_site_fract_x
  _atom_site_fract_y
  _atom_site_fract_z
  _atom_site_occupancy
  Ca  Ca1       1.0  0.07582305371761322  0.623804211616516  0.8195540904998778  1.0000
  Ca  Ca2       1.0  0.0800253227353096  0.3426325619220733  0.3151933252811432  1.0000
  Ca  Ca3       1.0  0.5790342688560486  0.3818040788173675  0.3112580180168152  1.0000
  Ca  Ca4       1.0  0.5797613859176636  0.894286274909973  0.5365702509880066  1.0000
  Ca  Ca5       1.0  0.08027661591768266  0.9052523970603942  0.9488257765769958  1.0000
  Ge  Ge1       1.0  0.06901706010103226  0.6162092089653014  0.8173890709877014  1.0000
  Ge  Ge2       1.0  0.5805884003639221  0.806874930858612  0.15837612748146052  1.0000
  Ge  Ge3       1.0  0.569480299949646  0.39832532405853266  0.7863414287567139  1.0000
  Ge  Ge4       1.0  0.07863358408212662  0.27183547616004944  0.046522997319698334  1.0000
  Ge  Ge5       1.0  0.5790930390357971  0.15512132644653318  0.03105290792882441  1.0000
  Ge  Ge6       1.0  0.0748799592256546  0.6637507081031798  0.7016623020172119  1.0000
