data_image0
_chemical_formula_structural       Ca6CeGe4
_chemical_formula_sum              "Ca6 Ce1 Ge4"
_cell_length_a       5.536232445221088
_cell_length_b       7.792097881720362
_cell_length_c       8.048076629638672
_cell_angle_alpha    121.17966644525067
_cell_angle_beta     89.07992527563191
_cell_angle_gamma    89.56753789342882

_space_group_name_H-M_alt    "P 1"
_space_group_IT_number       1

loop_
  _space_group_symop_operation_xyz
  'x, y, z'

loop_
  _atom_site_type_symbol
  _atom_site_label
  _atom_site_symmetry_multiplicity
  _atom_site_fract_x
  _atom_site_fract_y
  _atom_site_fract_z
  _atom_site_occupancy
  Ca  Ca1       1.0  0.34108832478523254  0.07319126278162003  0.04447482898831367  1.0000
  Ca  Ca2       1.0  0.8369749784469604  0.6504163146018982  0.5435945987701416  1.0000
  Ca  Ca3       1.0  0.8401688933372498  0.5110062956809998  0.5251477360725403  1.0000
  Ca  Ca4       1.0  0.8364428281784058  0.3935163915157318  0.07197620719671247  1.0000
  Ca  Ca5       1.0  0.34491005539894104  0.8503260016441345  0.3899501562118529  1.0000
  Ca  Ca6       1.0  0.07202079147100449  0.8350042700767517  0.9046396017074584  1.0000
  Ce  Ce1       1.0  0.8330222964286804  0.40665072202682495  0.3160671591758728  1.0000
  Ge  Ge1       1.0  0.3350195586681366  0.14207687973976135  0.6603116393089294  1.0000
  Ge  Ge2       1.0  0.0712202936410904  0.9089958071708679  0.7901617288589478  1.0000
  Ge  Ge3       1.0  0.5798439383506775  0.407389372587204  0.412024587392807  1.0000
  Ge  Ge4       1.0  0.3289620876312256  0.9189078211784363  0.2924835085868835  1.0000
