data_image0
_chemical_formula_structural       BLa5NiPPb2S
_chemical_formula_sum              "B1 La5 Ni1 P1 Pb2 S1"
_cell_length_a       5.745026773769457
_cell_length_b       7.890443763903414
_cell_length_c       7.94886589050293
_cell_angle_alpha    116.29524646945977
_cell_angle_beta     90.5847185415482
_cell_angle_gamma    98.78708141336753

_space_group_name_H-M_alt    "P 1"
_space_group_IT_number       1

loop_
  _space_group_symop_operation_xyz
  'x, y, z'

loop_
  _atom_site_type_symbol
  _atom_site_label
  _atom_site_symmetry_multiplicity
  _atom_site_fract_x
  _atom_site_fract_y
  _atom_site_fract_z
  _atom_site_occupancy
  B   B1        1.0  0.41424721479415894  0.377655565738678  0.32822209596633917  1.0000
  La  La1       1.0  0.153225839138031  0.20066313445568085  0.6566181182861329  1.0000
  La  La2       1.0  0.684243381023407  0.8495820164680481  0.989545226097107  1.0000
  La  La3       1.0  0.14786413311958313  0.6294189691543579  0.7447489500045777  1.0000
  La  La4       1.0  0.16077890992164612  0.874086320400238  0.004379048012197018  1.0000
  La  La5       1.0  0.6535094380378723  0.8924180865287781  0.339356929063797  1.0000
  Ni  Ni1       1.0  0.18930482864379883  0.46361434459686285  0.14185956120491025  1.0000
  P   P1        1.0  0.9065929055213928  0.4281182885169983  0.16676233708858493  1.0000
  Pb  Pb1       1.0  0.1824313849210739  0.8693094849586487  0.4921158254146576  1.0000
  Pb  Pb2       1.0  0.6608736515045166  0.8082880973815918  0.6483826637268068  1.0000
  S   S1        1.0  0.1770348697900772  0.10020435601472855  0.19063693284988406  1.0000
