data_image0
_chemical_formula_structural       BBaLa3LuNi2PPbSi
_chemical_formula_sum              "B1 Ba1 La3 Lu1 Ni2 P1 Pb1 Si1"
_cell_length_a       5.2644208103332515
_cell_length_b       7.141241223404821
_cell_length_c       8.860753059387207
_cell_angle_alpha    112.1325661547843
_cell_angle_beta     105.62706542289398
_cell_angle_gamma    89.83490822819218

_space_group_name_H-M_alt    "P 1"
_space_group_IT_number       1

loop_
  _space_group_symop_operation_xyz
  'x, y, z'

loop_
  _atom_site_type_symbol
  _atom_site_label
  _atom_site_symmetry_multiplicity
  _atom_site_fract_x
  _atom_site_fract_y
  _atom_site_fract_z
  _atom_site_occupancy
  B   B1        1.0  0.160157710313797  0.5373347997665405  0.12545296549797058  1.0000
  Ba  Ba1       1.0  0.3816107511520386  0.03678451105952263  0.9254394173622131  1.0000
  La  La1       1.0  0.9222069382667542  0.8791891932487488  0.07539264857769012  1.0000
  La  La2       1.0  0.19299985468387604  0.4171742796897888  0.054051991552114514  1.0000
  La  La3       1.0  0.7065343856811523  0.512715756893158  0.3532532751560211  1.0000
  Lu  Lu1       1.0  0.7008951306343079  0.05619349330663681  0.8372822999954224  1.0000
  Ni  Ni1       1.0  0.915268063545227  0.3747754395008087  0.1498742550611496  1.0000
  Ni  Ni2       1.0  0.991799533367157  0.3715340495109558  0.04288770258426666  1.0000
  P   P1        1.0  0.514175534248352  0.053953636437654495  0.06816928088665009  1.0000
  Pb  Pb1       1.0  0.9907017350196838  0.9123021960258484  0.5267127752304077  1.0000
  Si  Si1       1.0  0.42514362931251526  0.5349591374397278  0.3844555914402008  1.0000
