data_image0
_chemical_formula_structural       BFeLa4Pb4Pr
_chemical_formula_sum              "B1 Fe1 La4 Pb4 Pr1"
_cell_length_a       3.850406488859978
_cell_length_b       5.7645524486163575
_cell_length_c       8.277836799621582
_cell_angle_alpha    116.52900622427373
_cell_angle_beta     81.3451918199062
_cell_angle_gamma    73.5200917536307

_space_group_name_H-M_alt    "P 1"
_space_group_IT_number       1

loop_
  _space_group_symop_operation_xyz
  'x, y, z'

loop_
  _atom_site_type_symbol
  _atom_site_label
  _atom_site_symmetry_multiplicity
  _atom_site_fract_x
  _atom_site_fract_y
  _atom_site_fract_z
  _atom_site_occupancy
  B   B1        1.0  0.8889616131782533  0.14712902903556824  0.2756823003292084  1.0000
  Fe  Fe1       1.0  0.887453317642212  0.32303494215011597  0.5325665473937988  1.0000
  La  La1       1.0  0.9150469303131105  0.6503720283508301  0.4239301085472107  1.0000
  La  La2       1.0  0.39816352725029  0.286769300699234  0.06385669857263565  1.0000
  La  La3       1.0  0.3907992243766785  0.2723003327846527  0.6208528876304626  1.0000
  La  La4       1.0  0.3931004703044892  0.32819509506225586  0.7098264694213867  1.0000
  Pb  Pb1       1.0  0.3899627029895783  0.7022548913955688  0.9894877076148987  1.0000
  Pb  Pb2       1.0  0.8948403596878053  0.14067783951759338  0.4575624167919159  1.0000
  Pb  Pb3       1.0  0.8519042730331422  0.3135897219181061  0.7749596834182739  1.0000
  Pb  Pb4       1.0  0.381688803434372  0.6861884593963623  0.21393541991710663  1.0000
  Pr  Pr1       1.0  0.3873522877693177  0.5634087920188904  0.7501252293586731  1.0000
