data_image0
_chemical_formula_structural       BLa5Ni2PPrS
_chemical_formula_sum              "B1 La5 Ni2 P1 Pr1 S1"
_cell_length_a       6.126156964302342
_cell_length_b       6.776020267330728
_cell_length_c       7.48013973236084
_cell_angle_alpha    118.55434533046811
_cell_angle_beta     112.48469335515317
_cell_angle_gamma    88.31237025089503

_space_group_name_H-M_alt    "P 1"
_space_group_IT_number       1

loop_
  _space_group_symop_operation_xyz
  'x, y, z'

loop_
  _atom_site_type_symbol
  _atom_site_label
  _atom_site_symmetry_multiplicity
  _atom_site_fract_x
  _atom_site_fract_y
  _atom_site_fract_z
  _atom_site_occupancy
  B   B1        1.0  0.36386343836784363  0.042677272111177444  0.013176621869206413  1.0000
  La  La1       1.0  0.9789216518402098  0.7716084718704225  0.8875247836112976  1.0000
  La  La2       1.0  0.9091574549674987  0.38125962018966675  0.25571373105049133  1.0000
  La  La3       1.0  0.19329409301280973  0.251941442489624  0.6633791327476501  1.0000
  La  La4       1.0  0.10763757675886157  0.9628456830978395  0.3676606416702271  1.0000
  La  La5       1.0  0.8911018967628478  0.39081057906150823  0.9592662453651428  1.0000
  Ni  Ni1       1.0  0.7319009900093078  0.17951726913452148  0.7081238031387329  1.0000
  Ni  Ni2       1.0  0.5116139650344849  0.8648294806480409  0.6620499491691589  1.0000
  P   P1        1.0  0.20937676727771756  0.18526813387870789  0.8099712133407593  1.0000
  Pr  Pr1       1.0  0.41174659132957453  0.41191565990448004  0.4359975755214691  1.0000
  S   S1        1.0  0.7134413719177246  0.9687231183052064  0.26589077711105347  1.0000
