data_image0
_chemical_formula_structural       B2La5Pb4
_chemical_formula_sum              "B2 La5 Pb4"
_cell_length_a       5.4884777487331196
_cell_length_b       7.517409652336637
_cell_length_c       8.999991416931152
_cell_angle_alpha    114.56445893065997
_cell_angle_beta     102.50181793179677
_cell_angle_gamma    89.49892009995841

_space_group_name_H-M_alt    "P 1"
_space_group_IT_number       1

loop_
  _space_group_symop_operation_xyz
  'x, y, z'

loop_
  _atom_site_type_symbol
  _atom_site_label
  _atom_site_symmetry_multiplicity
  _atom_site_fract_x
  _atom_site_fract_y
  _atom_site_fract_z
  _atom_site_occupancy
  B   B1        1.0  0.1374039649963379  0.1382719874382019  0.980721116065979  1.0000
  B   B2        1.0  0.19924871623516083  0.07235363125801086  0.7497302293777466  1.0000
  La  La1       1.0  0.6613893508911133  0.1552780270576477  0.5780422687530518  1.0000
  La  La2       1.0  0.15222226083278656  0.49873471260070806  0.28576189279556274  1.0000
  La  La3       1.0  0.6536923050880432  0.2566636800765991  0.3403076231479645  1.0000
  La  La4       1.0  0.1971435546875  0.08197450637817383  0.7597593665122986  1.0000
  La  La5       1.0  0.05618494749069215  0.45728361606597906  0.9006425738334656  1.0000
  Pb  Pb1       1.0  0.18058124184608462  0.9934668540954591  0.914969265460968  1.0000
  Pb  Pb2       1.0  0.6464115381240845  0.8045368790626526  0.31608974933624273  1.0000
  Pb  Pb3       1.0  0.42501428723335266  0.26339489221572876  0.7794188261032104  1.0000
  Pb  Pb4       1.0  0.6555860638618469  0.9879367947578431  0.49378827214241033  1.0000
