data_image0
_chemical_formula_structural       BLa5Ni2PPbS
_chemical_formula_sum              "B1 La5 Ni2 P1 Pb1 S1"
_cell_length_a       5.144666562717239
_cell_length_b       8.045448348127275
_cell_length_c       8.161283493041992
_cell_angle_alpha    120.01106979811449
_cell_angle_beta     94.6787616324055
_cell_angle_gamma    88.38822008237608

_space_group_name_H-M_alt    "P 1"
_space_group_IT_number       1

loop_
  _space_group_symop_operation_xyz
  'x, y, z'

loop_
  _atom_site_type_symbol
  _atom_site_label
  _atom_site_symmetry_multiplicity
  _atom_site_fract_x
  _atom_site_fract_y
  _atom_site_fract_z
  _atom_site_occupancy
  B   B1        1.0  0.6178320050239563  0.2873906195163727  0.21367743611335752  1.0000
  La  La1       1.0  0.6189370155334473  0.21935242414474487  0.7691782116889954  1.0000
  La  La2       1.0  0.12019792199134827  0.865547776222229  0.9340245723724365  1.0000
  La  La3       1.0  0.6185798048973083  0.4207335412502289  0.8352403044700623  1.0000
  La  La4       1.0  0.6246616244316101  0.7335814237594604  0.9815663695335388  1.0000
  La  La5       1.0  0.32577723264694214  0.2476070523262024  0.7676419019699097  1.0000
  Ni  Ni1       1.0  0.12409476935863495  0.882064700126648  0.7646204233169556  1.0000
  Ni  Ni2       1.0  0.13391724228858948  0.36620184779167175  0.008843267336487742  1.0000
  P   P1        1.0  0.13642415404319763  0.5091423392295837  0.3672124743461609  1.0000
  Pb  Pb1       1.0  0.08806193619966507  0.3848479986190796  0.7511491775512695  1.0000
  S   S1        1.0  0.11959081888198853  0.8794099688529968  0.41912284493446345  1.0000
