data_image0
_chemical_formula_structural       BBrErGeNbPdPrTeZr
_chemical_formula_sum              "B1 Br1 Er1 Ge1 Nb1 Pd1 Pr1 Te1 Zr1"
_cell_length_a       6.505463238402435
_cell_length_b       6.480340141648993
_cell_length_c       6.48814582824707
_cell_angle_alpha    63.68944855762963
_cell_angle_beta     63.563239491649036
_cell_angle_gamma    63.535767143058315

_space_group_name_H-M_alt    "P 1"
_space_group_IT_number       1

loop_
  _space_group_symop_operation_xyz
  'x, y, z'

loop_
  _atom_site_type_symbol
  _atom_site_label
  _atom_site_symmetry_multiplicity
  _atom_site_fract_x
  _atom_site_fract_y
  _atom_site_fract_z
  _atom_site_occupancy
  B   B1        1.0  0.11660569906234741  0.7882238030433655  0.4801155924797058  1.0000
  Br  Br1       1.0  0.39817556738853455  0.5480788350105286  0.9943848252296448  1.0000
  Er  Er1       1.0  0.9106073379516602  0.8470157980918884  0.1183662191033364  1.0000
  Ge  Ge1       1.0  0.9644463062286377  0.28478407859802246  0.018850013613700867  1.0000
  Nb  Nb1       1.0  0.32681530714035034  0.9528125524520874  0.11914008855819705  1.0000
  Pd  Pd1       1.0  0.8147944808006287  0.7181364893913269  0.7635024785995483  1.0000
  Pr  Pr1       1.0  0.9075821042060852  0.2506091296672821  0.5198441743850708  1.0000
  Te  Te1       1.0  0.49703606963157654  0.9961928725242615  0.47768121957778936  1.0000
  Zr  Zr1       1.0  0.2991429269313812  0.4103671610355377  0.6518546938896179  1.0000
