data_image0
_chemical_formula_structural       BrHLaMo2SbTeYZr
_chemical_formula_sum              "Br1 H1 La1 Mo2 Sb1 Te1 Y1 Zr1"
_cell_length_a       6.7282330542223905
_cell_length_b       6.687993990439487
_cell_length_c       6.699995040893555
_cell_angle_alpha    65.43335999054256
_cell_angle_beta     65.63805350796167
_cell_angle_gamma    65.30301927085134

_space_group_name_H-M_alt    "P 1"
_space_group_IT_number       1

loop_
  _space_group_symop_operation_xyz
  'x, y, z'

loop_
  _atom_site_type_symbol
  _atom_site_label
  _atom_site_symmetry_multiplicity
  _atom_site_fract_x
  _atom_site_fract_y
  _atom_site_fract_z
  _atom_site_occupancy
  Br  Br1       1.0  0.14438635110855103  0.8757615685462952  0.48726886510848993  1.0000
  H   H1        1.0  0.1422046273946762  0.38374850153923035  0.9981633424758911  1.0000
  La  La1       1.0  0.8317165970802307  0.5437422394752502  0.6101232767105103  1.0000
  Mo  Mo1       1.0  0.921193540096283  0.18873916566371918  0.05361612513661384  1.0000
  Mo  Mo2       1.0  0.3541068434715271  0.19483359158039093  0.7919365167617798  1.0000
  Sb  Sb1       1.0  0.6481238007545471  0.8485717177391052  0.9458793997764587  1.0000
  Te  Te1       1.0  0.6002716422080994  0.3502819538116455  0.39666929841041565  1.0000
  Y   Y1        1.0  0.20438337326049805  0.7413783073425293  0.0025296034291386275  1.0000
  Zr  Zr1       1.0  0.4361827075481415  0.146490216255188  0.24504989385604858  1.0000
