data_image0
_chemical_formula_structural       MgNbNd3Pd3Y
_chemical_formula_sum              "Mg1 Nb1 Nd3 Pd3 Y1"
_cell_length_a       4.265428165793576
_cell_length_b       5.825589467004248
_cell_length_c       9.127076148986816
_cell_angle_alpha    96.50555616899626
_cell_angle_beta     90.01237812734809
_cell_angle_gamma    111.99294758589635

_space_group_name_H-M_alt    "P 1"
_space_group_IT_number       1

loop_
  _space_group_symop_operation_xyz
  'x, y, z'

loop_
  _atom_site_type_symbol
  _atom_site_label
  _atom_site_symmetry_multiplicity
  _atom_site_fract_x
  _atom_site_fract_y
  _atom_site_fract_z
  _atom_site_occupancy
  Mg  Mg1       1.0  0.2893367111682892  0.713416337966919  0.6589787602424622  1.0000
  Nb  Nb1       1.0  0.9010187983512878  0.9318609237670898  0.864802360534668  1.0000
  Nd  Nd1       1.0  0.5896204710006714  0.29423752427101135  0.7418115139007567  1.0000
  Nd  Nd2       1.0  0.6952152252197266  0.5074537992477417  0.38557592034339905  1.0000
  Nd  Nd3       1.0  0.9740865230560303  0.06671620905399323  0.2108132690191269  1.0000
  Pd  Pd1       1.0  0.9544163346290588  0.038350582122802734  0.5515220761299133  1.0000
  Pd  Pd2       1.0  0.5475724935531616  0.2263653576374054  0.047489337623119354  1.0000
  Pd  Pd3       1.0  0.3775150775909424  0.8781062364578247  0.3710775375366211  1.0000
  Y   Y1        1.0  0.25625067949295044  0.6190149188041687  0.027493366971611977  1.0000
