data_image0
_chemical_formula_structural       F2GeHI3O2P5Zn
_chemical_formula_sum              "F2 Ge1 H1 I3 O2 P5 Zn1"
_cell_length_a       6.609624297237889
_cell_length_b       7.153013063624711
_cell_length_c       7.62200927734375
_cell_angle_alpha    63.52192888112656
_cell_angle_beta     65.17306396145982
_cell_angle_gamma    63.90100354035832

_space_group_name_H-M_alt    "P 1"
_space_group_IT_number       1

loop_
  _space_group_symop_operation_xyz
  'x, y, z'

loop_
  _atom_site_type_symbol
  _atom_site_label
  _atom_site_symmetry_multiplicity
  _atom_site_fract_x
  _atom_site_fract_y
  _atom_site_fract_z
  _atom_site_occupancy
  F   F1        1.0  0.9731854796409607  0.8459807634353638  0.615361213684082  1.0000
  F   F2        1.0  0.5904844999313354  0.3849011957645416  0.8841838836669922  1.0000
  Ge  Ge1       1.0  0.8084783554077148  0.7129524350166321  0.231225848197937  1.0000
  H   H1        1.0  0.7694876790046692  0.383430153131485  0.9900989532470703  1.0000
  I   I1        1.0  0.40492382645606995  0.7116770148277283  0.6895221471786499  1.0000
  I   I2        1.0  0.03539396822452545  0.19560681283473969  0.3118954598903656  1.0000
  I   I3        1.0  0.8120571374893188  0.7737078666687012  0.31614917516708374  1.0000
  O   O1        1.0  0.7472851276397705  0.4033479392528534  0.9909608960151672  1.0000
  O   O2        1.0  0.04609181731939316  0.29002827405929565  0.25064289569854736  1.0000
  P   P1        1.0  0.4523889124393463  0.64699786901474  0.5762262344360352  1.0000
  P   P2        1.0  0.8177398443222046  0.13588009774684906  0.10691734403371811  1.0000
  P   P3        1.0  0.33330413699150085  0.38147467374801636  0.1351092904806137  1.0000
  P   P4        1.0  0.953142523765564  0.7632646560668945  0.37792497873306274  1.0000
  P   P5        1.0  0.5692734718322754  0.2935792803764343  0.23252253234386444  1.0000
  Zn  Zn1       1.0  0.3413855731487274  0.04958300292491913  0.11301961541175842  1.0000
