data_image0
_chemical_formula_structural       F4O3P5ZnZr2
_chemical_formula_sum              "F4 O3 P5 Zn1 Zr2"
_cell_length_a       6.648714040777943
_cell_length_b       6.925611606681637
_cell_length_c       7.917630672454834
_cell_angle_alpha    65.00776971270189
_cell_angle_beta     65.20262788549712
_cell_angle_gamma    60.893153671460894

_space_group_name_H-M_alt    "P 1"
_space_group_IT_number       1

loop_
  _space_group_symop_operation_xyz
  'x, y, z'

loop_
  _atom_site_type_symbol
  _atom_site_label
  _atom_site_symmetry_multiplicity
  _atom_site_fract_x
  _atom_site_fract_y
  _atom_site_fract_z
  _atom_site_occupancy
  F   F1        1.0  0.6740108728408813  0.1384306102991104  0.8249379396438599  1.0000
  F   F2        1.0  0.33937329053878784  0.4976568818092346  0.24659357964992523  1.0000
  F   F3        1.0  0.5268847346305847  0.800890326499939  0.2788485884666443  1.0000
  F   F4        1.0  0.830826461315155  0.7261220216751099  0.5143811106681824  1.0000
  O   O1        1.0  0.7334187030792236  0.2625097334384918  0.38050124049186707  1.0000
  O   O2        1.0  0.06895478069782257  0.3459109365940094  0.913755476474762  1.0000
  O   O3        1.0  0.7539802193641663  0.1362575739622116  0.9450616240501404  1.0000
  P   P1        1.0  0.8354679346084595  0.20803841948509216  0.10020490735769272  1.0000
  P   P2        1.0  0.48513883352279663  0.4025243818759918  0.16237156093120575  1.0000
  P   P3        1.0  0.16199208796024323  0.8144350647926331  0.46484413743019104  1.0000
  P   P4        1.0  0.32460957765579224  0.671035885810852  0.8715975284576416  1.0000
  P   P5        1.0  0.9429365396499634  0.5774449110031128  0.8812779784202576  1.0000
  Zn  Zn1       1.0  0.01317510660737753  0.38764330744743347  0.14446902275085452  1.0000
  Zr  Zr1       1.0  0.3290659189224243  0.6548476219177246  0.8096645474433899  1.0000
  Zr  Zr2       1.0  0.579988420009613  0.3486565351486206  0.32334432005882263  1.0000
