data_image0
_chemical_formula_structural       F4O5P6
_chemical_formula_sum              "F4 O5 P6"
_cell_length_a       6.190866972473197
_cell_length_b       6.3220094928675925
_cell_length_c       7.358978271484375
_cell_angle_alpha    114.87463081220567
_cell_angle_beta     116.18185274471314
_cell_angle_gamma    92.62312534430252

_space_group_name_H-M_alt    "P 1"
_space_group_IT_number       1

loop_
  _space_group_symop_operation_xyz
  'x, y, z'

loop_
  _atom_site_type_symbol
  _atom_site_label
  _atom_site_symmetry_multiplicity
  _atom_site_fract_x
  _atom_site_fract_y
  _atom_site_fract_z
  _atom_site_occupancy
  F   F1        1.0  0.23727376759052277  0.8639125823974609  0.5674944519996643  1.0000
  F   F2        1.0  0.9172607660293579  0.9577507376670837  0.48085987567901617  1.0000
  F   F3        1.0  0.21774591505527496  0.04509776085615158  0.9046703577041627  1.0000
  F   F4        1.0  0.892480731010437  0.711047887802124  0.44596284627914434  1.0000
  O   O1        1.0  0.19526129961013794  0.1336231380701065  0.9024575352668763  1.0000
  O   O2        1.0  0.051535703241825104  0.6846956014633179  0.054328411817550694  1.0000
  O   O3        1.0  0.21916735172271729  0.6223971247673035  0.07883269339799888  1.0000
  O   O4        1.0  0.5769120454788208  0.7187320590019226  0.8700390458106996  1.0000
  O   O5        1.0  0.7064157128334045  0.4312826991081238  0.6434092521667482  1.0000
  P   P1        1.0  0.716003954410553  0.05307446047663689  0.0060775536112487325  1.0000
  P   P2        1.0  0.21237947046756744  0.01341435220092535  0.05220813676714898  1.0000
  P   P3        1.0  0.40091419219970703  0.6289619207382202  0.3746529519557954  1.0000
  P   P4        1.0  0.7145437002182007  0.8760814666748047  0.2909011244773865  1.0000
  P   P5        1.0  0.3865509331226349  0.6692357063293457  0.23551288247108468  1.0000
  P   P6        1.0  0.6940048933029175  0.45339444279670715  0.35683405399322515  1.0000
