data_image0
_chemical_formula_structural       BaF4O6P3V
_chemical_formula_sum              "Ba1 F4 O6 P3 V1"
_cell_length_a       5.68569257693424
_cell_length_b       5.9281750936451205
_cell_length_c       6.311713695526123
_cell_angle_alpha    118.28520710011719
_cell_angle_beta     109.69075079572204
_cell_angle_gamma    102.6907394075468

_space_group_name_H-M_alt    "P 1"
_space_group_IT_number       1

loop_
  _space_group_symop_operation_xyz
  'x, y, z'

loop_
  _atom_site_type_symbol
  _atom_site_label
  _atom_site_symmetry_multiplicity
  _atom_site_fract_x
  _atom_site_fract_y
  _atom_site_fract_z
  _atom_site_occupancy
  Ba  Ba1       1.0  0.5655457377433777  0.4807106554508209  0.646285057067871  1.0000
  F   F1        1.0  0.11482737958431244  0.5676616430282593  0.4422965049743652  1.0000
  F   F2        1.0  0.9981280565261841  0.39863404631614685  0.5171892642974854  1.0000
  F   F3        1.0  0.28694406151771545  0.06247158721089363  0.0014565602177754131  1.0000
  F   F4        1.0  0.6034661531448364  0.984869122505188  0.6240053176879883  1.0000
  O   O1        1.0  0.6180070638656616  0.7910482883453369  0.9698361158370971  1.0000
  O   O2        1.0  0.10081764310598373  0.8627566695213318  0.5186660885810852  1.0000
  O   O3        1.0  0.43744683265686035  0.5660091042518616  0.17630612850189206  1.0000
  O   O4        1.0  0.8849647641181946  0.02801285684108734  0.2465151101350784  1.0000
  O   O5        1.0  0.47753581404685974  0.15804913640022278  0.37692424654960627  1.0000
  O   O6        1.0  0.6009571552276611  0.2731635570526123  0.13096986711025238  1.0000
  P   P1        1.0  0.6064355969429016  0.9818398356437683  0.9813190102577208  1.0000
  P   P2        1.0  0.5069944262504578  0.1740218997001648  0.40596053004264826  1.0000
  P   P3        1.0  0.10315490514039993  0.5617772936820984  0.162239521741867  1.0000
  V   V1        1.0  0.1130981594324112  0.2802322208881378  0.6403362154960631  1.0000
