data_image0
_chemical_formula_structural       F4IOP3PrVZn2Zr2
_chemical_formula_sum              "F4 I1 O1 P3 Pr1 V1 Zn2 Zr2"
_cell_length_a       5.182240174695653
_cell_length_b       6.331682106262218
_cell_length_c       7.5084662437438965
_cell_angle_alpha    120.14355173251253
_cell_angle_beta     92.4352829273889
_cell_angle_gamma    91.83988984063507

_space_group_name_H-M_alt    "P 1"
_space_group_IT_number       1

loop_
  _space_group_symop_operation_xyz
  'x, y, z'

loop_
  _atom_site_type_symbol
  _atom_site_label
  _atom_site_symmetry_multiplicity
  _atom_site_fract_x
  _atom_site_fract_y
  _atom_site_fract_z
  _atom_site_occupancy
  F   F1        1.0  0.18068447709083557  0.14502732455730438  0.09806153923273088  1.0000
  F   F2        1.0  0.837184488773346  0.01021106168627739  0.22872632741928103  1.0000
  F   F3        1.0  0.5993490815162659  0.806753396987915  0.9840370416641236  1.0000
  F   F4        1.0  0.5114853978157043  0.4826372563838959  0.9215109944343568  1.0000
  I   I1        1.0  0.04742414131760597  0.1131957396864891  0.24670219421386722  1.0000
  O   O1        1.0  0.7857717871665955  0.963264524936676  0.06421612948179245  1.0000
  P   P1        1.0  0.7938731908798218  0.17695608735084534  0.4455824196338654  1.0000
  P   P2        1.0  0.17645278573036194  0.3040080964565277  0.15292257070541382  1.0000
  P   P3        1.0  0.795482337474823  0.42450928688049316  0.08261661976575851  1.0000
  Pr  Pr1       1.0  0.5412213206291199  0.11871283501386642  0.8093706369400026  1.0000
  V   V1        1.0  0.48676425218582153  0.4519573450088501  0.3531550168991089  1.0000
  Zn  Zn1       1.0  0.6776803135871887  0.5478926301002502  0.6636928915977478  1.0000
  Zn  Zn2       1.0  0.0774894505739212  0.8789655566215515  0.8607535362243653  1.0000
  Zr  Zr1       1.0  0.1417437046766281  0.8320714831352234  0.9495503306388856  1.0000
  Zr  Zr2       1.0  0.8277168273925781  0.1073484867811203  0.3525184988975525  1.0000
