data_image0
_chemical_formula_structural       BaF3HIInO2P5Zn
_chemical_formula_sum              "Ba1 F3 H1 I1 In1 O2 P5 Zn1"
_cell_length_a       5.185004810412494
_cell_length_b       5.630515650951617
_cell_length_c       9.93487548828125
_cell_angle_alpha    90.0613082722072
_cell_angle_beta     91.14579228045257
_cell_angle_gamma    94.84062876032384

_space_group_name_H-M_alt    "P 1"
_space_group_IT_number       1

loop_
  _space_group_symop_operation_xyz
  'x, y, z'

loop_
  _atom_site_type_symbol
  _atom_site_label
  _atom_site_symmetry_multiplicity
  _atom_site_fract_x
  _atom_site_fract_y
  _atom_site_fract_z
  _atom_site_occupancy
  Ba  Ba1       1.0  0.39995473623275757  0.9491510391235352  0.9264876246452332  1.0000
  F   F1        1.0  0.9491468667984009  0.8096323013305664  0.1872718781232834  1.0000
  F   F2        1.0  0.6355299949645996  0.82560795545578  0.4714730978012085  1.0000
  F   F3        1.0  0.4160785377025604  0.1666397750377655  0.48292210698127747  1.0000
  H   H1        1.0  0.1548449844121933  0.6670721769332886  0.9029998183250427  1.0000
  I   I1        1.0  0.9071691632270813  0.7590182423591614  0.9930346608161926  1.0000
  In  In1       1.0  0.9368594884872437  0.3344250023365021  0.0458894819021225  1.0000
  O   O1        1.0  0.22038325667381287  0.681274950504303  0.3595663011074066  1.0000
  O   O2        1.0  0.4043203592300415  0.7604725956916809  0.5715773105621338  1.0000
  P   P1        1.0  0.46352913975715637  0.36787348985671997  0.8509814739227295  1.0000
  P   P2        1.0  0.3966120779514313  0.7391197085380554  0.764548122882843  1.0000
  P   P3        1.0  0.5009827613830566  0.8818647265434265  0.3964179456233978  1.0000
  P   P4        1.0  0.8650693297386169  0.5738006234169006  0.5632901191711426  1.0000
  P   P5        1.0  0.9120641350746155  0.04592897370457649  0.6783453822135925  1.0000
  Zn  Zn1       1.0  0.6662413477897644  0.7429777383804321  0.34399524331092834  1.0000
