data_image0
_chemical_formula_structural       Co2GaIMg3O2P
_chemical_formula_sum              "Co2 Ga1 I1 Mg3 O2 P1"
_cell_length_a       6.078456986421878
_cell_length_b       5.794908669634066
_cell_length_c       7.8372955322265625
_cell_angle_alpha    66.49147542785123
_cell_angle_beta     67.99378347012441
_cell_angle_gamma    56.81748211168495

_space_group_name_H-M_alt    "P 1"
_space_group_IT_number       1

loop_
  _space_group_symop_operation_xyz
  'x, y, z'

loop_
  _atom_site_type_symbol
  _atom_site_label
  _atom_site_symmetry_multiplicity
  _atom_site_fract_x
  _atom_site_fract_y
  _atom_site_fract_z
  _atom_site_occupancy
  Co  Co1       1.0  0.2479400634765625  0.3701247572898865  0.670583188533783  1.0000
  Co  Co2       1.0  0.03712685406208034  0.4986156821250916  0.6813098788261414  1.0000
  Ga  Ga1       1.0  0.24577873945236206  0.9801720976829529  0.14016276597976685  1.0000
  I   I1        1.0  0.7785418629646301  0.15176790952682495  0.4217701554298401  1.0000
  Mg  Mg1       1.0  0.7411981225013733  0.2150927633047104  0.8472132086753845  1.0000
  Mg  Mg2       1.0  0.2480848878622055  0.8698095083236694  0.08917694538831711  1.0000
  Mg  Mg3       1.0  0.5003162622451782  0.7209500074386597  0.38094550371170044  1.0000
  O   O1        1.0  0.5766425132751465  0.8814690709114075  0.5325904488563538  1.0000
  O   O2        1.0  0.011351357214152813  0.9574233889579773  0.1408446729183197  1.0000
  P   P1        1.0  0.7432286143302917  0.3946663439273834  0.10610726475715637  1.0000
