data_image0
_chemical_formula_structural       GeI3Mg3OP2
_chemical_formula_sum              "Ge1 I3 Mg3 O1 P2"
_cell_length_a       6.447455869005121
_cell_length_b       6.464057629928173
_cell_length_c       6.984718322753906
_cell_angle_alpha    61.222678269328604
_cell_angle_beta     62.83586895555886
_cell_angle_gamma    58.37855267964932

_space_group_name_H-M_alt    "P 1"
_space_group_IT_number       1

loop_
  _space_group_symop_operation_xyz
  'x, y, z'

loop_
  _atom_site_type_symbol
  _atom_site_label
  _atom_site_symmetry_multiplicity
  _atom_site_fract_x
  _atom_site_fract_y
  _atom_site_fract_z
  _atom_site_occupancy
  Ge  Ge1       1.0  0.31248199939727783  0.1336928755044937  0.02438712865114212  1.0000
  I   I1        1.0  0.5437960624694824  0.5949305295944214  0.4161129295825958  1.0000
  I   I2        1.0  0.17196394503116608  0.22069931030273438  0.724204957485199  1.0000
  I   I3        1.0  0.9173749089241028  0.9672648906707764  0.45549306273460394  1.0000
  Mg  Mg1       1.0  0.9359257817268372  0.6018369197845459  0.16697804629802704  1.0000
  Mg  Mg2       1.0  0.012796549126505852  0.7330973148345947  0.11283776164054872  1.0000
  Mg  Mg3       1.0  0.5814852714538574  0.08013073354959488  0.5493268966674805  1.0000
  O   O1        1.0  0.008157835341989994  0.9353924989700317  0.9729731082916259  1.0000
  P   P1        1.0  0.5276757478713989  0.5420019626617432  0.046378251165151596  1.0000
  P   P2        1.0  0.8940926194190979  0.7841839790344238  0.538960874080658  1.0000
