data_image0
_chemical_formula_structural       FGaGeIMgO2P2Zr
_chemical_formula_sum              "F1 Ga1 Ge1 I1 Mg1 O2 P2 Zr1"
_cell_length_a       6.301809409932608
_cell_length_b       6.26863828196599
_cell_length_c       6.508957862854004
_cell_angle_alpha    61.46313923712919
_cell_angle_beta     62.481808828354175
_cell_angle_gamma    62.10721282651822

_space_group_name_H-M_alt    "P 1"
_space_group_IT_number       1

loop_
  _space_group_symop_operation_xyz
  'x, y, z'

loop_
  _atom_site_type_symbol
  _atom_site_label
  _atom_site_symmetry_multiplicity
  _atom_site_fract_x
  _atom_site_fract_y
  _atom_site_fract_z
  _atom_site_occupancy
  F   F1        1.0  0.8885397315025331  0.21341802179813385  0.2691717743873596  1.0000
  Ga  Ga1       1.0  0.4159607887268067  0.5072982907295227  0.696411669254303  1.0000
  Ge  Ge1       1.0  0.6127671003341675  0.9100006222724915  0.40817055106163025  1.0000
  I   I1        1.0  0.5184769034385681  0.6970973014831543  0.26426607370376587  1.0000
  Mg  Mg1       1.0  0.9175636768341066  0.16169126331806183  0.2509481906890869  1.0000
  O   O1        1.0  0.8181260228157045  0.21681024134159088  0.7816609740257263  1.0000
  O   O2        1.0  0.9527474641799928  0.1703810840845108  0.8088108897209167  1.0000
  P   P1        1.0  0.05178580060601235  0.6469563245773315  0.16152213513851166  1.0000
  P   P2        1.0  0.6763280034065247  0.4518638253211975  0.8648436665534973  1.0000
  Zr  Zr1       1.0  0.47293674945831304  0.33351054787635803  0.8617672324180603  1.0000
