data_image0
_chemical_formula_structural       O10
_chemical_formula_sum              "O10"
_cell_length_a       4.71861295555485
_cell_length_b       4.7380046454204345
_cell_length_c       5.839600563049316
_cell_angle_alpha    66.68791100714807
_cell_angle_beta     66.84587979736523
_cell_angle_gamma    67.39746215092052

_space_group_name_H-M_alt    "P 1"
_space_group_IT_number       1

loop_
  _space_group_symop_operation_xyz
  'x, y, z'

loop_
  _atom_site_type_symbol
  _atom_site_label
  _atom_site_symmetry_multiplicity
  _atom_site_fract_x
  _atom_site_fract_y
  _atom_site_fract_z
  _atom_site_occupancy
  O   O1        1.0  0.585878312587738  0.772366464138031  0.14614234864711761  1.0000
  O   O2        1.0  0.010812590830028057  0.8269433975219727  0.098497174680233  1.0000
  O   O3        1.0  0.4989774823188782  0.36058473587036133  0.339875191450119  1.0000
  O   O4        1.0  0.499299556016922  0.8565030694007874  0.5694703459739685  1.0000
  O   O5        1.0  0.000636436278000474  0.4118592143058777  0.7261642813682556  1.0000
  O   O6        1.0  0.7218509316444397  0.2983234226703644  0.22529909014701846  1.0000
  O   O7        1.0  0.5045841336250305  0.270309716463089  0.6778991222381592  1.0000
  O   O8        1.0  0.3950384557247162  0.8165004253387451  0.6104370951652527  1.0000
  O   O9        1.0  0.21800865232944489  0.2133454829454422  0.10330801457166673  1.0000
  O   O10       1.0  0.010751034133136272  0.6882675290107727  0.5299647450447083  1.0000
