data_image0
_chemical_formula_structural       Mo2O8
_chemical_formula_sum              "Mo2 O8"
_cell_length_a       4.557226516934678
_cell_length_b       4.418804011087252
_cell_length_c       5.024978160858154
_cell_angle_alpha    92.5598308932876
_cell_angle_beta     92.82878121729519
_cell_angle_gamma    89.1270808288269

_space_group_name_H-M_alt    "P 1"
_space_group_IT_number       1

loop_
  _space_group_symop_operation_xyz
  'x, y, z'

loop_
  _atom_site_type_symbol
  _atom_site_label
  _atom_site_symmetry_multiplicity
  _atom_site_fract_x
  _atom_site_fract_y
  _atom_site_fract_z
  _atom_site_occupancy
  Mo  Mo1       1.0  0.4984981119632721  0.5578124523162842  0.3682357370853424  1.0000
  Mo  Mo2       1.0  0.9638859033584595  0.1944608837366104  0.5059621334075928  1.0000
  O   O1        1.0  0.004156246781349182  0.5350662469863892  0.8548288345336914  1.0000
  O   O2        1.0  0.8238110542297363  0.9488683342933655  0.570427417755127  1.0000
  O   O3        1.0  0.00782079342752695  0.18721896409988403  0.8665135502815247  1.0000
  O   O4        1.0  0.49501752853393555  0.5550469160079956  0.5596209764480591  1.0000
  O   O5        1.0  0.5007210969924927  0.9475890398025513  0.8776320219039917  1.0000
  O   O6        1.0  0.49202969670295715  0.8548262715339661  0.10562879592180252  1.0000
  O   O7        1.0  0.49348559975624084  0.8338454365730286  0.25607025623321533  1.0000
  O   O8        1.0  0.0068806242197752  0.46125662326812744  0.7719045281410217  1.0000
