data_image0
_chemical_formula_structural       CoFGaMgO3PVZn
_chemical_formula_sum              "Co1 F1 Ga1 Mg1 O3 P1 V1 Zn1"
_cell_length_a       5.323525613356895
_cell_length_b       5.459442656249483
_cell_length_c       5.885079383850098
_cell_angle_alpha    59.156937198878644
_cell_angle_beta     60.07260088632923
_cell_angle_gamma    57.63087155317058

_space_group_name_H-M_alt    "P 1"
_space_group_IT_number       1

loop_
  _space_group_symop_operation_xyz
  'x, y, z'

loop_
  _atom_site_type_symbol
  _atom_site_label
  _atom_site_symmetry_multiplicity
  _atom_site_fract_x
  _atom_site_fract_y
  _atom_site_fract_z
  _atom_site_occupancy
  Co  Co1       1.0  0.26234927773475647  0.27705180644989014  0.36964550614356995  1.0000
  F   F1        1.0  0.9740362167358398  0.6069114208221436  0.28700482845306396  1.0000
  Ga  Ga1       1.0  0.39810046553611755  0.44810715317726135  0.8537778854370117  1.0000
  Mg  Mg1       1.0  0.5276244282722473  0.9790939092636108  0.9468334913253784  1.0000
  O   O1        1.0  0.8427026271820068  0.6510689854621887  0.3956208825111389  1.0000
  O   O2        1.0  0.16107259690761566  0.46688368916511536  0.409365177154541  1.0000
  O   O3        1.0  0.33905619382858276  0.359255313873291  0.49247726798057556  1.0000
  P   P1        1.0  0.4929393529891968  0.6681774258613586  0.3770764172077179  1.0000
  V   V1        1.0  0.8805939555168152  0.940588116645813  0.6934177279472351  1.0000
  Zn  Zn1       1.0  0.9386385679244995  0.273823618888855  0.0077650402672588825  1.0000
