data_image0
_chemical_formula_structural       Ca5Hg4
_chemical_formula_sum              "Ca5 Hg4"
_cell_length_a       5.9613245358789495
_cell_length_b       6.77047643827641
_cell_length_c       7.400213241577148
_cell_angle_alpha    125.03107430019269
_cell_angle_beta     91.18054537395408
_cell_angle_gamma    93.08224343617279

_space_group_name_H-M_alt    "P 1"
_space_group_IT_number       1

loop_
  _space_group_symop_operation_xyz
  'x, y, z'

loop_
  _atom_site_type_symbol
  _atom_site_label
  _atom_site_symmetry_multiplicity
  _atom_site_fract_x
  _atom_site_fract_y
  _atom_site_fract_z
  _atom_site_occupancy
  Ca  Ca1       1.0  0.550244152545929  0.5946667790412903  0.5074024796485901  1.0000
  Ca  Ca2       1.0  0.5473518967628479  0.440724790096283  0.03783969581127167  1.0000
  Ca  Ca3       1.0  0.5500220060348511  0.00485949357971549  0.6759553551673889  1.0000
  Ca  Ca4       1.0  0.5518174767494202  0.036466531455516815  0.01984417252242565  1.0000
  Ca  Ca5       1.0  0.5490467548370361  0.5159316062927246  0.290688693523407  1.0000
  Hg  Hg1       1.0  0.5501596927642822  0.49040442705154424  0.22232116758823398  1.0000
  Hg  Hg2       1.0  0.5530155301094055  0.1910691410303116  0.6884492635726929  1.0000
  Hg  Hg3       1.0  0.050438370555639274  0.49509203433990484  0.8319923877716064  1.0000
  Hg  Hg4       1.0  0.05099252238869668  0.2939873933792114  0.36254850029945374  1.0000
