data_image0
_chemical_formula_structural       Ca4Hg5
_chemical_formula_sum              "Ca4 Hg5"
_cell_length_a       5.49931016992482
_cell_length_b       5.132224616750452
_cell_length_c       6.716294765472412
_cell_angle_alpha    93.64882678402655
_cell_angle_beta     89.42521594560196
_cell_angle_gamma    133.6989516725159

_space_group_name_H-M_alt    "P 1"
_space_group_IT_number       1

loop_
  _space_group_symop_operation_xyz
  'x, y, z'

loop_
  _atom_site_type_symbol
  _atom_site_label
  _atom_site_symmetry_multiplicity
  _atom_site_fract_x
  _atom_site_fract_y
  _atom_site_fract_z
  _atom_site_occupancy
  Ca  Ca1       1.0  0.4775877296924591  0.7023756504058838  0.30902725458145136  1.0000
  Ca  Ca2       1.0  0.8199958801269531  0.7745868563652039  0.21021799743175504  1.0000
  Ca  Ca3       1.0  0.47205519676208496  0.5667402744293213  0.8994630575180053  1.0000
  Ca  Ca4       1.0  0.9207819104194641  0.14351452887058258  0.5855819582939148  1.0000
  Hg  Hg1       1.0  0.447150856256485  0.6802683472633362  0.564066469669342  1.0000
  Hg  Hg2       1.0  0.9647694230079651  0.3387768864631653  0.6391091346740722  1.0000
  Hg  Hg3       1.0  0.01582171395421036  0.8410849571228028  0.40275523066520685  1.0000
  Hg  Hg4       1.0  0.9116357564926147  0.5989457964897156  0.6145944595336913  1.0000
  Hg  Hg5       1.0  0.513412356376648  0.39280492067337036  0.4719321429729461  1.0000
