data_image0
_chemical_formula_structural       Ca2Hg7
_chemical_formula_sum              "Ca2 Hg7"
_cell_length_a       5.977683664818188
_cell_length_b       4.62651422224489
_cell_length_c       8.352873802185059
_cell_angle_alpha    130.21015982628282
_cell_angle_beta     100.90709571410345
_cell_angle_gamma    128.5224283751821

_space_group_name_H-M_alt    "P 1"
_space_group_IT_number       1

loop_
  _space_group_symop_operation_xyz
  'x, y, z'

loop_
  _atom_site_type_symbol
  _atom_site_label
  _atom_site_symmetry_multiplicity
  _atom_site_fract_x
  _atom_site_fract_y
  _atom_site_fract_z
  _atom_site_occupancy
  Ca  Ca1       1.0  0.3727239370346069  0.46157583594322193  0.46647450327873224  1.0000
  Ca  Ca2       1.0  0.9688435792922973  0.12718598544597595  0.9355479478836058  1.0000
  Hg  Hg1       1.0  0.06230148300528519  0.7797492742538451  0.24410828948020938  1.0000
  Hg  Hg2       1.0  0.4834417700767517  0.6955996155738831  0.4209786951541901  1.0000
  Hg  Hg3       1.0  0.49743407964706415  0.05658059194684019  0.6583239436149597  1.0000
  Hg  Hg4       1.0  0.9793985486030579  0.7635722756385803  0.36313036084175115  1.0000
  Hg  Hg5       1.0  0.47009250521659846  0.6392417550086974  0.883452832698822  1.0000
  Hg  Hg6       1.0  0.48754265904426575  0.6845071315765381  0.9841756224632263  1.0000
  Hg  Hg7       1.0  0.9878740310668944  0.06237182021141029  0.8890760540962218  1.0000
