data_image0
_chemical_formula_structural       Ca6Hg3
_chemical_formula_sum              "Ca6 Hg3"
_cell_length_a       5.196118730559399
_cell_length_b       6.014600751504951
_cell_length_c       10.209878921508789
_cell_angle_alpha    120.78419701365432
_cell_angle_beta     89.31763632010338
_cell_angle_gamma    90.34182508523838

_space_group_name_H-M_alt    "P 1"
_space_group_IT_number       1

loop_
  _space_group_symop_operation_xyz
  'x, y, z'

loop_
  _atom_site_type_symbol
  _atom_site_label
  _atom_site_symmetry_multiplicity
  _atom_site_fract_x
  _atom_site_fract_y
  _atom_site_fract_z
  _atom_site_occupancy
  Ca  Ca1       1.0  0.16841500997543335  0.4384917616844177  0.8457184433937073  1.0000
  Ca  Ca2       1.0  0.6639465689659119  0.016504891216754913  0.4695513546466827  1.0000
  Ca  Ca3       1.0  0.16602660715579987  0.22161148488521576  0.3721981048583984  1.0000
  Ca  Ca4       1.0  0.6643221378326416  0.06682638078927994  0.33166438341140747  1.0000
  Ca  Ca5       1.0  0.16245009005069733  0.8842880129814148  0.08440332859754557  1.0000
  Ca  Ca6       1.0  0.664767861366272  0.6082215309143066  0.2279832065105438  1.0000
  Hg  Hg1       1.0  0.1634029597043991  0.9149945378303527  0.09526201337575912  1.0000
  Hg  Hg2       1.0  0.6631868481636047  0.5634928345680237  0.721265971660614  1.0000
  Hg  Hg3       1.0  0.6670354604721069  0.17247255146503448  0.4168618619441986  1.0000
