data_image0
_chemical_formula_structural       Ca8Hg
_chemical_formula_sum              "Ca8 Hg1"
_cell_length_a       5.806247206242443
_cell_length_b       6.753369306651828
_cell_length_c       9.2274169921875
_cell_angle_alpha    120.94009218587756
_cell_angle_beta     89.25731737829703
_cell_angle_gamma    90.07793594759653

_space_group_name_H-M_alt    "P 1"
_space_group_IT_number       1

loop_
  _space_group_symop_operation_xyz
  'x, y, z'

loop_
  _atom_site_type_symbol
  _atom_site_label
  _atom_site_symmetry_multiplicity
  _atom_site_fract_x
  _atom_site_fract_y
  _atom_site_fract_z
  _atom_site_occupancy
  Ca  Ca1       1.0  0.34090057015419006  0.9965632557868958  0.7485462427139282  1.0000
  Ca  Ca2       1.0  0.8399076461791993  0.30192044377326965  0.36695677042007446  1.0000
  Ca  Ca3       1.0  0.3342398703098297  0.618722677230835  0.9668676257133484  1.0000
  Ca  Ca4       1.0  0.8415731191635133  0.46766528487205505  0.18322509527206424  1.0000
  Ca  Ca5       1.0  0.8372257351875306  0.6514792442321777  0.9867923855781555  1.0000
  Ca  Ca6       1.0  0.8316038846969606  0.1036294475197792  0.22563354671001434  1.0000
  Ca  Ca7       1.0  0.3378857970237732  0.6556970477104187  0.6525465250015259  1.0000
  Ca  Ca8       1.0  0.3360172510147095  0.7958093285560608  0.38569208979606634  1.0000
  Hg  Hg1       1.0  0.833017647266388  0.8699713945388794  0.1338479220867157  1.0000
