data_image0
_chemical_formula_structural       ReSbScTbTeW
_chemical_formula_sum              "Re1 Sb1 Sc1 Tb1 Te1 W1"
_cell_length_a       3.895107058989229
_cell_length_b       6.514248831099192
_cell_length_c       6.732892990112305
_cell_angle_alpha    121.97023742898166
_cell_angle_beta     91.22159030313651
_cell_angle_gamma    88.22223978562369

_space_group_name_H-M_alt    "P 1"
_space_group_IT_number       1

loop_
  _space_group_symop_operation_xyz
  'x, y, z'

loop_
  _atom_site_type_symbol
  _atom_site_label
  _atom_site_symmetry_multiplicity
  _atom_site_fract_x
  _atom_site_fract_y
  _atom_site_fract_z
  _atom_site_occupancy
  Re  Re1       1.0  0.8451246619224547  0.7308622002601624  0.9231548905372619  1.0000
  Sb  Sb1       1.0  0.8444060087203978  0.3820194900035858  0.6306658983230591  1.0000
  Sc  Sc1       1.0  0.346758484840393  0.25016966462135315  0.8681467175483703  1.0000
  Tb  Tb1       1.0  0.3479866683483123  0.08039017021656036  0.401134729385376  1.0000
  Te  Te1       1.0  0.3440882265567779  0.8760848641395569  0.20370109379291526  1.0000
  W   W1        1.0  0.8392319679260253  0.3342879116535187  0.6279924511909485  1.0000
