data_image0
_chemical_formula_structural       FeSbScTb2Te
_chemical_formula_sum              "Fe1 Sb1 Sc1 Tb2 Te1"
_cell_length_a       4.8390026728492685
_cell_length_b       6.62209511761284
_cell_length_c       6.918370723724365
_cell_angle_alpha    119.14808266091269
_cell_angle_beta     91.14126946700027
_cell_angle_gamma    88.92357243128643

_space_group_name_H-M_alt    "P 1"
_space_group_IT_number       1

loop_
  _space_group_symop_operation_xyz
  'x, y, z'

loop_
  _atom_site_type_symbol
  _atom_site_label
  _atom_site_symmetry_multiplicity
  _atom_site_fract_x
  _atom_site_fract_y
  _atom_site_fract_z
  _atom_site_occupancy
  Fe  Fe1       1.0  0.4258449673652649  0.12898346781730652  0.9506223201751709  1.0000
  Sb  Sb1       1.0  0.9276992082595825  0.6290650367736816  0.11465571820735931  1.0000
  Sc  Sc1       1.0  0.4039521813392639  0.10972574353218079  0.33673572540283203  1.0000
  Tb  Tb1       1.0  0.9190833568572998  0.4284193217754364  0.8375228643417358  1.0000
  Tb  Tb2       1.0  0.42292487621307373  0.8524096608161926  0.628857433795929  1.0000
  Te  Te1       1.0  0.9240400195121765  0.40876275300979614  0.3332867920398712  1.0000
