data_image0
_chemical_formula_structural       FeNdSbTbTcTe
_chemical_formula_sum              "Fe1 Nd1 Sb1 Tb1 Tc1 Te1"
_cell_length_a       5.5321914189610455
_cell_length_b       6.109274632005419
_cell_length_c       7.589766979217529
_cell_angle_alpha    72.92923673042097
_cell_angle_beta     66.60071990488721
_cell_angle_gamma    59.365893163310815

_space_group_name_H-M_alt    "P 1"
_space_group_IT_number       1

loop_
  _space_group_symop_operation_xyz
  'x, y, z'

loop_
  _atom_site_type_symbol
  _atom_site_label
  _atom_site_symmetry_multiplicity
  _atom_site_fract_x
  _atom_site_fract_y
  _atom_site_fract_z
  _atom_site_occupancy
  Fe  Fe1       1.0  0.5461133122444153  0.6357069611549377  0.16852393746376038  1.0000
  Nd  Nd1       1.0  0.35879185795783997  0.4651230573654175  0.6618515849113464  1.0000
  Sb  Sb1       1.0  0.13721409440040588  0.3702791631221771  0.8666819930076599  1.0000
  Tb  Tb1       1.0  0.833278477191925  0.31815508008003235  0.9698149561882019  1.0000
  Tc  Tc1       1.0  0.9159168004989624  0.9832862019538879  0.5076202154159546  1.0000
  Te  Te1       1.0  0.1669781506061554  0.9005455374717712  0.39129942655563354  1.0000
