data_image0
_chemical_formula_structural       ClFe2Te3
_chemical_formula_sum              "Cl1 Fe2 Te3"
_cell_length_a       5.965297312634125
_cell_length_b       5.730665131906582
_cell_length_c       6.003483772277832
_cell_angle_alpha    64.58290964684639
_cell_angle_beta     60.28109553431194
_cell_angle_gamma    59.46745609381797

_space_group_name_H-M_alt    "P 1"
_space_group_IT_number       1

loop_
  _space_group_symop_operation_xyz
  'x, y, z'

loop_
  _atom_site_type_symbol
  _atom_site_label
  _atom_site_symmetry_multiplicity
  _atom_site_fract_x
  _atom_site_fract_y
  _atom_site_fract_z
  _atom_site_occupancy
  Cl  Cl1       1.0  0.5448670983314514  0.5377095341682434  0.9812055826187134  1.0000
  Fe  Fe1       1.0  0.4511891305446625  0.9287987351417542  0.6917054057121277  1.0000
  Fe  Fe2       1.0  0.5445146560668945  0.08798418194055557  0.9652070999145508  1.0000
  Te  Te1       1.0  0.10386420786380768  0.5391631126403809  0.22634315490722656  1.0000
  Te  Te2       1.0  0.33277881145477295  0.0774068832397461  0.4953908622264862  1.0000
  Te  Te3       1.0  0.8592455983161926  0.09222482144832611  0.9282383322715759  1.0000
