data_image0
_chemical_formula_structural       Co2Dy3GeI2Pt
_chemical_formula_sum              "Co2 Dy3 Ge1 I2 Pt1"
_cell_length_a       5.5067857299576355
_cell_length_b       5.665035004555083
_cell_length_c       7.103801250457764
_cell_angle_alpha    113.05287362639207
_cell_angle_beta     115.2239414429979
_cell_angle_gamma    89.44378391024222

_space_group_name_H-M_alt    "P 1"
_space_group_IT_number       1

loop_
  _space_group_symop_operation_xyz
  'x, y, z'

loop_
  _atom_site_type_symbol
  _atom_site_label
  _atom_site_symmetry_multiplicity
  _atom_site_fract_x
  _atom_site_fract_y
  _atom_site_fract_z
  _atom_site_occupancy
  Co  Co1       1.0  0.9314394593238831  0.4444222152233124  0.5506577491760254  1.0000
  Co  Co2       1.0  0.7733442187309265  0.9379510283470154  0.2830175757408142  1.0000
  Dy  Dy1       1.0  0.4359481632709503  0.01530264690518379  0.9821879863739014  1.0000
  Dy  Dy2       1.0  0.6217231750488281  0.58890700340271  0.6095722913742065  1.0000
  Dy  Dy3       1.0  0.4515717327594757  0.5478618741035461  0.9341943264007568  1.0000
  Ge  Ge1       1.0  0.6220635771751404  0.3430498242378235  0.9934288263320923  1.0000
  I   I1        1.0  0.9294360280036926  0.8108949065208435  0.12982188165187836  1.0000
  I   I2        1.0  0.14360490441322324  0.9534173607826232  0.034239191561937395  1.0000
  Pt  Pt1       1.0  0.910697340965271  0.8950256705284119  0.41388267278671265  1.0000
