data_image0
_chemical_formula_structural       ClCo3Ge2LiP2
_chemical_formula_sum              "Cl1 Co3 Ge2 Li1 P2"
_cell_length_a       4.9422488833611515
_cell_length_b       4.773472159757508
_cell_length_c       5.815613746643066
_cell_angle_alpha    90.31988155697141
_cell_angle_beta     89.76506640429174
_cell_angle_gamma    91.49652608190941

_space_group_name_H-M_alt    "P 1"
_space_group_IT_number       1

loop_
  _space_group_symop_operation_xyz
  'x, y, z'

loop_
  _atom_site_type_symbol
  _atom_site_label
  _atom_site_symmetry_multiplicity
  _atom_site_fract_x
  _atom_site_fract_y
  _atom_site_fract_z
  _atom_site_occupancy
  Cl  Cl1       1.0  0.08132783323526382  0.5937385559082031  0.49650156497955317  1.0000
  Co  Co1       1.0  0.5361526012420654  0.5101147890090942  0.6724612712860107  1.0000
  Co  Co2       1.0  0.3323316276073456  0.9864289164543152  0.05282216891646385  1.0000
  Co  Co3       1.0  0.019570734351873398  0.8344936370849609  0.0033886760938912626  1.0000
  Ge  Ge1       1.0  0.5300413370132446  0.47970983386039734  0.4536662399768829  1.0000
  Ge  Ge2       1.0  0.5396278500556946  0.5588260293006897  0.15089043974876404  1.0000
  Li  Li1       1.0  0.8306364417076111  0.5198074579238892  0.535798966884613  1.0000
  P   P1        1.0  0.047434087842702866  0.6821963787078857  0.8682789802551268  1.0000
  P   P2        1.0  0.5461630821228027  0.7738673686981201  0.30171042680740356  1.0000
