data_image0
_chemical_formula_structural       Co5FGeIV
_chemical_formula_sum              "Co5 F1 Ge1 I1 V1"
_cell_length_a       4.958953982587756
_cell_length_b       5.229377695793227
_cell_length_c       6.245264053344727
_cell_angle_alpha    94.69928555303233
_cell_angle_beta     98.4911151015734
_cell_angle_gamma    98.74993234740242

_space_group_name_H-M_alt    "P 1"
_space_group_IT_number       1

loop_
  _space_group_symop_operation_xyz
  'x, y, z'

loop_
  _atom_site_type_symbol
  _atom_site_label
  _atom_site_symmetry_multiplicity
  _atom_site_fract_x
  _atom_site_fract_y
  _atom_site_fract_z
  _atom_site_occupancy
  Co  Co1       1.0  0.9562709927558899  0.4103492200374603  0.3934434652328491  1.0000
  Co  Co2       1.0  0.6235869526863098  0.7034485936164856  0.025123318657279015  1.0000
  Co  Co3       1.0  0.8109004497528076  0.9912941455841064  0.3461567461490631  1.0000
  Co  Co4       1.0  0.31259477138519287  0.1638694703578949  0.1060880571603775  1.0000
  Co  Co5       1.0  0.8204411864280701  0.1668226569890976  0.4759208858013153  1.0000
  F   F1        1.0  0.3322008550167084  0.703249454498291  0.10339703410863876  1.0000
  Ge  Ge1       1.0  0.3196585178375244  0.6619837880134583  0.9639348983764648  1.0000
  I   I1        1.0  0.8214030265808105  0.0947241559624672  0.9347684979438782  1.0000
  V   V1        1.0  0.31931713223457336  0.3756285607814789  0.9418935179710388  1.0000
