data_image0
_chemical_formula_structural       Na4Ni3O3
_chemical_formula_sum              "Na4 Ni3 O3"
_cell_length_a       5.255686241580201
_cell_length_b       5.838533247600691
_cell_length_c       5.740427494049072
_cell_angle_alpha    107.03919772102108
_cell_angle_beta     102.13091888119264
_cell_angle_gamma    115.17101132914435

_space_group_name_H-M_alt    "P 1"
_space_group_IT_number       1

loop_
  _space_group_symop_operation_xyz
  'x, y, z'

loop_
  _atom_site_type_symbol
  _atom_site_label
  _atom_site_symmetry_multiplicity
  _atom_site_fract_x
  _atom_site_fract_y
  _atom_site_fract_z
  _atom_site_occupancy
  Na  Na1       1.0  0.7340073585510254  0.32864487171173096  0.9982531070709229  1.0000
  Na  Na2       1.0  0.7413555383682251  0.7195048928260803  0.21779465675354004  1.0000
  Na  Na3       1.0  0.9888727068901062  0.49093711376190186  0.7289503812789917  1.0000
  Na  Na4       1.0  0.473001092672348  0.9909934997558594  0.48013144731521606  1.0000
  Ni  Ni1       1.0  0.25286632776260376  0.3523038625717163  0.2349691241979599  1.0000
  Ni  Ni2       1.0  0.28816908597946167  0.1307280957698822  0.7311208248138428  1.0000
  Ni  Ni3       1.0  0.29588913917541504  0.5745274424552917  0.7331554889678955  1.0000
  O   O1        1.0  0.5107153654098511  0.5130729079246521  0.9871222972869873  1.0000
  O   O2        1.0  0.8884980082511902  0.9481784105300903  0.94818514585495  1.0000
  O   O3        1.0  0.5596460700035095  0.24138595163822174  0.35688620805740356  1.0000
