data_image0
_chemical_formula_structural       HNa3Ni3O2Zn
_chemical_formula_sum              "H1 Na3 Ni3 O2 Zn1"
_cell_length_a       4.958815535919991
_cell_length_b       5.42017776651806
_cell_length_c       5.528257369995117
_cell_angle_alpha    68.69112427499856
_cell_angle_beta     63.8244363514633
_cell_angle_gamma    64.92282319525931

_space_group_name_H-M_alt    "P 1"
_space_group_IT_number       1

loop_
  _space_group_symop_operation_xyz
  'x, y, z'

loop_
  _atom_site_type_symbol
  _atom_site_label
  _atom_site_symmetry_multiplicity
  _atom_site_fract_x
  _atom_site_fract_y
  _atom_site_fract_z
  _atom_site_occupancy
  H   H1        1.0  0.504502534866333  0.6673345565795898  0.8132852911949158  1.0000
  Na  Na1       1.0  0.05531110614538193  0.047294050455093384  0.321944922208786  1.0000
  Na  Na2       1.0  0.3082965314388275  0.32989302277565  0.013908790424466133  1.0000
  Na  Na3       1.0  0.6164405345916748  0.8787441253662109  0.6661868691444397  1.0000
  Ni  Ni1       1.0  0.04816369712352753  0.02329723723232746  0.7728210091590881  1.0000
  Ni  Ni2       1.0  0.6059489846229553  0.8435875773429871  0.4986688494682312  1.0000
  Ni  Ni3       1.0  0.08858988434076309  0.35353049635887146  0.27797725796699524  1.0000
  O   O1        1.0  0.8729792237281799  0.6173929572105408  0.2911132276058197  1.0000
  O   O2        1.0  0.9694516658782959  0.17487719655036926  0.010878358967602253  1.0000
  Zn  Zn1       1.0  0.43209439516067505  0.6718993186950684  0.2563365399837494  1.0000
