data_image0
_chemical_formula_structural       Na3Ni3O4
_chemical_formula_sum              "Na3 Ni3 O4"
_cell_length_a       3.256502793260596
_cell_length_b       4.499684066834081
_cell_length_c       7.60837459564209
_cell_angle_alpha    80.44123170800998
_cell_angle_beta     68.66472144611195
_cell_angle_gamma    69.83875395456772

_space_group_name_H-M_alt    "P 1"
_space_group_IT_number       1

loop_
  _space_group_symop_operation_xyz
  'x, y, z'

loop_
  _atom_site_type_symbol
  _atom_site_label
  _atom_site_symmetry_multiplicity
  _atom_site_fract_x
  _atom_site_fract_y
  _atom_site_fract_z
  _atom_site_occupancy
  Na  Na1       1.0  0.509914219379425  0.5881872177124023  0.14802119135856628  1.0000
  Na  Na2       1.0  0.36047092080116266  0.09316766262054443  0.3547751307487488  1.0000
  Na  Na3       1.0  0.8686417937278746  0.2359001189470291  0.21423740684986115  1.0000
  Ni  Ni1       1.0  0.9938542842864989  0.4745708405971527  0.8484340310096741  1.0000
  Ni  Ni2       1.0  0.4817724525928497  0.08932482451200485  0.6445387005805969  1.0000
  Ni  Ni3       1.0  0.48522973060607905  0.10042466968297958  0.6436071395874023  1.0000
  O   O1        1.0  0.14003628492355347  0.8053041696548462  0.0396556816995144  1.0000
  O   O2        1.0  0.5047498941421509  0.5933500528335571  0.5506928563117981  1.0000
  O   O3        1.0  0.9390863180160521  0.9942812323570251  0.7305368185043335  1.0000
  O   O4        1.0  0.9164601564407348  0.41620638966560364  0.9237200021743774  1.0000
