data_image0
_chemical_formula_structural       HNa3Ni3O3
_chemical_formula_sum              "H1 Na3 Ni3 O3"
_cell_length_a       4.871362644420209
_cell_length_b       4.807694963253976
_cell_length_c       5.4222025871276855
_cell_angle_alpha    62.527728743440534
_cell_angle_beta     62.23435719691779
_cell_angle_gamma    59.694825798066724

_space_group_name_H-M_alt    "P 1"
_space_group_IT_number       1

loop_
  _space_group_symop_operation_xyz
  'x, y, z'

loop_
  _atom_site_type_symbol
  _atom_site_label
  _atom_site_symmetry_multiplicity
  _atom_site_fract_x
  _atom_site_fract_y
  _atom_site_fract_z
  _atom_site_occupancy
  H   H1        1.0  0.7303890585899353  0.3119586706161499  0.6028027534484863  1.0000
  Na  Na1       1.0  0.032225996255874634  0.907641589641571  0.2124437391757965  1.0000
  Na  Na2       1.0  0.6596161723136902  0.6511958241462708  0.004182640463113785  1.0000
  Na  Na3       1.0  0.5379515886306763  0.9427263140678406  0.649631142616272  1.0000
  Ni  Ni1       1.0  0.056444209069013596  0.41201600432395935  0.10700523853302002  1.0000
  Ni  Ni2       1.0  0.33408716320991516  0.31340262293815613  0.5625269412994385  1.0000
  Ni  Ni3       1.0  0.33160287141799927  0.6333001852035522  0.8534032702445984  1.0000
  O   O1        1.0  0.04355902224779129  0.13303963840007782  0.5463880300521851  1.0000
  O   O2        1.0  0.2664169371128082  0.5219749808311462  0.24715571105480194  1.0000
  O   O3        1.0  0.8951151371002197  0.7753943800926208  0.6903097629547119  1.0000
