data_image0
_chemical_formula_structural       Na2Ni5O3
_chemical_formula_sum              "Na2 Ni5 O3"
_cell_length_a       5.857312638696042
_cell_length_b       5.846680984106081
_cell_length_c       6.14894437789917
_cell_angle_alpha    59.397125811503706
_cell_angle_beta     58.13490719595753
_cell_angle_gamma    57.69094033714989

_space_group_name_H-M_alt    "P 1"
_space_group_IT_number       1

loop_
  _space_group_symop_operation_xyz
  'x, y, z'

loop_
  _atom_site_type_symbol
  _atom_site_label
  _atom_site_symmetry_multiplicity
  _atom_site_fract_x
  _atom_site_fract_y
  _atom_site_fract_z
  _atom_site_occupancy
  Na  Na1       1.0  0.24576151371002197  0.11049234867095947  0.03014075756072998  1.0000
  Na  Na2       1.0  0.47074657678604126  0.8732650876045227  0.03012496791779995  1.0000
  Ni  Ni1       1.0  0.08159321546554565  0.25116166472435  0.5385264754295349  1.0000
  Ni  Ni2       1.0  0.7396489977836609  0.2311830371618271  0.8148207664489746  1.0000
  Ni  Ni3       1.0  0.715919017791748  0.6231799125671387  0.03556472435593605  1.0000
  Ni  Ni4       1.0  0.7171897292137146  0.6241679191589355  0.644425630569458  1.0000
  Ni  Ni5       1.0  0.3442762494087219  0.7417174577713013  0.7798228859901428  1.0000
  O   O1        1.0  0.9883716702461243  0.9636499285697937  0.3214057981967926  1.0000
  O   O2        1.0  0.2852897047996521  0.27855077385902405  0.9031212329864502  1.0000
  O   O3        1.0  0.7785407304763794  0.6895249485969543  0.5245640277862549  1.0000
