data_image0
_chemical_formula_structural       Na3Ni3O4
_chemical_formula_sum              "Na3 Ni3 O4"
_cell_length_a       4.375935714801745
_cell_length_b       5.149355178494689
_cell_length_c       6.576157569885254
_cell_angle_alpha    79.3074271834165
_cell_angle_beta     70.25703155792083
_cell_angle_gamma    63.749241460585495

_space_group_name_H-M_alt    "P 1"
_space_group_IT_number       1

loop_
  _space_group_symop_operation_xyz
  'x, y, z'

loop_
  _atom_site_type_symbol
  _atom_site_label
  _atom_site_symmetry_multiplicity
  _atom_site_fract_x
  _atom_site_fract_y
  _atom_site_fract_z
  _atom_site_occupancy
  Na  Na1       1.0  0.22574172914028168  0.5676172375679016  0.5370312929153442  1.0000
  Na  Na2       1.0  0.9890415668487549  0.2588598132133484  0.5386441349983215  1.0000
  Na  Na3       1.0  0.750435471534729  0.36603686213493347  0.9871917963027955  1.0000
  Ni  Ni1       1.0  0.30963227152824396  0.919965147972107  0.1348089873790741  1.0000
  Ni  Ni2       1.0  0.6457842588424683  0.9236587285995485  0.808607578277588  1.0000
  Ni  Ni3       1.0  0.6286574006080627  0.9032031893730165  0.38861396908760076  1.0000
  O   O1        1.0  0.015210011973977089  0.8115250468254089  0.30828556418418884  1.0000
  O   O2        1.0  0.5129319429397583  0.6393929123878479  0.5187098979949951  1.0000
  O   O3        1.0  0.952700674533844  0.6861789226531982  0.678817093372345  1.0000
  O   O4        1.0  0.1465100198984146  0.6034095883369446  0.8085221648216249  1.0000
