data_image0
_chemical_formula_structural       GaHILiZr2
_chemical_formula_sum              "Ga1 H1 I1 Li1 Zr2"
_cell_length_a       5.07349633650737
_cell_length_b       4.718835390493397
_cell_length_c       5.351559638977051
_cell_angle_alpha    58.19778047572107
_cell_angle_beta     60.154721613049865
_cell_angle_gamma    55.63765966694358

_space_group_name_H-M_alt    "P 1"
_space_group_IT_number       1

loop_
  _space_group_symop_operation_xyz
  'x, y, z'

loop_
  _atom_site_type_symbol
  _atom_site_label
  _atom_site_symmetry_multiplicity
  _atom_site_fract_x
  _atom_site_fract_y
  _atom_site_fract_z
  _atom_site_occupancy
  Ga  Ga1       1.0  0.11999508738517761  0.021146129816770554  0.00898390356451272  1.0000
  H   H1        1.0  0.8500595688819885  0.41884317994117737  0.7905592322349548  1.0000
  I   I1        1.0  0.7217532992362976  0.423289954662323  0.7088260054588318  1.0000
  Li  Li1       1.0  0.6776854991912842  0.7978306412696838  0.15503644943237305  1.0000
  Zr  Zr1       1.0  0.32752859592437744  0.9556837677955627  0.746475875377655  1.0000
  Zr  Zr2       1.0  0.6693849563598633  0.5631473064422607  0.7325236201286316  1.0000
