data_image0
_chemical_formula_structural       Cr2GaHIZr
_chemical_formula_sum              "Cr2 Ga1 H1 I1 Zr1"
_cell_length_a       3.8102520389728993
_cell_length_b       3.5565298365278752
_cell_length_c       7.350912570953369
_cell_angle_alpha    110.16909733512755
_cell_angle_beta     93.311089270394
_cell_angle_gamma    122.09645721256122

_space_group_name_H-M_alt    "P 1"
_space_group_IT_number       1

loop_
  _space_group_symop_operation_xyz
  'x, y, z'

loop_
  _atom_site_type_symbol
  _atom_site_label
  _atom_site_symmetry_multiplicity
  _atom_site_fract_x
  _atom_site_fract_y
  _atom_site_fract_z
  _atom_site_occupancy
  Cr  Cr1       1.0  0.10985291749238962  0.9213106036186217  0.23692581057548523  1.0000
  Cr  Cr2       1.0  0.10471118241548538  0.6576239466667175  0.5749145746231079  1.0000
  Ga  Ga1       1.0  0.12139797210693354  0.9377583265304564  0.014347742311656475  1.0000
  H   H1        1.0  0.627001941204071  0.0188276469707489  0.7399851679801941  1.0000
  I   I1        1.0  0.12015338242053986  0.5952160358428955  0.2007727324962616  1.0000
  Zr  Zr1       1.0  0.6209163069725037  0.1187804266810417  0.1632535457611084  1.0000
