data_image0
_chemical_formula_structural       As2CoCs4P4
_chemical_formula_sum              "As2 Co1 Cs4 P4"
_cell_length_a       5.17984482769809
_cell_length_b       8.959165313115351
_cell_length_c       9.81678295135498
_cell_angle_alpha    113.5284452211576
_cell_angle_beta     90.36460048284616
_cell_angle_gamma    89.46563942244187

_space_group_name_H-M_alt    "P 1"
_space_group_IT_number       1

loop_
  _space_group_symop_operation_xyz
  'x, y, z'

loop_
  _atom_site_type_symbol
  _atom_site_label
  _atom_site_symmetry_multiplicity
  _atom_site_fract_x
  _atom_site_fract_y
  _atom_site_fract_z
  _atom_site_occupancy
  As  As1       1.0  0.5686833262443542  0.8331508636474609  0.9951044917106628  1.0000
  As  As2       1.0  0.05027545243501663  0.8444928526878357  0.9148033857345581  1.0000
  Co  Co1       1.0  0.07199060171842575  0.8311534523963928  0.5502188205718994  1.0000
  Cs  Cs1       1.0  0.06520038098096848  0.4633142948150635  0.8456162214279175  1.0000
  Cs  Cs2       1.0  0.06683580577373505  0.14662407338619232  0.6855395436286926  1.0000
  Cs  Cs3       1.0  0.06946391612291336  0.08509156852960587  0.9497509002685547  1.0000
  Cs  Cs4       1.0  0.5704467296600342  0.14382338523864746  0.6815873384475708  1.0000
  P   P1        1.0  0.569148063659668  0.7001051902770996  0.9266626834869385  1.0000
  P   P2        1.0  0.5680750608444214  0.46159982681274414  0.8431882262229919  1.0000
  P   P3        1.0  0.06735128164291382  0.6483203172683716  0.4394209682941437  1.0000
  P   P4        1.0  0.5730762481689453  0.19260789453983307  0.8035662770271301  1.0000
