data_image0
_chemical_formula_structural       Cs5HP2PbTiZn
_chemical_formula_sum              "Cs5 H1 P2 Pb1 Ti1 Zn1"
_cell_length_a       5.911064670905402
_cell_length_b       7.614518500802872
_cell_length_c       10.576751708984375
_cell_angle_alpha    106.76289055969323
_cell_angle_beta     102.68707429901036
_cell_angle_gamma    89.56298526977022

_space_group_name_H-M_alt    "P 1"
_space_group_IT_number       1

loop_
  _space_group_symop_operation_xyz
  'x, y, z'

loop_
  _atom_site_type_symbol
  _atom_site_label
  _atom_site_symmetry_multiplicity
  _atom_site_fract_x
  _atom_site_fract_y
  _atom_site_fract_z
  _atom_site_occupancy
  Cs  Cs1       1.0  0.8007978796958923  0.2332753688097  0.024065831676125526  1.0000
  Cs  Cs2       1.0  0.8192518949508667  0.5770295262336731  0.15632018446922302  1.0000
  Cs  Cs3       1.0  0.684511661529541  0.5630319118499756  0.45961129665374756  1.0000
  Cs  Cs4       1.0  0.3222508728504181  0.17673370242118835  0.317413866519928  1.0000
  Cs  Cs5       1.0  0.8079420328140259  0.9766853451728821  0.48895329236984253  1.0000
  H   H1        1.0  0.3155648708343506  0.9811699390411377  0.9633266925811768  1.0000
  P   P1        1.0  0.2973594069480896  0.7274879217147827  0.02115778438746929  1.0000
  P   P2        1.0  0.28986856341362  0.28282228112220764  0.55338054895401  1.0000
  Pb  Pb1       1.0  0.7672486901283264  0.9516920447349548  0.0910129994153976  1.0000
  Ti  Ti1       1.0  0.9066975712776184  0.9815741777420044  0.5294221043586731  1.0000
  Zn  Zn1       1.0  0.6182202100753784  0.7407806515693665  0.7161950469017029  1.0000
