data_image0
_chemical_formula_structural       Co3NaPb6Rb
_chemical_formula_sum              "Co3 Na1 Pb6 Rb1"
_cell_length_a       5.715021720942701
_cell_length_b       8.75099097907894
_cell_length_c       9.024243354797363
_cell_angle_alpha    120.99689231017062
_cell_angle_beta     89.50668984900689
_cell_angle_gamma    88.11973460877518

_space_group_name_H-M_alt    "P 1"
_space_group_IT_number       1

loop_
  _space_group_symop_operation_xyz
  'x, y, z'

loop_
  _atom_site_type_symbol
  _atom_site_label
  _atom_site_symmetry_multiplicity
  _atom_site_fract_x
  _atom_site_fract_y
  _atom_site_fract_z
  _atom_site_occupancy
  Co  Co1       1.0  0.4528101682662964  0.3578007519245148  0.8934938311576843  1.0000
  Co  Co2       1.0  0.44388192892074585  0.4019958078861237  0.5809358954429626  1.0000
  Co  Co3       1.0  0.9627501964569092  0.07668148726224899  0.009905508719384677  1.0000
  Na  Na1       1.0  0.9601616859436035  0.8505026102066041  0.9283407926559448  1.0000
  Pb  Pb1       1.0  0.9378498196601868  0.35626536607742315  0.120176337659359  1.0000
  Pb  Pb2       1.0  0.9539414644241333  0.6097750067710876  0.21201646327972418  1.0000
  Pb  Pb3       1.0  0.4635092616081238  0.48157250881195074  0.6306643486022949  1.0000
  Pb  Pb4       1.0  0.46425631642341614  0.3723021745681763  0.3220128118991852  1.0000
  Pb  Pb5       1.0  0.9536965489387512  0.04652152955532075  0.10737233608961105  1.0000
  Pb  Pb6       1.0  0.4593011438846588  0.440930724143982  0.40467748045921326  1.0000
  Rb  Rb1       1.0  0.4555816948413849  0.9160452485084535  0.01702350191771994  1.0000
