data_image0
_chemical_formula_structural       Co2CsLaNaPb5Pr
_chemical_formula_sum              "Co2 Cs1 La1 Na1 Pb5 Pr1"
_cell_length_a       6.082828596830677
_cell_length_b       9.325309434828798
_cell_length_c       9.72913932800293
_cell_angle_alpha    120.13864448835386
_cell_angle_beta     88.64860783109575
_cell_angle_gamma    89.32073686393659

_space_group_name_H-M_alt    "P 1"
_space_group_IT_number       1

loop_
  _space_group_symop_operation_xyz
  'x, y, z'

loop_
  _atom_site_type_symbol
  _atom_site_label
  _atom_site_symmetry_multiplicity
  _atom_site_fract_x
  _atom_site_fract_y
  _atom_site_fract_z
  _atom_site_occupancy
  Co  Co1       1.0  0.2557586431503296  0.6585823893547058  0.30300140380859375  1.0000
  Co  Co2       1.0  0.005331128835678101  0.29516831040382385  0.9769603610038757  1.0000
  Cs  Cs1       1.0  0.0011375026078894734  0.6414757370948792  0.9745713472366333  1.0000
  La  La1       1.0  0.762054443359375  0.12035864591598511  0.599457323551178  1.0000
  Na  Na1       1.0  0.2637772560119629  0.8068806529045105  0.35895785689353943  1.0000
  Pb  Pb1       1.0  0.2552345097064972  0.6027197241783142  0.468540221452713  1.0000
  Pb  Pb2       1.0  0.265903502702713  0.7929973006248474  0.6508450508117676  1.0000
  Pb  Pb3       1.0  0.7477747797966003  0.2496126890182495  0.38406452536582947  1.0000
  Pb  Pb4       1.0  0.24793054163455963  0.025337770581245422  0.3294016420841217  1.0000
  Pb  Pb5       1.0  0.5033001899719238  0.10313805937767029  0.9598522782325745  1.0000
  Pr  Pr1       1.0  0.7645832300186157  0.5087856650352478  0.20968589186668396  1.0000
