data_image0
_chemical_formula_structural       Cs6LiP2PbTi
_chemical_formula_sum              "Cs6 Li1 P2 Pb1 Ti1"
_cell_length_a       5.695639690387126
_cell_length_b       9.34541167287195
_cell_length_c       9.890329360961914
_cell_angle_alpha    119.68406537517657
_cell_angle_beta     90.57340940660409
_cell_angle_gamma    89.19335346630672

_space_group_name_H-M_alt    "P 1"
_space_group_IT_number       1

loop_
  _space_group_symop_operation_xyz
  'x, y, z'

loop_
  _atom_site_type_symbol
  _atom_site_label
  _atom_site_symmetry_multiplicity
  _atom_site_fract_x
  _atom_site_fract_y
  _atom_site_fract_z
  _atom_site_occupancy
  Cs  Cs1       1.0  0.7836704850196838  0.07359286397695541  0.9551596641540527  1.0000
  Cs  Cs2       1.0  0.2835460901260376  0.26153960824012756  0.010269291698932648  1.0000
  Cs  Cs3       1.0  0.2821008861064911  0.8110706806182861  0.19840089976787562  1.0000
  Cs  Cs4       1.0  0.7824201583862305  0.31904086470603943  0.5209718346595764  1.0000
  Cs  Cs5       1.0  0.2837022840976715  0.7395185232162476  0.3957569003105163  1.0000
  Cs  Cs6       1.0  0.7734102010726929  0.31883567571640015  0.056751322001218775  1.0000
  Li  Li1       1.0  0.28484106063842773  0.057152777910232544  0.7414627075195312  1.0000
  P   P1        1.0  0.284807950258255  0.5373677015304565  0.16674134135246277  1.0000
  P   P2        1.0  0.7857914566993713  0.04896783083677292  0.7251888513565063  1.0000
  Pb  Pb1       1.0  0.7841298580169678  0.752359926700592  0.45060452818870544  1.0000
  Ti  Ti1       1.0  0.280887633562088  0.8055992722511292  0.5712535381317139  1.0000
