data_image0
_chemical_formula_structural       Cs6LiP2Pb2
_chemical_formula_sum              "Cs6 Li1 P2 Pb2"
_cell_length_a       5.850185162328512
_cell_length_b       9.783843626820538
_cell_length_c       10.016291618347168
_cell_angle_alpha    119.5479778426081
_cell_angle_beta     89.90888424538971
_cell_angle_gamma    89.3996615223452

_space_group_name_H-M_alt    "P 1"
_space_group_IT_number       1

loop_
  _space_group_symop_operation_xyz
  'x, y, z'

loop_
  _atom_site_type_symbol
  _atom_site_label
  _atom_site_symmetry_multiplicity
  _atom_site_fract_x
  _atom_site_fract_y
  _atom_site_fract_z
  _atom_site_occupancy
  Cs  Cs1       1.0  0.6004780530929565  0.24145781993865967  0.6855040788650513  1.0000
  Cs  Cs2       1.0  0.6395307779312134  0.29771536588668823  0.41159379482269287  1.0000
  Cs  Cs3       1.0  0.6060183644294739  0.03492889925837517  0.06116127595305443  1.0000
  Cs  Cs4       1.0  0.11366336792707443  0.3026411533355713  0.7181869149208069  1.0000
  Cs  Cs5       1.0  0.6452429294586182  0.044589534401893616  0.5671165585517883  1.0000
  Cs  Cs6       1.0  0.6293404698371887  0.7920660376548767  0.01827741600573072  1.0000
  Li  Li1       1.0  0.1448102742433548  0.4413410723209381  0.5318789482116699  1.0000
  P   P1        1.0  0.12049470096826553  0.7852304577827454  0.8707004189491274  1.0000
  P   P2        1.0  0.6154487729072571  0.7376042604446411  0.7599368691444399  1.0000
  Pb  Pb1       1.0  0.15867306292057037  0.24137598276138306  0.2262844294309616  1.0000
  Pb  Pb2       1.0  0.6135545969009399  0.12633265554904938  0.32470643520355225  1.0000
