data_image0
_chemical_formula_structural       Fe2GdZn2Zr2
_chemical_formula_sum              "Fe2 Gd1 Zn2 Zr2"
_cell_length_a       4.217926289054194
_cell_length_b       5.146509136830951
_cell_length_c       6.664702415466309
_cell_angle_alpha    111.67717116245795
_cell_angle_beta     91.11355107071284
_cell_angle_gamma    103.05824683725587

_space_group_name_H-M_alt    "P 1"
_space_group_IT_number       1

loop_
  _space_group_symop_operation_xyz
  'x, y, z'

loop_
  _atom_site_type_symbol
  _atom_site_label
  _atom_site_symmetry_multiplicity
  _atom_site_fract_x
  _atom_site_fract_y
  _atom_site_fract_z
  _atom_site_occupancy
  Fe  Fe1       1.0  0.05785290151834488  0.5138601064682007  0.11235161125659943  1.0000
  Fe  Fe2       1.0  0.5535693764686584  0.3177667260169983  0.6037061810493469  1.0000
  Gd  Gd1       1.0  0.5583381056785583  0.740181565284729  0.4892321228981018  1.0000
  Zn  Zn1       1.0  0.05414221063256264  0.3290473520755768  0.535910427570343  1.0000
  Zn  Zn2       1.0  0.053140703588724136  0.7596104145050049  0.49095627665519714  1.0000
  Zr  Zr1       1.0  0.5552642941474915  0.33818209171295166  0.48530563712120056  1.0000
  Zr  Zr2       1.0  0.06444571167230606  0.2519942820072174  0.9210416674613953  1.0000
