data_image0
_chemical_formula_structural       Fe4Sn3
_chemical_formula_sum              "Fe4 Sn3"
_cell_length_a       4.646597767444478
_cell_length_b       5.578470900890739
_cell_length_c       5.288289546966553
_cell_angle_alpha    71.0571588693034
_cell_angle_beta     64.26902573323363
_cell_angle_gamma    63.376549359437355

_space_group_name_H-M_alt    "P 1"
_space_group_IT_number       1

loop_
  _space_group_symop_operation_xyz
  'x, y, z'

loop_
  _atom_site_type_symbol
  _atom_site_label
  _atom_site_symmetry_multiplicity
  _atom_site_fract_x
  _atom_site_fract_y
  _atom_site_fract_z
  _atom_site_occupancy
  Fe  Fe1       1.0  0.26455074548721313  0.11139737814664841  0.2522316873073578  1.0000
  Fe  Fe2       1.0  0.6817249059677124  0.30517593026161194  0.5588356256484985  1.0000
  Fe  Fe3       1.0  0.2544786036014557  0.5998713970184326  0.07403936237096786  1.0000
  Fe  Fe4       1.0  0.7657122015953064  0.6080666780471802  0.6531710028648376  1.0000
  Sn  Sn1       1.0  0.7641047835350037  0.16761235892772675  0.6775508522987366  1.0000
  Sn  Sn2       1.0  0.7604957222938538  0.2806238830089569  0.11710125952959062  1.0000
  Sn  Sn3       1.0  0.26112356781959534  0.6244453191757202  0.3194507360458374  1.0000
