data_image0
_chemical_formula_structural       Fe4Sn3
_chemical_formula_sum              "Fe4 Sn3"
_cell_length_a       4.917568990747705
_cell_length_b       5.155048307601921
_cell_length_c       5.185860633850098
_cell_angle_alpha    60.32968445062569
_cell_angle_beta     62.9031538419655
_cell_angle_gamma    60.481152396026594

_space_group_name_H-M_alt    "P 1"
_space_group_IT_number       1

loop_
  _space_group_symop_operation_xyz
  'x, y, z'

loop_
  _atom_site_type_symbol
  _atom_site_label
  _atom_site_symmetry_multiplicity
  _atom_site_fract_x
  _atom_site_fract_y
  _atom_site_fract_z
  _atom_site_occupancy
  Fe  Fe1       1.0  0.5008639097213745  0.8697679042816162  0.4443645775318146  1.0000
  Fe  Fe2       1.0  0.5020054578781128  0.4717901647090912  0.4981382191181183  1.0000
  Fe  Fe3       1.0  0.7595342993736267  0.10338674485683441  0.36716663837432867  1.0000
  Fe  Fe4       1.0  0.9673735499382019  0.7775846123695374  0.5855367183685303  1.0000
  Sn  Sn1       1.0  0.3930380940437317  0.8308576941490173  0.764388382434845  1.0000
  Sn  Sn2       1.0  0.9813226461410522  0.1829766482114792  0.17107686400413513  1.0000
  Sn  Sn3       1.0  0.0022242276463657618  0.04698293283581734  0.5021162629127502  1.0000
