data_image0
_chemical_formula_structural       AsFePPbScZn2
_chemical_formula_sum              "As1 Fe1 P1 Pb1 Sc1 Zn2"
_cell_length_a       4.916830418838872
_cell_length_b       4.791822362226195
_cell_length_c       5.569448947906494
_cell_angle_alpha    126.18697893041175
_cell_angle_beta     92.96275904547552
_cell_angle_gamma    90.29038543283939

_space_group_name_H-M_alt    "P 1"
_space_group_IT_number       1

loop_
  _space_group_symop_operation_xyz
  'x, y, z'

loop_
  _atom_site_type_symbol
  _atom_site_label
  _atom_site_symmetry_multiplicity
  _atom_site_fract_x
  _atom_site_fract_y
  _atom_site_fract_z
  _atom_site_occupancy
  As  As1       1.0  0.7410503029823303  0.8152362704277039  0.4806625247001648  1.0000
  Fe  Fe1       1.0  0.1749662309885025  0.07603999227285385  0.3572109043598175  1.0000
  P   P1        1.0  0.17344783246517181  0.6182053685188293  0.7090185880661011  1.0000
  Pb  Pb1       1.0  0.17853404581546783  0.7195180058479309  0.7644422054290771  1.0000
  Sc  Sc1       1.0  0.6763677000999451  0.06040116772055626  0.37754449248313904  1.0000
  Zn  Zn1       1.0  0.6766956448554993  0.2755810618400574  0.8917852640151978  1.0000
  Zn  Zn2       1.0  0.6779860854148865  0.7111822962760925  0.7640252113342285  1.0000
