data_image0
_chemical_formula_structural       Al4O2
_chemical_formula_sum              "Al4 O2"
_cell_length_a       4.711468698656589
_cell_length_b       4.889050255964373
_cell_length_c       5.168612003326416
_cell_angle_alpha    73.14880049493635
_cell_angle_beta     69.32069611304136
_cell_angle_gamma    65.37885635498965

_space_group_name_H-M_alt    "P 1"
_space_group_IT_number       1

loop_
  _space_group_symop_operation_xyz
  'x, y, z'

loop_
  _atom_site_type_symbol
  _atom_site_label
  _atom_site_symmetry_multiplicity
  _atom_site_fract_x
  _atom_site_fract_y
  _atom_site_fract_z
  _atom_site_occupancy
  Al  Al1       1.0  0.6549440622329712  0.4962941110134125  0.35337555408477783  1.0000
  Al  Al2       1.0  0.6608180403709412  0.5474461317062378  0.5689904093742371  1.0000
  Al  Al3       1.0  0.17060497403144836  0.6579849123954773  0.7722540497779846  1.0000
  Al  Al4       1.0  0.1646803617477417  0.8190222382545471  0.0610700137913227  1.0000
  O   O1        1.0  0.4009023606777191  0.41944655776023865  0.32011908292770386  1.0000
  O   O2        1.0  0.8781572580337524  0.39180198311805725  0.20158877968788147  1.0000
