data_image0
_chemical_formula_structural       Al3AsO2
_chemical_formula_sum              "Al3 As1 O2"
_cell_length_a       5.306712468045486
_cell_length_b       4.9362596772240535
_cell_length_c       5.550377368927002
_cell_angle_alpha    68.23398018648358
_cell_angle_beta     65.23673909053079
_cell_angle_gamma    61.636561925375105

_space_group_name_H-M_alt    "P 1"
_space_group_IT_number       1

loop_
  _space_group_symop_operation_xyz
  'x, y, z'

loop_
  _atom_site_type_symbol
  _atom_site_label
  _atom_site_symmetry_multiplicity
  _atom_site_fract_x
  _atom_site_fract_y
  _atom_site_fract_z
  _atom_site_occupancy
  Al  Al1       1.0  0.06746447086334229  0.4763152599334717  0.8362826108932495  1.0000
  Al  Al2       1.0  0.5888268947601318  0.349345326423645  0.5002285838127136  1.0000
  Al  Al3       1.0  0.08979515731334686  0.7960653305053711  0.6370335221290588  1.0000
  As  As1       1.0  0.622072696685791  0.1950775384902954  0.9944038391113281  1.0000
  O   O1        1.0  0.12894940376281738  0.8323966264724731  0.20560929179191584  1.0000
  O   O2        1.0  0.4023900330066681  0.7947697639465332  0.8731138706207275  1.0000
