data_image0
_chemical_formula_structural       CoCs2I3LiO2
_chemical_formula_sum              "Co1 Cs2 I3 Li1 O2"
_cell_length_a       5.354079903433848
_cell_length_b       5.727873119422856
_cell_length_c       9.91139030456543
_cell_angle_alpha    90.23419298471472
_cell_angle_beta     90.36060067293518
_cell_angle_gamma    89.87880818596912

_space_group_name_H-M_alt    "P 1"
_space_group_IT_number       1

loop_
  _space_group_symop_operation_xyz
  'x, y, z'

loop_
  _atom_site_type_symbol
  _atom_site_label
  _atom_site_symmetry_multiplicity
  _atom_site_fract_x
  _atom_site_fract_y
  _atom_site_fract_z
  _atom_site_occupancy
  Co  Co1       1.0  0.258136510848999  0.520809531211853  0.8708240389823914  1.0000
  Cs  Cs1       1.0  0.740900993347168  0.6616612076759338  0.8565720319747925  1.0000
  Cs  Cs2       1.0  0.8128952980041503  0.05481662228703499  0.37112531065940857  1.0000
  I   I1        1.0  0.280487596988678  0.020339177921414375  0.5487247109413147  1.0000
  I   I2        1.0  0.7738187313079834  0.4680464267730713  0.47064757347106934  1.0000
  I   I3        1.0  0.25047722458839417  0.3866531252861023  0.5251822471618652  1.0000
  Li  Li1       1.0  0.20569622516632077  0.6780078411102295  0.5361791849136353  1.0000
  O   O1        1.0  0.18775086104869843  0.8953866958618164  0.24947074055671692  1.0000
  O   O2        1.0  0.30463728308677673  0.46895137429237366  0.9944722652435303  1.0000
