data_image0
_chemical_formula_structural       Cs2Ge2O3PbV
_chemical_formula_sum              "Cs2 Ge2 O3 Pb1 V1"
_cell_length_a       4.919661173612216
_cell_length_b       4.165134039316071
_cell_length_c       10.29018783569336
_cell_angle_alpha    88.28616744251161
_cell_angle_beta     90.72029193743617
_cell_angle_gamma    146.50201978230203

_space_group_name_H-M_alt    "P 1"
_space_group_IT_number       1

loop_
  _space_group_symop_operation_xyz
  'x, y, z'

loop_
  _atom_site_type_symbol
  _atom_site_label
  _atom_site_symmetry_multiplicity
  _atom_site_fract_x
  _atom_site_fract_y
  _atom_site_fract_z
  _atom_site_occupancy
  Cs  Cs1       1.0  0.6523916721343994  0.46978506445884705  0.40902748703956604  1.0000
  Cs  Cs2       1.0  0.04706999287009239  0.030005499720573425  0.44251778721809387  1.0000
  Ge  Ge1       1.0  0.07617688924074173  0.20012344419956207  0.5816410779953003  1.0000
  Ge  Ge2       1.0  0.05347319692373276  0.8243493437767029  0.954061210155487  1.0000
  O   O1        1.0  0.3926541209220886  0.821488618850708  0.17587769031524658  1.0000
  O   O2        1.0  0.7937435507774353  0.06629917770624161  0.674741804599762  1.0000
  O   O3        1.0  0.4662605822086334  0.9054384827613831  0.8824343085289001  1.0000
  Pb  Pb1       1.0  0.3403281569480896  0.9225193858146667  0.13393338024616241  1.0000
  V   V1        1.0  0.8862946033477783  0.7187129259109497  0.659020721912384  1.0000
