data_image0
_chemical_formula_structural       Cs7O2
_chemical_formula_sum              "Cs7 O2"
_cell_length_a       5.135834743428718
_cell_length_b       6.032368350428875
_cell_length_c       7.4058427810668945
_cell_angle_alpha    112.04569603164515
_cell_angle_beta     95.13119632129093
_cell_angle_gamma    86.60627682743846

_space_group_name_H-M_alt    "P 1"
_space_group_IT_number       1

loop_
  _space_group_symop_operation_xyz
  'x, y, z'

loop_
  _atom_site_type_symbol
  _atom_site_label
  _atom_site_symmetry_multiplicity
  _atom_site_fract_x
  _atom_site_fract_y
  _atom_site_fract_z
  _atom_site_occupancy
  Cs  Cs1       1.0  0.1567021608352661  0.6031211614608765  0.5298416018486023  1.0000
  Cs  Cs2       1.0  0.2755490839481354  0.2936948835849762  0.21767114102840424  1.0000
  Cs  Cs3       1.0  0.6950086355209351  0.05463702231645584  0.9834145307540894  1.0000
  Cs  Cs4       1.0  0.6362131834030151  0.41516223549842834  0.7628238201141357  1.0000
  Cs  Cs5       1.0  0.654369592666626  0.26854586601257324  0.9118768572807312  1.0000
  Cs  Cs6       1.0  0.789046049118042  0.25948888063430786  0.8602038025856018  1.0000
  Cs  Cs7       1.0  0.7880006432533264  0.17689861357212067  0.36593183875083923  1.0000
  O   O1        1.0  0.26620543003082275  0.44571056962013245  0.3496547341346741  1.0000
  O   O2        1.0  0.261944979429245  0.8713408708572388  0.1039445623755455  1.0000
