data_image0
_chemical_formula_structural       Cs6O3
_chemical_formula_sum              "Cs6 O3"
_cell_length_a       6.078708622635751
_cell_length_b       5.822301847952843
_cell_length_c       6.781993389129639
_cell_angle_alpha    105.49083741028876
_cell_angle_beta     104.67456289771162
_cell_angle_gamma    103.85006737195246

_space_group_name_H-M_alt    "P 1"
_space_group_IT_number       1

loop_
  _space_group_symop_operation_xyz
  'x, y, z'

loop_
  _atom_site_type_symbol
  _atom_site_label
  _atom_site_symmetry_multiplicity
  _atom_site_fract_x
  _atom_site_fract_y
  _atom_site_fract_z
  _atom_site_occupancy
  Cs  Cs1       1.0  0.458671897649765  0.12313809990882872  0.06234123557806017  1.0000
  Cs  Cs2       1.0  0.7268160581588745  0.2718329131603241  0.8750010132789612  1.0000
  Cs  Cs3       1.0  0.4061638116836548  0.8413219451904296  0.6794806718826294  1.0000
  Cs  Cs4       1.0  0.24526095390319824  0.4521563053131103  0.6139503121376038  1.0000
  Cs  Cs5       1.0  0.5304361581802368  0.6233712434768677  0.04571586102247238  1.0000
  Cs  Cs6       1.0  0.5897589325904846  0.3885137438774109  0.1361003816127777  1.0000
  O   O1        1.0  0.9028832316398621  0.7783747315406799  0.25626590847969055  1.0000
  O   O2        1.0  0.9407098889350891  0.9071335196495055  0.059164244681596756  1.0000
  O   O3        1.0  0.1798044592142105  0.505384087562561  0.03340575844049454  1.0000
