data_image0
_chemical_formula_structural       Cs3O4Sb2
_chemical_formula_sum              "Cs3 O4 Sb2"
_cell_length_a       6.273789939242685
_cell_length_b       4.50186146938341
_cell_length_c       7.08027458190918
_cell_angle_alpha    59.902573615933456
_cell_angle_beta     65.49198514050697
_cell_angle_gamma    45.70144694688364

_space_group_name_H-M_alt    "P 1"
_space_group_IT_number       1

loop_
  _space_group_symop_operation_xyz
  'x, y, z'

loop_
  _atom_site_type_symbol
  _atom_site_label
  _atom_site_symmetry_multiplicity
  _atom_site_fract_x
  _atom_site_fract_y
  _atom_site_fract_z
  _atom_site_occupancy
  Cs  Cs1       1.0  0.5520503520965576  0.13019655644893646  0.04709843546152115  1.0000
  Cs  Cs2       1.0  0.06348604708909988  0.13430684804916382  0.10641392320394517  1.0000
  Cs  Cs3       1.0  0.13478635251522064  0.48546358942985535  0.679513692855835  1.0000
  O   O1        1.0  0.9419492483139038  0.4058854877948761  0.45563736557960516  1.0000
  O   O2        1.0  0.03320718929171562  0.41493844985961914  0.22315637767314914  1.0000
  O   O3        1.0  0.5335797071456909  0.4365849494934082  0.21360439062118533  1.0000
  O   O4        1.0  0.8008695244789124  0.7324516773223877  0.8971911072731019  1.0000
  Sb  Sb1       1.0  0.037199851125478745  0.31928834319114685  0.2032167762517929  1.0000
  Sb  Sb2       1.0  0.3184320330619812  0.40838420391082764  0.7550713419914246  1.0000
