data_image0
_chemical_formula_structural       CCaCs2I3LuO
_chemical_formula_sum              "C1 Ca1 Cs2 I3 Lu1 O1"
_cell_length_a       7.516025754157739
_cell_length_b       7.516930029154832
_cell_length_c       8.093143463134766
_cell_angle_alpha    69.74072697255193
_cell_angle_beta     67.16794057924739
_cell_angle_gamma    67.86039889903417

_space_group_name_H-M_alt    "P 1"
_space_group_IT_number       1

loop_
  _space_group_symop_operation_xyz
  'x, y, z'

loop_
  _atom_site_type_symbol
  _atom_site_label
  _atom_site_symmetry_multiplicity
  _atom_site_fract_x
  _atom_site_fract_y
  _atom_site_fract_z
  _atom_site_occupancy
  C   C1        1.0  0.04803035408258438  0.0688328742980957  0.3789173662662506  1.0000
  Ca  Ca1       1.0  0.5318936109542847  0.4215055704116822  0.42533761262893677  1.0000
  Cs  Cs1       1.0  0.4152894914150238  0.4165676832199097  0.40506207942962646  1.0000
  Cs  Cs2       1.0  0.41406184434890747  0.43722876906394964  0.7910239696502686  1.0000
  I   I1        1.0  0.3960062563419342  0.8145877122879029  0.8345617651939392  1.0000
  I   I2        1.0  0.9087918996810913  0.3786805272102356  0.9109842777252197  1.0000
  I   I3        1.0  0.4776555001735687  0.966696321964264  0.5221736431121826  1.0000
  Lu  Lu1       1.0  0.9731197357177734  0.02423807792365551  0.08557379245758057  1.0000
  O   O1        1.0  0.9177502989768982  0.18063406646251678  0.5335342884063721  1.0000
