data_image0
_chemical_formula_structural       LuSn5Sr5
_chemical_formula_sum              "Lu1 Sn5 Sr5"
_cell_length_a       5.545725661683075
_cell_length_b       8.31416747838845
_cell_length_c       9.826811790466309
_cell_angle_alpha    88.37350799043028
_cell_angle_beta     87.18563898864994
_cell_angle_gamma    107.25816727155986

_space_group_name_H-M_alt    "P 1"
_space_group_IT_number       1

loop_
  _space_group_symop_operation_xyz
  'x, y, z'

loop_
  _atom_site_type_symbol
  _atom_site_label
  _atom_site_symmetry_multiplicity
  _atom_site_fract_x
  _atom_site_fract_y
  _atom_site_fract_z
  _atom_site_occupancy
  Lu  Lu1       1.0  0.7676709294319153  0.9879117012023927  0.10208805650472641  1.0000
  Sn  Sn1       1.0  0.5327659845352173  0.037466242909431464  0.3599281907081604  1.0000
  Sn  Sn2       1.0  0.12183927744627003  0.667959749698639  0.8363555073738098  1.0000
  Sn  Sn3       1.0  0.5813623666763306  0.5214978456497193  0.8247411251068115  1.0000
  Sn  Sn4       1.0  0.9084452390670776  0.7204658389091493  0.9201663732528687  1.0000
  Sn  Sn5       1.0  0.978500485420227  0.15196076035499576  0.3390793204307556  1.0000
  Sr  Sr1       1.0  0.13744159042835236  0.5052230954170227  0.3291001319885254  1.0000
  Sr  Sr2       1.0  0.02408217266201973  0.005252358503639699  0.24090394377708435  1.0000
  Sr  Sr3       1.0  0.6292163133621216  0.3422603309154511  0.3285817801952362  1.0000
  Sr  Sr4       1.0  0.09891656786203393  0.9694978594779969  0.5836209654808043  1.0000
  Sr  Sr5       1.0  0.13510538637638098  0.49020045995712286  0.09277559071779251  1.0000
