data_image0
_chemical_formula_structural       PSn4Sr6
_chemical_formula_sum              "P1 Sn4 Sr6"
_cell_length_a       6.373414739588057
_cell_length_b       7.9932356660306425
_cell_length_c       9.626492500305176
_cell_angle_alpha    89.09502989915842
_cell_angle_beta     88.48675042771337
_cell_angle_gamma    108.65244948333219

_space_group_name_H-M_alt    "P 1"
_space_group_IT_number       1

loop_
  _space_group_symop_operation_xyz
  'x, y, z'

loop_
  _atom_site_type_symbol
  _atom_site_label
  _atom_site_symmetry_multiplicity
  _atom_site_fract_x
  _atom_site_fract_y
  _atom_site_fract_z
  _atom_site_occupancy
  P   P1        1.0  0.5747373700141907  0.2861997187137604  0.5052841305732727  1.0000
  Sn  Sn1       1.0  0.7504475116729736  0.8003302812576294  0.5150266885757446  1.0000
  Sn  Sn2       1.0  0.3252682089805603  0.4528852105140686  0.891323983669281  1.0000
  Sn  Sn3       1.0  0.8494040369987488  0.30276715755462646  0.9887785315513611  1.0000
  Sn  Sn4       1.0  0.6746498942375183  0.31073248386383057  0.5060890913009644  1.0000
  Sr  Sr1       1.0  0.4949653744697571  0.7901933789253235  0.5654715299606323  1.0000
  Sr  Sr2       1.0  0.17697560787200928  0.6008543968200684  0.8691750168800354  1.0000
  Sr  Sr3       1.0  0.2992693781852722  0.07360157370567322  0.7609823346138  1.0000
  Sr  Sr4       1.0  0.9952139854431152  0.07880305498838425  0.5590901374816895  1.0000
  Sr  Sr5       1.0  0.06475751101970673  0.7759919762611389  0.5179430842399597  1.0000
  Sr  Sr6       1.0  0.06776439398527145  0.9208559989929199  0.2795507311820984  1.0000
