data_image0
_chemical_formula_structural       Cu4SnSr6
_chemical_formula_sum              "Cu4 Sn1 Sr6"
_cell_length_a       5.906534594582049
_cell_length_b       5.931408320646997
_cell_length_c       6.266729831695557
_cell_angle_alpha    89.08924622919771
_cell_angle_beta     90.29826484170042
_cell_angle_gamma    89.29319523170395

_space_group_name_H-M_alt    "P 1"
_space_group_IT_number       1

loop_
  _space_group_symop_operation_xyz
  'x, y, z'

loop_
  _atom_site_type_symbol
  _atom_site_label
  _atom_site_symmetry_multiplicity
  _atom_site_fract_x
  _atom_site_fract_y
  _atom_site_fract_z
  _atom_site_occupancy
  Cu  Cu1       1.0  0.9134008288383484  0.3233315348625183  0.3916708827018738  1.0000
  Cu  Cu2       1.0  0.6851324439048767  0.9534065127372742  0.8624750971794128  1.0000
  Cu  Cu3       1.0  0.14273419976234436  0.7008498907089233  0.6079139113426208  1.0000
  Cu  Cu4       1.0  0.9002795219421387  0.49666717648506165  0.3768147826194763  1.0000
  Sn  Sn1       1.0  0.6521345376968384  0.24508942663669586  0.597633957862854  1.0000
  Sr  Sr1       1.0  0.16944625973701477  0.36014556884765625  0.8970733284950256  1.0000
  Sr  Sr2       1.0  0.15495674312114716  0.6781057119369507  0.8615504503250122  1.0000
  Sr  Sr3       1.0  0.171131432056427  0.18875399231910706  0.9070836305618286  1.0000
  Sr  Sr4       1.0  0.6528401374816895  0.18173299729824066  0.11015182733535767  1.0000
  Sr  Sr5       1.0  0.6747018694877625  0.6698348522186279  0.11222989112138748  1.0000
  Sr  Sr6       1.0  0.18864092230796814  0.15874624252319336  0.8909654021263123  1.0000
