data_image0
_chemical_formula_structural       CuOSn4Sr5
_chemical_formula_sum              "Cu1 O1 Sn4 Sr5"
_cell_length_a       6.286993543473614
_cell_length_b       6.555208349388115
_cell_length_c       8.872710227966309
_cell_angle_alpha    88.53129344234016
_cell_angle_beta     89.37673332467264
_cell_angle_gamma    101.46598609254553

_space_group_name_H-M_alt    "P 1"
_space_group_IT_number       1

loop_
  _space_group_symop_operation_xyz
  'x, y, z'

loop_
  _atom_site_type_symbol
  _atom_site_label
  _atom_site_symmetry_multiplicity
  _atom_site_fract_x
  _atom_site_fract_y
  _atom_site_fract_z
  _atom_site_occupancy
  Cu  Cu1       1.0  0.825469970703125  0.5765784978866577  0.8197231292724609  1.0000
  O   O1        1.0  0.7397002577781677  0.9408144950866699  0.8306830525398254  1.0000
  Sn  Sn1       1.0  0.8103086352348328  0.0799638107419014  0.6734868884086609  1.0000
  Sn  Sn2       1.0  0.5875476002693176  0.913112998008728  0.9799922108650208  1.0000
  Sn  Sn3       1.0  0.29915758967399597  0.07824981957674026  0.4720132350921631  1.0000
  Sn  Sn4       1.0  0.31575852632522583  0.5858587622642517  0.5112698078155519  1.0000
  Sr  Sr1       1.0  0.63554447889328  0.4029422998428345  0.9796346426010132  1.0000
  Sr  Sr2       1.0  0.6203868389129639  0.7461803555488586  0.34498944878578186  1.0000
  Sr  Sr3       1.0  0.8111627101898193  0.577739417552948  0.6649554967880249  1.0000
  Sr  Sr4       1.0  0.11486885696649551  0.4074748456478119  0.0739361047744751  1.0000
  Sr  Sr5       1.0  0.3494221270084381  0.07919111847877502  0.6889992952346802  1.0000
