data_image0
_chemical_formula_structural       Sn5Sr6
_chemical_formula_sum              "Sn5 Sr6"
_cell_length_a       6.95478033351826
_cell_length_b       7.009875210823879
_cell_length_c       8.5265531539917
_cell_angle_alpha    88.25416306933869
_cell_angle_beta     89.27660131152486
_cell_angle_gamma    112.01850690737123

_space_group_name_H-M_alt    "P 1"
_space_group_IT_number       1

loop_
  _space_group_symop_operation_xyz
  'x, y, z'

loop_
  _atom_site_type_symbol
  _atom_site_label
  _atom_site_symmetry_multiplicity
  _atom_site_fract_x
  _atom_site_fract_y
  _atom_site_fract_z
  _atom_site_occupancy
  Sn  Sn1       1.0  0.06304667890071869  0.7182578444480896  0.3121628165245056  1.0000
  Sn  Sn2       1.0  0.5857113599777222  0.061197906732559204  0.9973138570785522  1.0000
  Sn  Sn3       1.0  0.6794448494911194  0.309396356344223  0.3810618817806244  1.0000
  Sn  Sn4       1.0  0.8337845802307129  0.06660807877779007  0.10995810478925705  1.0000
  Sn  Sn5       1.0  0.10362306982278824  0.010170454159379005  0.6359515190124512  1.0000
  Sr  Sr1       1.0  0.09487024694681168  0.5527006983757019  0.48206987977027893  1.0000
  Sr  Sr2       1.0  0.2144596725702286  0.2850235402584076  0.13003341853618622  1.0000
  Sr  Sr3       1.0  0.38488516211509705  0.721035897731781  0.471121609210968  1.0000
  Sr  Sr4       1.0  0.8430530428886415  0.020959248766303062  0.247266486287117  1.0000
  Sr  Sr5       1.0  0.5856426358222961  0.7304134964942932  0.21755662560462952  1.0000
  Sr  Sr6       1.0  0.904923439025879  0.22195085883140564  0.8716897368431091  1.0000
