data_image0
_chemical_formula_structural       Cu4Sn2Sr5
_chemical_formula_sum              "Cu4 Sn2 Sr5"
_cell_length_a       6.2658395302493295
_cell_length_b       6.133104351734186
_cell_length_c       6.443558216094971
_cell_angle_alpha    93.86760683719532
_cell_angle_beta     90.57421529932243
_cell_angle_gamma    88.73624977563955

_space_group_name_H-M_alt    "P 1"
_space_group_IT_number       1

loop_
  _space_group_symop_operation_xyz
  'x, y, z'

loop_
  _atom_site_type_symbol
  _atom_site_label
  _atom_site_symmetry_multiplicity
  _atom_site_fract_x
  _atom_site_fract_y
  _atom_site_fract_z
  _atom_site_occupancy
  Cu  Cu1       1.0  0.5165694355964661  0.5514511466026306  0.49742996692657465  1.0000
  Cu  Cu2       1.0  0.2981944680213928  0.31403255462646484  0.5105130076408386  1.0000
  Cu  Cu3       1.0  0.5182783007621765  0.024495365098118782  0.6660531759262085  1.0000
  Cu  Cu4       1.0  0.7791500091552734  0.5465814471244812  0.9990926980972289  1.0000
  Sn  Sn1       1.0  0.30560460686683655  0.7784425020217896  0.11967035382986067  1.0000
  Sn  Sn2       1.0  0.013894688338041306  0.034172117710113525  0.5775308012962341  1.0000
  Sr  Sr1       1.0  0.630889356136322  0.24056397378444672  0.7225543856620789  1.0000
  Sr  Sr2       1.0  0.10762358456850052  0.30377790331840515  0.4875009357929229  1.0000
  Sr  Sr3       1.0  0.9805556535720825  0.036166466772556305  0.32155466079711914  1.0000
  Sr  Sr4       1.0  0.9998832941055298  0.5406594276428223  0.9731431007385253  1.0000
  Sr  Sr5       1.0  0.9291340112686157  0.5468888878822327  0.4020230770111084  1.0000
