data_image0
_chemical_formula_structural       AsFHIO3Zn6
_chemical_formula_sum              "As1 F1 H1 I1 O3 Zn6"
_cell_length_a       5.202397644844201
_cell_length_b       5.262151019279232
_cell_length_c       9.087505340576172
_cell_angle_alpha    89.42312045873881
_cell_angle_beta     89.57184090861392
_cell_angle_gamma    113.64384167744905

_space_group_name_H-M_alt    "P 1"
_space_group_IT_number       1

loop_
  _space_group_symop_operation_xyz
  'x, y, z'

loop_
  _atom_site_type_symbol
  _atom_site_label
  _atom_site_symmetry_multiplicity
  _atom_site_fract_x
  _atom_site_fract_y
  _atom_site_fract_z
  _atom_site_occupancy
  As  As1       1.0  0.923936128616333  0.9343000054359436  0.38591739535331726  1.0000
  F   F1        1.0  0.4343780279159546  0.4561944901943207  0.6731047034263611  1.0000
  H   H1        1.0  0.44260844588279724  0.8582719564437866  0.8400787115097046  1.0000
  I   I1        1.0  0.4206938147544861  0.931863009929657  0.3328511416912079  1.0000
  O   O1        1.0  0.4235909581184387  0.5513993501663208  0.34807395935058594  1.0000
  O   O2        1.0  0.9574015140533447  0.07525812089443207  0.05501851812005043  1.0000
  O   O3        1.0  0.4029421806335449  0.4025988280773163  0.08230342715978622  1.0000
  Zn  Zn1       1.0  0.3772231638431549  0.041209571063518524  0.39441978931427  1.0000
  Zn  Zn2       1.0  0.398235023021698  0.5872105956077576  0.25943198800086975  1.0000
  Zn  Zn3       1.0  0.9049122333526611  0.41461247205734253  0.08733993023633957  1.0000
  Zn  Zn4       1.0  0.8214969635009766  0.3612240254878998  0.8344645500183105  1.0000
  Zn  Zn5       1.0  0.39918017387390137  0.6945032477378845  0.5456198453903198  1.0000
  Zn  Zn6       1.0  0.9099907875061035  0.854885458946228  0.7434976696968079  1.0000
