data_image0
_chemical_formula_structural       FHInO3VZn6
_chemical_formula_sum              "F1 H1 In1 O3 V1 Zn6"
_cell_length_a       5.017681872589304
_cell_length_b       4.78633268335556
_cell_length_c       7.212313652038574
_cell_angle_alpha    92.9025615758634
_cell_angle_beta     90.72549717892528
_cell_angle_gamma    127.66568967200138

_space_group_name_H-M_alt    "P 1"
_space_group_IT_number       1

loop_
  _space_group_symop_operation_xyz
  'x, y, z'

loop_
  _atom_site_type_symbol
  _atom_site_label
  _atom_site_symmetry_multiplicity
  _atom_site_fract_x
  _atom_site_fract_y
  _atom_site_fract_z
  _atom_site_occupancy
  F   F1        1.0  0.7796849012374878  0.6047896146774291  0.8141138553619384  1.0000
  H   H1        1.0  0.7763749361038207  0.9763274788856505  0.675715982913971  1.0000
  In  In1       1.0  0.21445633471012104  0.941379427909851  0.7280531525611876  1.0000
  O   O1        1.0  0.44849374890327454  0.2550770342350006  0.8122110366821288  1.0000
  O   O2        1.0  0.26151922345161427  0.953014850616455  0.9355959892272948  1.0000
  O   O3        1.0  0.7321959733963013  0.15963460505008695  0.8864730596542357  1.0000
  V   V1        1.0  0.05029158666729927  0.2508895993232727  0.9920492768287658  1.0000
  Zn  Zn1       1.0  0.5143854022026062  0.32312470674514765  0.09889019280672072  1.0000
  Zn  Zn2       1.0  0.5021202564239502  0.017781002447009087  0.1768653839826584  1.0000
  Zn  Zn3       1.0  0.03987219557166095  0.601217210292816  0.688765823841095  1.0000
  Zn  Zn4       1.0  0.0623151920735836  0.018963934853672978  0.5017239451408386  1.0000
  Zn  Zn5       1.0  0.04616615548729895  0.09980581700801848  0.06339720636606216  1.0000
  Zn  Zn6       1.0  0.7761805653572083  0.07652218639850615  0.6320599317550659  1.0000
