data_image0
_chemical_formula_structural       O4Si4Zn5
_chemical_formula_sum              "O4 Si4 Zn5"
_cell_length_a       5.724150810505789
_cell_length_b       5.409373233096759
_cell_length_c       6.515281677246094
_cell_angle_alpha    107.94115347684613
_cell_angle_beta     104.1784578136378
_cell_angle_gamma    113.29228026545802

_space_group_name_H-M_alt    "P 1"
_space_group_IT_number       1

loop_
  _space_group_symop_operation_xyz
  'x, y, z'

loop_
  _atom_site_type_symbol
  _atom_site_label
  _atom_site_symmetry_multiplicity
  _atom_site_fract_x
  _atom_site_fract_y
  _atom_site_fract_z
  _atom_site_occupancy
  O   O1        1.0  0.8964885473251344  0.8808764815330505  0.15291069447994232  1.0000
  O   O2        1.0  0.3819091320037842  0.27347835898399353  0.9195179343223573  1.0000
  O   O3        1.0  0.38975590467453003  0.030717678368091583  0.85529363155365  1.0000
  O   O4        1.0  0.8988003134727479  0.7199214696884155  0.8968176841735841  1.0000
  Si  Si1       1.0  0.3872285485267639  0.727175772190094  0.7498828768730164  1.0000
  Si  Si2       1.0  0.3199695944786072  0.32428622245788574  0.6519375443458557  1.0000
  Si  Si3       1.0  0.34493178129196167  0.9326486587524414  0.7802397608757019  1.0000
  Si  Si4       1.0  0.830445408821106  0.4761497974395752  0.009636563248932362  1.0000
  Zn  Zn1       1.0  0.5530031323432922  0.9197595715522766  0.27421432733535767  1.0000
  Zn  Zn2       1.0  0.8534234762191772  0.6143015027046204  0.012233429588377476  1.0000
  Zn  Zn3       1.0  0.357526570558548  0.5775918364524841  0.9750588536262513  1.0000
  Zn  Zn4       1.0  0.3542588949203491  0.8287448287010193  0.7488425374031067  1.0000
  Zn  Zn5       1.0  0.8616177439689636  0.569853663444519  0.3695622980594635  1.0000
