data_image0
_chemical_formula_structural       FHO3Si5Zn3
_chemical_formula_sum              "F1 H1 O3 Si5 Zn3"
_cell_length_a       5.502808563774544
_cell_length_b       5.636152692292658
_cell_length_c       6.131551742553711
_cell_angle_alpha    59.85082825488651
_cell_angle_beta     62.704799331707974
_cell_angle_gamma    62.377997320473

_space_group_name_H-M_alt    "P 1"
_space_group_IT_number       1

loop_
  _space_group_symop_operation_xyz
  'x, y, z'

loop_
  _atom_site_type_symbol
  _atom_site_label
  _atom_site_symmetry_multiplicity
  _atom_site_fract_x
  _atom_site_fract_y
  _atom_site_fract_z
  _atom_site_occupancy
  F   F1        1.0  0.8155019879341125  0.04557142034173012  0.18326556682586664  1.0000
  H   H1        1.0  0.3114378750324249  0.2728680372238159  0.013453477993607523  1.0000
  O   O1        1.0  0.809772253036499  0.5783305764198303  0.9192178249359132  1.0000
  O   O2        1.0  0.3077918291091919  0.4704664349555969  0.5239985585212708  1.0000
  O   O3        1.0  0.2770378589630127  0.7024487257003784  0.24194306135177615  1.0000
  Si  Si1       1.0  0.31724366545677185  0.295459508895874  0.7476866841316224  1.0000
  Si  Si2       1.0  0.3334273099899292  0.07982253283262253  0.214465469121933  1.0000
  Si  Si3       1.0  0.80987149477005  0.09687668830156326  0.14027369022369385  1.0000
  Si  Si4       1.0  0.8463215827941895  0.3342462182044983  0.7416411638259889  1.0000
  Si  Si5       1.0  0.8110570311546326  0.025085873901844025  0.8025737404823304  1.0000
  Zn  Zn1       1.0  0.8080748915672302  0.660078227519989  0.41257566213607794  1.0000
  Zn  Zn2       1.0  0.8133945465087891  0.08406269550323486  0.18831080198287967  1.0000
  Zn  Zn3       1.0  0.3078993558883667  0.12204324454069138  0.002032190328463912  1.0000
