data_image0
_chemical_formula_structural       H2INaO4Si2Zn3
_chemical_formula_sum              "H2 I1 Na1 O4 Si2 Zn3"
_cell_length_a       5.028303496639205
_cell_length_b       5.378006187994217
_cell_length_c       6.979378700256348
_cell_angle_alpha    88.47361207656294
_cell_angle_beta     89.2074916408014
_cell_angle_gamma    112.17542945230964

_space_group_name_H-M_alt    "P 1"
_space_group_IT_number       1

loop_
  _space_group_symop_operation_xyz
  'x, y, z'

loop_
  _atom_site_type_symbol
  _atom_site_label
  _atom_site_symmetry_multiplicity
  _atom_site_fract_x
  _atom_site_fract_y
  _atom_site_fract_z
  _atom_site_occupancy
  H   H1        1.0  0.12148889154195786  0.5202509760856628  0.38391038775444025  1.0000
  H   H2        1.0  0.9240994453430176  0.014461568556725979  0.8900537490844725  1.0000
  I   I1        1.0  0.43341735005378723  0.5452516674995422  0.0007775116246193646  1.0000
  Na  Na1       1.0  0.14179053902626038  0.15276803076267242  0.4820261895656585  1.0000
  O   O1        1.0  0.9303531050682068  0.7470223307609558  0.2845642864704132  1.0000
  O   O2        1.0  0.3455437421798706  0.8771180510520935  0.1109035238623619  1.0000
  O   O3        1.0  0.15371963381767273  0.11937571316957474  0.6042689085006714  1.0000
  O   O4        1.0  0.8314711451530457  0.8515483736991882  0.4288466274738311  1.0000
  Si  Si1       1.0  0.8945199251174927  0.23861147463321686  0.24854923784732816  1.0000
  Si  Si2       1.0  0.8406499624252319  0.39371562004089355  0.48374110460281367  1.0000
  Zn  Zn1       1.0  0.3480359613895416  0.3000752925872803  0.21318712830543515  1.0000
  Zn  Zn2       1.0  0.6157019734382629  0.46054303646087646  0.3454219698905944  1.0000
  Zn  Zn3       1.0  0.6535581350326538  0.6065871715545654  0.69598650932312  1.0000
