data_image0
_chemical_formula_structural       H3O2SbTbZn6
_chemical_formula_sum              "H3 O2 Sb1 Tb1 Zn6"
_cell_length_a       5.045986536397825
_cell_length_b       5.642226704592774
_cell_length_c       7.891641139984131
_cell_angle_alpha    88.85754842582058
_cell_angle_beta     90.33116030734261
_cell_angle_gamma    92.32765089379963

_space_group_name_H-M_alt    "P 1"
_space_group_IT_number       1

loop_
  _space_group_symop_operation_xyz
  'x, y, z'

loop_
  _atom_site_type_symbol
  _atom_site_label
  _atom_site_symmetry_multiplicity
  _atom_site_fract_x
  _atom_site_fract_y
  _atom_site_fract_z
  _atom_site_occupancy
  H   H1        1.0  0.6962103843688965  0.5797178149223328  0.26494747400283813  1.0000
  H   H2        1.0  0.9674525856971741  0.7861990332603455  0.49210068583488464  1.0000
  H   H3        1.0  0.5412328243255615  0.6697717308998108  0.06593398749828339  1.0000
  O   O1        1.0  0.679667592048645  0.558337390422821  0.2744642198085785  1.0000
  O   O2        1.0  0.18220959603786469  0.5819368362426758  0.08937521278858185  1.0000
  Sb  Sb1       1.0  0.7357301115989685  0.38868939876556396  0.5626646876335144  1.0000
  Tb  Tb1       1.0  0.23942215740680695  0.7596547603607178  0.30045798420906067  1.0000
  Zn  Zn1       1.0  0.697072446346283  0.10595782846212387  0.7859775424003601  1.0000
  Zn  Zn2       1.0  0.712382972240448  0.005554488394409418  0.8535086512565613  1.0000
  Zn  Zn3       1.0  0.20329366624355316  0.48540523648262024  0.8341819643974303  1.0000
  Zn  Zn4       1.0  0.2026614248752594  0.2621309161186218  0.05282796919345856  1.0000
  Zn  Zn5       1.0  0.6891676783561707  0.1695137321949005  0.5143831372261047  1.0000
  Zn  Zn6       1.0  0.19815289974212646  0.07719413191080093  0.09430642426013947  1.0000
