data_image0
_chemical_formula_structural       As2B4GeI2Lu2ReZr
_chemical_formula_sum              "As2 B4 Ge1 I2 Lu2 Re1 Zr1"
_cell_length_a       6.45296552346063
_cell_length_b       6.657128553825188
_cell_length_c       7.453433036804199
_cell_angle_alpha    80.45193690081638
_cell_angle_beta     69.31359499163877
_cell_angle_gamma    72.85201637304444

_space_group_name_H-M_alt    "P 1"
_space_group_IT_number       1

loop_
  _space_group_symop_operation_xyz
  'x, y, z'

loop_
  _atom_site_type_symbol
  _atom_site_label
  _atom_site_symmetry_multiplicity
  _atom_site_fract_x
  _atom_site_fract_y
  _atom_site_fract_z
  _atom_site_occupancy
  As  As1       1.0  0.4684996008872986  0.6494455337524414  0.3141235113143921  1.0000
  As  As2       1.0  0.7443873286247253  0.8604832291603088  0.13710342347621918  1.0000
  B   B1        1.0  0.22741149365901947  0.3918039798736572  0.32150736451148987  1.0000
  B   B2        1.0  0.7570053339004517  0.8171548843383789  0.8136772513389587  1.0000
  B   B3        1.0  0.4175693392753601  0.7397604584693909  0.6591148376464844  1.0000
  B   B4        1.0  0.2504104673862457  0.35199519991874695  0.027905087918043123  1.0000
  Ge  Ge1       1.0  0.7487699389457703  0.5894114375114441  0.8446580767631531  1.0000
  I   I1        1.0  0.2606312334537506  0.08411383628845215  0.9265608191490173  1.0000
  I   I2        1.0  0.9906620383262635  0.9373544454574585  0.5396268963813782  1.0000
  Lu  Lu1       1.0  0.738835871219635  0.3947969377040863  0.6291491389274597  1.0000
  Lu  Lu2       1.0  0.738411545753479  0.9641088843345642  0.8441394567489624  1.0000
  Re  Re1       1.0  0.24392162263393405  0.9207127094268799  0.11671105772256851  1.0000
  Zr  Zr1       1.0  0.23764485120773318  0.2779487073421478  0.2950582504272461  1.0000
