data_image0
_chemical_formula_structural       As4B2Dy2GeLiPRb2
_chemical_formula_sum              "As4 B2 Dy2 Ge1 Li1 P1 Rb2"
_cell_length_a       6.67580606760373
_cell_length_b       6.768397031461814
_cell_length_c       7.4593400955200195
_cell_angle_alpha    81.79873292381946
_cell_angle_beta     69.69505860507104
_cell_angle_gamma    69.73678277208063

_space_group_name_H-M_alt    "P 1"
_space_group_IT_number       1

loop_
  _space_group_symop_operation_xyz
  'x, y, z'

loop_
  _atom_site_type_symbol
  _atom_site_label
  _atom_site_symmetry_multiplicity
  _atom_site_fract_x
  _atom_site_fract_y
  _atom_site_fract_z
  _atom_site_occupancy
  As  As1       1.0  0.062047772109508514  0.484580934047699  0.6481058597564697  1.0000
  As  As2       1.0  0.6795136332511902  0.11742901057004929  0.8873580098152161  1.0000
  As  As3       1.0  0.35830071568489075  0.9554569721221924  0.7329906225204468  1.0000
  As  As4       1.0  0.4003884792327881  0.08381753414869308  0.687565803527832  1.0000
  B   B1        1.0  0.11194081604480743  0.4314367175102234  0.5704643726348877  1.0000
  B   B2        1.0  0.1654035449028015  0.598698079586029  0.4919935762882233  1.0000
  Dy  Dy1       1.0  0.8381850719451904  0.46644648909568787  0.8737642168998719  1.0000
  Dy  Dy2       1.0  0.9840062260627747  0.029663775116205215  0.7739785909652712  1.0000
  Ge  Ge1       1.0  0.6536481380462646  0.8005859851837158  0.7083032131195068  1.0000
  Li  Li1       1.0  0.4125043749809265  0.24185438454151154  0.4925298094749451  1.0000
  P   P1        1.0  0.6720802783966064  0.9780187606811523  0.5348631143569946  1.0000
  Rb  Rb1       1.0  0.6965358257293701  0.7917265892028809  0.9176993370056153  1.0000
  Rb  Rb2       1.0  0.16049417853355408  0.5363269448280334  0.5710532069206238  1.0000
