data_image0
_chemical_formula_structural       AlAsB2LiNa4O4
_chemical_formula_sum              "Al1 As1 B2 Li1 Na4 O4"
_cell_length_a       5.487280912739939
_cell_length_b       5.2987699133836275
_cell_length_c       5.8628926277160645
_cell_angle_alpha    62.50336316780115
_cell_angle_beta     64.22839376581508
_cell_angle_gamma    58.36553257507992

_space_group_name_H-M_alt    "P 1"
_space_group_IT_number       1

loop_
  _space_group_symop_operation_xyz
  'x, y, z'

loop_
  _atom_site_type_symbol
  _atom_site_label
  _atom_site_symmetry_multiplicity
  _atom_site_fract_x
  _atom_site_fract_y
  _atom_site_fract_z
  _atom_site_occupancy
  Al  Al1       1.0  0.6879433989524841  0.3927863836288452  0.6600741147994995  1.0000
  As  As1       1.0  0.20310503244400024  0.17195551097393036  0.6166217923164368  1.0000
  B   B1        1.0  0.9318259358406067  0.46832379698753357  0.5364481806755066  1.0000
  B   B2        1.0  0.7224569916725159  0.8092430233955383  0.40840664505958557  1.0000
  Li  Li1       1.0  0.19453464448451996  0.4490545094013214  0.6339369416236877  1.0000
  Na  Na1       1.0  0.05850943177938461  0.4101141393184662  0.8208866715431213  1.0000
  Na  Na2       1.0  0.679044246673584  0.44400298595428467  0.8012810945510864  1.0000
  Na  Na3       1.0  0.17684543132781982  0.8768383264541626  0.9935058951377869  1.0000
  Na  Na4       1.0  0.6908774375915527  0.21680934727191925  0.713839054107666  1.0000
  O   O1        1.0  0.9247761964797974  0.6366171836853027  0.6247497200965881  1.0000
  O   O2        1.0  0.44777244329452515  0.8546383380889893  0.03137891739606857  1.0000
  O   O3        1.0  0.8980205655097961  0.13089551031589508  0.6193469166755676  1.0000
  O   O4        1.0  0.48745641112327576  0.9116662740707397  0.9183058142662048  1.0000
