data_image0
_chemical_formula_structural       AsB2I3Li2NiO2PZr
_chemical_formula_sum              "As1 B2 I3 Li2 Ni1 O2 P1 Zr1"
_cell_length_a       7.088259515974393
_cell_length_b       6.249141813320829
_cell_length_c       6.819967746734619
_cell_angle_alpha    69.12437183994611
_cell_angle_beta     62.067527181830265
_cell_angle_gamma    60.44546122054709

_space_group_name_H-M_alt    "P 1"
_space_group_IT_number       1

loop_
  _space_group_symop_operation_xyz
  'x, y, z'

loop_
  _atom_site_type_symbol
  _atom_site_label
  _atom_site_symmetry_multiplicity
  _atom_site_fract_x
  _atom_site_fract_y
  _atom_site_fract_z
  _atom_site_occupancy
  As  As1       1.0  0.6174780130386353  0.858081042766571  0.5613203644752502  1.0000
  B   B1        1.0  0.08034997433423996  0.6391175389289856  0.6973426342010498  1.0000
  B   B2        1.0  0.6522420644760132  0.2532869875431061  0.18217982351779938  1.0000
  I   I1        1.0  0.8638710379600525  0.8751703500747681  0.9754260778427124  1.0000
  I   I2        1.0  0.8562849164009094  0.5784500241279602  0.7491147518157959  1.0000
  I   I3        1.0  0.10579439252614968  0.9556735157966615  0.8455150723457336  1.0000
  Li  Li1       1.0  0.5712198019027709  0.9374733567237855  0.7674571871757507  1.0000
  Li  Li2       1.0  0.8500994443893433  0.017568375915288925  0.7282769680023193  1.0000
  Ni  Ni1       1.0  0.08882217109203339  0.7766062021255493  0.5372306704521179  1.0000
  O   O1        1.0  0.2702118754386902  0.5647805333137512  0.10017801821231842  1.0000
  O   O2        1.0  0.5506060123443604  0.3266885578632355  0.36180827021598816  1.0000
  P   P1        1.0  0.10194053500890732  0.8398553133010864  0.2552929222583771  1.0000
  Zr  Zr1       1.0  0.7014724016189575  0.020767854526638985  0.7809366583824158  1.0000
