data_image0
_chemical_formula_structural       B2CrNa6O4
_chemical_formula_sum              "B2 Cr1 Na6 O4"
_cell_length_a       4.626872127866702
_cell_length_b       5.631750317593141
_cell_length_c       4.965896129608154
_cell_angle_alpha    114.02744327750429
_cell_angle_beta     92.6536377641412
_cell_angle_gamma    92.04686239324313

_space_group_name_H-M_alt    "P 1"
_space_group_IT_number       1

loop_
  _space_group_symop_operation_xyz
  'x, y, z'

loop_
  _atom_site_type_symbol
  _atom_site_label
  _atom_site_symmetry_multiplicity
  _atom_site_fract_x
  _atom_site_fract_y
  _atom_site_fract_z
  _atom_site_occupancy
  B   B1        1.0  0.8859698176383972  0.35122668743133545  0.7032627463340759  1.0000
  B   B2        1.0  0.3685900866985321  0.724486231803894  0.12086405605077744  1.0000
  Cr  Cr1       1.0  0.36627137660980225  0.9904320240020752  0.6118202805519104  1.0000
  Na  Na1       1.0  0.8740689158439636  0.43168357014656067  0.39950504899024963  1.0000
  Na  Na2       1.0  0.3648788034915924  0.6626624464988708  0.06365769356489182  1.0000
  Na  Na3       1.0  0.8701369762420654  0.4263479709625244  0.44356220960617065  1.0000
  Na  Na4       1.0  0.8634931445121765  0.2056252509355545  0.7717467546463013  1.0000
  Na  Na5       1.0  0.37975332140922546  0.8822762966156006  0.6552234888076783  1.0000
  Na  Na6       1.0  0.3646376132965088  0.3032533526420593  0.7603701949119568  1.0000
  O   O1        1.0  0.9528489112854004  0.3886250853538513  0.32356059551239014  1.0000
  O   O2        1.0  0.8834457993507385  0.15030644834041595  0.08559675514698029  1.0000
  O   O3        1.0  0.07816940546035767  0.16296784579753876  0.09951537102460861  1.0000
  O   O4        1.0  0.3761042058467865  0.5949355363845825  0.761493980884552  1.0000
