data_image0
_chemical_formula_structural       Al2CaCsFGeLiO3RbTbZr
_chemical_formula_sum              "Al2 Ca1 Cs1 F1 Ge1 Li1 O3 Rb1 Tb1 Zr1"
_cell_length_a       7.610008862744544
_cell_length_b       7.010126718300326
_cell_length_c       7.467785358428955
_cell_angle_alpha    69.92889319235496
_cell_angle_beta     61.74134323105842
_cell_angle_gamma    59.86577469901074

_space_group_name_H-M_alt    "P 1"
_space_group_IT_number       1

loop_
  _space_group_symop_operation_xyz
  'x, y, z'

loop_
  _atom_site_type_symbol
  _atom_site_label
  _atom_site_symmetry_multiplicity
  _atom_site_fract_x
  _atom_site_fract_y
  _atom_site_fract_z
  _atom_site_occupancy
  Al  Al1       1.0  0.7260127067565918  0.7159542441368103  0.2504812777042389  1.0000
  Al  Al2       1.0  0.1089516133069992  0.2912275493144989  0.2102629840373993  1.0000
  Ca  Ca1       1.0  0.18725572526454926  0.5742615461349487  0.9039183855056763  1.0000
  Cs  Cs1       1.0  0.1263945996761322  0.4258350133895874  0.06534453481435776  1.0000
  F   F1        1.0  0.45450013875961304  0.678236722946167  0.33960777521133423  1.0000
  Ge  Ge1       1.0  0.5359212160110474  0.07576851546764374  0.914402425289154  1.0000
  Li  Li1       1.0  0.7443779110908508  0.7763442993164062  0.4062037765979767  1.0000
  O   O1        1.0  0.5492292046546936  0.19101311266422272  0.9638119339942932  1.0000
  O   O2        1.0  0.7260912656784058  0.8043962717056274  0.1921805888414383  1.0000
  O   O3        1.0  0.005852265749126673  0.5571690797805786  0.6213040947914124  1.0000
  Rb  Rb1       1.0  0.7167943716049194  0.15472714602947235  0.9479880928993225  1.0000
  Tb  Tb1       1.0  0.2825547456741333  0.4384553134441376  0.696641743183136  1.0000
  Zr  Zr1       1.0  0.7556343674659729  0.6792935132980347  0.15772390365600586  1.0000
