data_image0
_chemical_formula_structural       HLa5OPbU
_chemical_formula_sum              "H1 La5 O1 Pb1 U1"
_cell_length_a       5.5508091220770766
_cell_length_b       5.633330072642423
_cell_length_c       8.707752227783203
_cell_angle_alpha    107.15492805419778
_cell_angle_beta     107.66754400241088
_cell_angle_gamma    92.72232321890459

_space_group_name_H-M_alt    "P 1"
_space_group_IT_number       1

loop_
  _space_group_symop_operation_xyz
  'x, y, z'

loop_
  _atom_site_type_symbol
  _atom_site_label
  _atom_site_symmetry_multiplicity
  _atom_site_fract_x
  _atom_site_fract_y
  _atom_site_fract_z
  _atom_site_occupancy
  H   H1        1.0  0.0970197543501854  0.5136261582374573  0.18126773834228516  1.0000
  La  La1       1.0  0.05808132141828536  0.19067908823490143  0.10294684767723083  1.0000
  La  La2       1.0  0.0837034210562706  0.48137858510017395  0.9590178728103638  1.0000
  La  La3       1.0  0.5782856345176697  0.7796247601509094  0.3830167353153229  1.0000
  La  La4       1.0  0.6893151998519897  0.8622291684150696  0.611068844795227  1.0000
  La  La5       1.0  0.061089139431715005  0.13200150430202484  0.8797062635421753  1.0000
  O   O1        1.0  0.55037522315979  0.7707720398902893  0.06286188960075378  1.0000
  Pb  Pb1       1.0  0.7858372330665588  0.31815865635871887  0.5512803196907043  1.0000
  U   U1        1.0  0.04798207804560661  0.5740405321121216  0.10413071513175964  1.0000
