data_image0
_chemical_formula_structural       GeHLa5OTb
_chemical_formula_sum              "Ge1 H1 La5 O1 Tb1"
_cell_length_a       6.235495964132704
_cell_length_b       7.1907069612548415
_cell_length_c       7.2697601318359375
_cell_angle_alpha    64.11080102157185
_cell_angle_beta     62.980358799535814
_cell_angle_gamma    61.817349393467715

_space_group_name_H-M_alt    "P 1"
_space_group_IT_number       1

loop_
  _space_group_symop_operation_xyz
  'x, y, z'

loop_
  _atom_site_type_symbol
  _atom_site_label
  _atom_site_symmetry_multiplicity
  _atom_site_fract_x
  _atom_site_fract_y
  _atom_site_fract_z
  _atom_site_occupancy
  Ge  Ge1       1.0  0.9157062768936156  0.03814993053674698  0.9476709365844727  1.0000
  H   H1        1.0  0.41518241167068476  0.9810450673103333  0.8096663355827332  1.0000
  La  La1       1.0  0.415702611207962  0.5136967897415161  0.9194962978363037  1.0000
  La  La2       1.0  0.9181274771690368  0.9974738955497742  0.31646037101745605  1.0000
  La  La3       1.0  0.4198629260063171  0.25393226742744446  0.5274633169174194  1.0000
  La  La4       1.0  0.8992319703102111  0.3978753387928009  0.6747146248817444  1.0000
  La  La5       1.0  0.4197788536548614  0.07160253077745438  0.1835162192583084  1.0000
  O   O1        1.0  0.13065272569656372  0.24379049241542816  0.4036145508289337  1.0000
  Tb  Tb1       1.0  0.9166467785835265  0.16262227296829224  0.35730195045471197  1.0000
