data_image0
_chemical_formula_structural       HLa4O2Zn2
_chemical_formula_sum              "H1 La4 O2 Zn2"
_cell_length_a       5.513242776819798
_cell_length_b       5.757808755942829
_cell_length_c       6.768776893615723
_cell_angle_alpha    118.34708327660628
_cell_angle_beta     103.19621336012308
_cell_angle_gamma    89.6312719354157

_space_group_name_H-M_alt    "P 1"
_space_group_IT_number       1

loop_
  _space_group_symop_operation_xyz
  'x, y, z'

loop_
  _atom_site_type_symbol
  _atom_site_label
  _atom_site_symmetry_multiplicity
  _atom_site_fract_x
  _atom_site_fract_y
  _atom_site_fract_z
  _atom_site_occupancy
  H   H1        1.0  0.21384216845035553  0.415486603975296  0.7963263392448424  1.0000
  La  La1       1.0  0.7409642934799194  0.1851690113544464  0.783825397491455  1.0000
  La  La2       1.0  0.7459084987640381  0.9314482808113098  0.4756082892417907  1.0000
  La  La3       1.0  0.22150321304798126  0.8197982311248779  0.9170503020286559  1.0000
  La  La4       1.0  0.22783079743385318  0.29314807057380676  0.8881350755691527  1.0000
  O   O1        1.0  0.5707715153694153  0.6398715972900391  0.3001086711883545  1.0000
  O   O2        1.0  0.20352531969547272  0.6782237887382507  0.839088201522827  1.0000
  Zn  Zn1       1.0  0.15563398599624634  0.170126274228096  0.6496819257736206  1.0000
  Zn  Zn2       1.0  0.8809178471565247  0.896364152431488  0.36667820811271673  1.0000
