data_image0
_chemical_formula_structural       La6NO2
_chemical_formula_sum              "La6 N1 O2"
_cell_length_a       4.812557892308746
_cell_length_b       6.183329382667894
_cell_length_c       6.47835111618042
_cell_angle_alpha    91.39869394860736
_cell_angle_beta     89.22410158719728
_cell_angle_gamma    89.76551627230566

_space_group_name_H-M_alt    "P 1"
_space_group_IT_number       1

loop_
  _space_group_symop_operation_xyz
  'x, y, z'

loop_
  _atom_site_type_symbol
  _atom_site_label
  _atom_site_symmetry_multiplicity
  _atom_site_fract_x
  _atom_site_fract_y
  _atom_site_fract_z
  _atom_site_occupancy
  La  La1       1.0  0.14578606188297272  0.041783351451158524  0.4337061047554016  1.0000
  La  La2       1.0  0.699924111366272  0.3383394479751587  0.029506968334317204  1.0000
  La  La3       1.0  0.6921353936195374  0.2828025817871094  0.28066152334213257  1.0000
  La  La4       1.0  0.19532957673072815  0.2855454981327057  0.9667142033576964  1.0000
  La  La5       1.0  0.19350135326385498  0.30070191621780396  0.9490028023719786  1.0000
  La  La6       1.0  0.19123302400112152  0.9872115850448608  0.8020349144935608  1.0000
  N   N1        1.0  0.6937854886054993  0.788063108921051  0.5155870318412781  1.0000
  O   O1        1.0  0.12375225126743317  0.3760438859462738  0.7815503478050232  1.0000
  O   O2        1.0  0.2669222354888916  0.08999750018119812  0.28611746430397034  1.0000
