data_image0
_chemical_formula_structural       La7O2
_chemical_formula_sum              "La7 O2"
_cell_length_a       4.9241232916820925
_cell_length_b       6.254965803768646
_cell_length_c       5.726158142089844
_cell_angle_alpha    93.49269239491453
_cell_angle_beta     98.66908155577248
_cell_angle_gamma    90.84075400926032

_space_group_name_H-M_alt    "P 1"
_space_group_IT_number       1

loop_
  _space_group_symop_operation_xyz
  'x, y, z'

loop_
  _atom_site_type_symbol
  _atom_site_label
  _atom_site_symmetry_multiplicity
  _atom_site_fract_x
  _atom_site_fract_y
  _atom_site_fract_z
  _atom_site_occupancy
  La  La1       1.0  0.673585057258606  0.11415082216262817  0.7142447233200073  1.0000
  La  La2       1.0  0.6872767210006714  0.8585187792778015  0.6122422218322754  1.0000
  La  La3       1.0  0.6632500290870667  0.930098831653595  0.38637498021125793  1.0000
  La  La4       1.0  0.18087156116962433  0.6454318761825562  0.9506740570068359  1.0000
  La  La5       1.0  0.20483124256134033  0.27659928798675537  0.02505386248230934  1.0000
  La  La6       1.0  0.6929671764373779  0.8827685117721558  0.4549004137516022  1.0000
  La  La7       1.0  0.17433059215545654  0.09612152725458145  0.3879230320453644  1.0000
  O   O1        1.0  0.7068530321121216  0.1580352783203125  0.5344560742378235  1.0000
  O   O2        1.0  0.7342301607131958  0.5146523714065552  0.5408982634544373  1.0000
