data_image0
_chemical_formula_structural       FGe5LiPPtZnZr
_chemical_formula_sum              "F1 Ge5 Li1 P1 Pt1 Zn1 Zr1"
_cell_length_a       5.337161454917493
_cell_length_b       5.514926474634604
_cell_length_c       5.813315391540527
_cell_angle_alpha    70.70151787903664
_cell_angle_beta     64.58355576450926
_cell_angle_gamma    61.6471960750401

_space_group_name_H-M_alt    "P 1"
_space_group_IT_number       1

loop_
  _space_group_symop_operation_xyz
  'x, y, z'

loop_
  _atom_site_type_symbol
  _atom_site_label
  _atom_site_symmetry_multiplicity
  _atom_site_fract_x
  _atom_site_fract_y
  _atom_site_fract_z
  _atom_site_occupancy
  F   F1        1.0  0.42898401618003845  0.8947792649269104  0.05578888580203056  1.0000
  Ge  Ge1       1.0  0.7277834415435791  0.3058087229728699  0.06721297651529312  1.0000
  Ge  Ge2       1.0  0.18838144838809967  0.9885604977607727  0.833450198173523  1.0000
  Ge  Ge3       1.0  0.23685884475708008  0.24652382731437683  0.687644362449646  1.0000
  Ge  Ge4       1.0  0.752722442150116  0.8402116894721985  0.929280698299408  1.0000
  Ge  Ge5       1.0  0.8933845162391663  0.25343409180641174  0.380615621805191  1.0000
  Li  Li1       1.0  0.22084814310073853  0.9209216237068176  0.0358596108853817  1.0000
  P   P1        1.0  0.2140241116285324  0.5384186506271362  0.08680995553731918  1.0000
  Pt  Pt1       1.0  0.8715403079986572  0.11019406467676163  0.7637035250663757  1.0000
  Zn  Zn1       1.0  0.7341535091400146  0.6531389951705933  0.5279874801635742  1.0000
  Zr  Zr1       1.0  0.4635032117366791  0.6472619771957397  0.8663949370384216  1.0000
