data_image0
_chemical_formula_structural       ErGe4I3LiPU
_chemical_formula_sum              "Er1 Ge4 I3 Li1 P1 U1"
_cell_length_a       4.908657298030335
_cell_length_b       6.77374921756744
_cell_length_c       7.663740634918213
_cell_angle_alpha    89.7803112038487
_cell_angle_beta     85.33599919339042
_cell_angle_gamma    93.18345372283007

_space_group_name_H-M_alt    "P 1"
_space_group_IT_number       1

loop_
  _space_group_symop_operation_xyz
  'x, y, z'

loop_
  _atom_site_type_symbol
  _atom_site_label
  _atom_site_symmetry_multiplicity
  _atom_site_fract_x
  _atom_site_fract_y
  _atom_site_fract_z
  _atom_site_occupancy
  Er  Er1       1.0  0.7441267967224121  0.4012978672981263  0.7614730000495911  1.0000
  Ge  Ge1       1.0  0.6885223984718323  0.06744302809238434  0.6590957045555115  1.0000
  Ge  Ge2       1.0  0.19837112724781036  0.4972504377365113  0.9280422925949097  1.0000
  Ge  Ge3       1.0  0.22540007531642914  0.378838062286377  0.2966274619102478  1.0000
  Ge  Ge4       1.0  0.6795439124107361  0.6048968434333801  0.8995253443717957  1.0000
  I   I1        1.0  0.17722393572330475  0.9182677268981935  0.9230342507362366  1.0000
  I   I2        1.0  0.6776055693626404  0.6563780903816223  0.6509084701538086  1.0000
  I   I3        1.0  0.72099769115448  0.6134493350982666  0.36305445432662964  1.0000
  Li  Li1       1.0  0.17223414778709412  0.6444355845451355  0.6146121621131897  1.0000
  P   P1        1.0  0.7235923409461975  0.3400334119796753  0.2655608057975769  1.0000
  U   U1        1.0  0.6781823635101318  0.3705515265464783  0.6281607747077942  1.0000
