data_image0
_chemical_formula_structural       CeFeGe4Li4Mg
_chemical_formula_sum              "Ce1 Fe1 Ge4 Li4 Mg1"
_cell_length_a       5.469442866966215
_cell_length_b       6.24793062675108
_cell_length_c       6.196134567260742
_cell_angle_alpha    97.32510302964984
_cell_angle_beta     97.25592680363758
_cell_angle_gamma    99.23458907707955

_space_group_name_H-M_alt    "P 1"
_space_group_IT_number       1

loop_
  _space_group_symop_operation_xyz
  'x, y, z'

loop_
  _atom_site_type_symbol
  _atom_site_label
  _atom_site_symmetry_multiplicity
  _atom_site_fract_x
  _atom_site_fract_y
  _atom_site_fract_z
  _atom_site_occupancy
  Ce  Ce1       1.0  0.863283634185791  0.0472656786441803  0.5315011739730835  1.0000
  Fe  Fe1       1.0  0.7843770384788513  0.35023605823516846  0.8378941416740417  1.0000
  Ge  Ge1       1.0  0.8754788041114807  0.4951191246509552  0.40904346108436584  1.0000
  Ge  Ge2       1.0  0.3641931116580963  0.032662034034729004  0.63177889585495  1.0000
  Ge  Ge3       1.0  0.8368555307388306  0.6057547926902771  0.41798245906829834  1.0000
  Ge  Ge4       1.0  0.35777920484542847  0.03796183317899704  0.8680266737937927  1.0000
  Li  Li1       1.0  0.8470364212989807  0.9710643887519836  0.7189211845397949  1.0000
  Li  Li2       1.0  0.34479445219039917  0.6592119336128235  0.7120118737220764  1.0000
  Li  Li3       1.0  0.8774425983428955  0.5218595266342163  0.9989905953407288  1.0000
  Li  Li4       1.0  0.07413142174482346  0.6550195813179016  0.6354596018791199  1.0000
  Mg  Mg1       1.0  0.38384896516799927  0.4819125235080719  0.1845342218875885  1.0000
