data_image0
_chemical_formula_structural       Ge5ILi3P2
_chemical_formula_sum              "Ge5 I1 Li3 P2"
_cell_length_a       5.277826311800229
_cell_length_b       6.141632867849424
_cell_length_c       9.243277549743652
_cell_angle_alpha    89.25585717570904
_cell_angle_beta     89.86007734745608
_cell_angle_gamma    112.60756967562006

_space_group_name_H-M_alt    "P 1"
_space_group_IT_number       1

loop_
  _space_group_symop_operation_xyz
  'x, y, z'

loop_
  _atom_site_type_symbol
  _atom_site_label
  _atom_site_symmetry_multiplicity
  _atom_site_fract_x
  _atom_site_fract_y
  _atom_site_fract_z
  _atom_site_occupancy
  Ge  Ge1       1.0  0.395012766122818  0.9499907493591309  0.033803436905145645  1.0000
  Ge  Ge2       1.0  0.9465509653091431  0.9254735112190247  0.21876363456249237  1.0000
  Ge  Ge3       1.0  0.9643585681915283  0.24466422200202942  0.22376541793346405  1.0000
  Ge  Ge4       1.0  0.9824458956718445  0.3775877356529236  0.8406540155410767  1.0000
  Ge  Ge5       1.0  0.9752457737922668  0.9810035228729248  0.5770164728164673  1.0000
  I   I1        1.0  0.47703370451927185  0.9843198657035828  0.9182799458503723  1.0000
  Li  Li1       1.0  0.8896719813346863  0.5579538941383362  0.6394428610801697  1.0000
  Li  Li2       1.0  0.47494271397590637  0.4507588744163513  0.4427970349788666  1.0000
  Li  Li3       1.0  0.8219422101974487  0.13114698231220245  0.4974408745765686  1.0000
  P   P1        1.0  0.8971729278564453  0.3555312752723694  0.08716684579849243  1.0000
  P   P2        1.0  0.2691783010959625  0.15570737421512604  0.6136701703071594  1.0000
