data_image0
_chemical_formula_structural       Ge6Li3LuZn
_chemical_formula_sum              "Ge6 Li3 Lu1 Zn1"
_cell_length_a       4.556277880385998
_cell_length_b       4.083286253535876
_cell_length_c       5.756338119506836
_cell_angle_alpha    85.76660601311961
_cell_angle_beta     91.85070504410706
_cell_angle_gamma    86.4856968852768

_space_group_name_H-M_alt    "P 1"
_space_group_IT_number       1

loop_
  _space_group_symop_operation_xyz
  'x, y, z'

loop_
  _atom_site_type_symbol
  _atom_site_label
  _atom_site_symmetry_multiplicity
  _atom_site_fract_x
  _atom_site_fract_y
  _atom_site_fract_z
  _atom_site_occupancy
  Ge  Ge1       1.0  0.1215890496969223  0.7951932549476624  0.7740718126296997  1.0000
  Ge  Ge2       1.0  0.18597760796546936  0.2618860602378845  0.20544493198394775  1.0000
  Ge  Ge3       1.0  0.4227379560470581  0.8914362788200378  0.6886287331581116  1.0000
  Ge  Ge4       1.0  0.7146610617637634  0.09392544627189636  0.2540280818939209  1.0000
  Ge  Ge5       1.0  0.6682415008544922  0.5516459345817566  0.9968467354774475  1.0000
  Ge  Ge6       1.0  0.9118407368659973  0.002986341482028365  0.13154354691505432  1.0000
  Li  Li1       1.0  0.8633618950843811  0.04479968175292015  0.5917903184890747  1.0000
  Li  Li2       1.0  0.9155220985412598  0.14656560122966766  0.1407707780599594  1.0000
  Li  Li3       1.0  0.150990828871727  0.7325413227081299  0.9102339744567871  1.0000
  Lu  Lu1       1.0  0.6902198791503906  0.6676085591316223  0.13400547206401825  1.0000
  Zn  Zn1       1.0  0.8672862648963928  0.5726053714752197  0.10051724314689636  1.0000
