data_image0
_chemical_formula_structural       Ce4Ge2Li5
_chemical_formula_sum              "Ce4 Ge2 Li5"
_cell_length_a       4.572013219797193
_cell_length_b       6.698521928287945
_cell_length_c       6.86789608001709
_cell_angle_alpha    91.0781769367715
_cell_angle_beta     95.83007049214082
_cell_angle_gamma    91.657009103274

_space_group_name_H-M_alt    "P 1"
_space_group_IT_number       1

loop_
  _space_group_symop_operation_xyz
  'x, y, z'

loop_
  _atom_site_type_symbol
  _atom_site_label
  _atom_site_symmetry_multiplicity
  _atom_site_fract_x
  _atom_site_fract_y
  _atom_site_fract_z
  _atom_site_occupancy
  Ce  Ce1       1.0  0.8651898503303528  0.2306710332632065  0.2796068787574768  1.0000
  Ce  Ce2       1.0  0.3673267960548401  0.40621662139892584  0.2939486801624298  1.0000
  Ce  Ce3       1.0  0.36359265446662903  0.1597011387348175  0.298676997423172  1.0000
  Ce  Ce4       1.0  0.8516372442245483  0.5272312164306641  0.9627569913864135  1.0000
  Ge  Ge1       1.0  0.873081386089325  0.4022126495838166  0.14254924654960632  1.0000
  Ge  Ge2       1.0  0.37037035822868347  0.8000623583793641  0.20682837069034574  1.0000
  Li  Li1       1.0  0.8679308295249939  0.5409078001976013  0.2569352090358734  1.0000
  Li  Li2       1.0  0.3707183003425598  0.8529506325721742  0.6127075552940369  1.0000
  Li  Li3       1.0  0.36913254857063293  0.7325184345245361  0.4227041602134704  1.0000
  Li  Li4       1.0  0.8687637448310852  0.6056829690933228  0.5321426391601562  1.0000
  Li  Li5       1.0  0.3646012544631958  0.5687377452850342  0.020033063367009163  1.0000
