data_image0
_chemical_formula_structural       Cd3Cl3K2
_chemical_formula_sum              "Cd3 Cl3 K2"
_cell_length_a       6.309218427381939
_cell_length_b       6.561514001585284
_cell_length_c       6.553410530090332
_cell_angle_alpha    116.67347600127232
_cell_angle_beta     89.99535822322522
_cell_angle_gamma    90.1878594979606

_space_group_name_H-M_alt    "P 1"
_space_group_IT_number       1

loop_
  _space_group_symop_operation_xyz
  'x, y, z'

loop_
  _atom_site_type_symbol
  _atom_site_label
  _atom_site_symmetry_multiplicity
  _atom_site_fract_x
  _atom_site_fract_y
  _atom_site_fract_z
  _atom_site_occupancy
  Cd  Cd1       1.0  0.8142931461334229  0.930901288986206  0.5564537048339843  1.0000
  Cd  Cd2       1.0  0.051345646381378174  0.45917782187461853  0.7337505221366882  1.0000
  Cd  Cd3       1.0  0.5528161525726318  0.45727139711380005  0.7314745783805847  1.0000
  Cl  Cl1       1.0  0.3066850006580353  0.8308715224266052  0.8480520844459534  1.0000
  Cl  Cl2       1.0  0.3043633699417114  0.2815774083137512  0.37672093510627747  1.0000
  Cl  Cl3       1.0  0.8064191937446594  0.6151642203330994  0.09561736881732938  1.0000
  K   K1        1.0  0.8045246005058289  0.11315734684467316  0.10193631798028946  1.0000
  K   K2        1.0  0.3083212971687317  0.770969808101654  0.33725541830062866  1.0000
