data_image0
_chemical_formula_structural       Cd2ClGeKNdP2
_chemical_formula_sum              "Cd2 Cl1 Ge1 K1 Nd1 P2"
_cell_length_a       4.256957752619837
_cell_length_b       4.254067666883224
_cell_length_c       13.595977783203125
_cell_angle_alpha    89.89082278155898
_cell_angle_beta     89.90425500072352
_cell_angle_gamma    119.85576832759325

_space_group_name_H-M_alt    "P 1"
_space_group_IT_number       1

loop_
  _space_group_symop_operation_xyz
  'x, y, z'

loop_
  _atom_site_type_symbol
  _atom_site_label
  _atom_site_symmetry_multiplicity
  _atom_site_fract_x
  _atom_site_fract_y
  _atom_site_fract_z
  _atom_site_occupancy
  Cd  Cd1       1.0  0.3131377100944519  0.04497949779033661  0.7742493748664856  1.0000
  Cd  Cd2       1.0  0.9795860052108765  0.3799198567867279  0.5351079106330872  1.0000
  Cl  Cl1       1.0  0.646093487739563  0.7118894457817078  0.6591302752494812  1.0000
  Ge  Ge1       1.0  0.980208694934845  0.3763969838619232  0.8717846274375916  1.0000
  K   K1        1.0  0.6471256613731384  0.7121602296829224  0.03173345699906349  1.0000
  Nd  Nd1       1.0  0.6429035663604736  0.711155354976654  0.32701611518859863  1.0000
  P   P1        1.0  0.3125206232070923  0.042421139776706696  0.21106088161468503  1.0000
  P   P2        1.0  0.3187933564186096  0.04728204756975174  0.44349116086959833  1.0000
