data_image0
_chemical_formula_structural       Cd2ClGe2K2P
_chemical_formula_sum              "Cd2 Cl1 Ge2 K2 P1"
_cell_length_a       6.230876695750508
_cell_length_b       6.2035158485675215
_cell_length_c       6.209909915924072
_cell_angle_alpha    99.04606453196949
_cell_angle_beta     98.10008422829928
_cell_angle_gamma    98.12213919302025

_space_group_name_H-M_alt    "P 1"
_space_group_IT_number       1

loop_
  _space_group_symop_operation_xyz
  'x, y, z'

loop_
  _atom_site_type_symbol
  _atom_site_label
  _atom_site_symmetry_multiplicity
  _atom_site_fract_x
  _atom_site_fract_y
  _atom_site_fract_z
  _atom_site_occupancy
  Cd  Cd1       1.0  0.6758140921592712  0.6630778908729553  0.11187303811311723  1.0000
  Cd  Cd2       1.0  0.01903728023171425  0.9446460604667664  0.8659420013427734  1.0000
  Cl  Cl1       1.0  0.0017068879678845406  0.9333576560020447  0.40691038966178894  1.0000
  Ge  Ge1       1.0  0.7549117207527161  0.2658315598964691  0.09163865447044377  1.0000
  Ge  Ge2       1.0  0.0028470754623413086  0.4540618658065796  0.8574007749557495  1.0000
  K   K1        1.0  0.2108602374792099  0.45758020877838135  0.3475872278213501  1.0000
  K   K2        1.0  0.5405074954032898  0.08927912265062332  0.6136144995689392  1.0000
  P   P1        1.0  0.29586413502693176  0.659006655216217  0.8729243278503418  1.0000
