data_image0
_chemical_formula_structural       Ge2I3InLiSe2
_chemical_formula_sum              "Ge2 I3 In1 Li1 Se2"
_cell_length_a       5.030810071530652
_cell_length_b       4.779074131051927
_cell_length_c       7.009819984436035
_cell_angle_alpha    105.11798888240709
_cell_angle_beta     91.0057495262983
_cell_angle_gamma    90.95190670748401

_space_group_name_H-M_alt    "P 1"
_space_group_IT_number       1

loop_
  _space_group_symop_operation_xyz
  'x, y, z'

loop_
  _atom_site_type_symbol
  _atom_site_label
  _atom_site_symmetry_multiplicity
  _atom_site_fract_x
  _atom_site_fract_y
  _atom_site_fract_z
  _atom_site_occupancy
  Ge  Ge1       1.0  0.4596967399120331  0.1527298241853714  0.7733981609344482  1.0000
  Ge  Ge2       1.0  0.6505435705184937  0.3415878415107727  0.33307498693466187  1.0000
  I   I1        1.0  0.021790867671370506  0.4468698501586914  0.39092114567756653  1.0000
  I   I2        1.0  0.49686136841773987  0.3220740854740143  0.9810088872909546  1.0000
  I   I3        1.0  0.07648132741451263  0.8980649709701538  0.736869215965271  1.0000
  In  In1       1.0  0.520937442779541  0.6895222663879395  0.8326196670532227  1.0000
  Li  Li1       1.0  0.5200390815734863  0.9659391045570374  0.35743847489356995  1.0000
  Se  Se1       1.0  0.5936470627784729  0.8780034780502319  0.9873018264770508  1.0000
  Se  Se2       1.0  0.06089554727077484  0.12925133109092712  0.33037087321281433  1.0000
