data_image0
_chemical_formula_structural       CoGe3I2Se3
_chemical_formula_sum              "Co1 Ge3 I2 Se3"
_cell_length_a       5.390041671041677
_cell_length_b       6.06217537815141
_cell_length_c       6.539104461669922
_cell_angle_alpha    121.19587752698422
_cell_angle_beta     99.85397394292026
_cell_angle_gamma    89.32613488334451

_space_group_name_H-M_alt    "P 1"
_space_group_IT_number       1

loop_
  _space_group_symop_operation_xyz
  'x, y, z'

loop_
  _atom_site_type_symbol
  _atom_site_label
  _atom_site_symmetry_multiplicity
  _atom_site_fract_x
  _atom_site_fract_y
  _atom_site_fract_z
  _atom_site_occupancy
  Co  Co1       1.0  0.3224170506000519  0.6609916687011719  0.631985068321228  1.0000
  Ge  Ge1       1.0  0.31661075353622437  0.9941984415054321  0.5633925795555114  1.0000
  Ge  Ge2       1.0  0.3385046422481537  0.2785121500492096  0.3056776523590088  1.0000
  Ge  Ge3       1.0  0.8102526664733887  0.46336090564727783  0.7048308849334717  1.0000
  I   I1        1.0  0.3100963830947876  0.21210284531116486  0.9645529389381408  1.0000
  I   I2        1.0  0.323434442281723  0.4560275077819824  0.40654581785202026  1.0000
  Se  Se1       1.0  0.8095069527626038  0.4651406705379486  0.7147856950759888  1.0000
  Se  Se2       1.0  0.8228291869163513  0.7141129374504089  0.04843716323375702  1.0000
  Se  Se3       1.0  0.8148307204246521  0.3303171992301941  0.1808447539806366  1.0000
