data_image0
_chemical_formula_structural       Li5SeTe3
_chemical_formula_sum              "Li5 Se1 Te3"
_cell_length_a       5.518513021497994
_cell_length_b       5.891414300120891
_cell_length_c       6.292455196380615
_cell_angle_alpha    112.42321082311148
_cell_angle_beta     107.38117642141614
_cell_angle_gamma    92.40500565272431

_space_group_name_H-M_alt    "P 1"
_space_group_IT_number       1

loop_
  _space_group_symop_operation_xyz
  'x, y, z'

loop_
  _atom_site_type_symbol
  _atom_site_label
  _atom_site_symmetry_multiplicity
  _atom_site_fract_x
  _atom_site_fract_y
  _atom_site_fract_z
  _atom_site_occupancy
  Li  Li1       1.0  0.8226496577262878  0.17484797537326813  0.6941344738006592  1.0000
  Li  Li2       1.0  0.33908766508102417  0.8405484557151794  0.6922605633735657  1.0000
  Li  Li3       1.0  0.8099635243415833  0.9701666831970215  0.14955593645572662  1.0000
  Li  Li4       1.0  0.8522422909736633  0.11650582402944565  0.0018465995090082375  1.0000
  Li  Li5       1.0  0.7970362305641174  0.7029176950454712  0.8772165179252625  1.0000
  Se  Se1       1.0  0.7799326181411743  0.09732526540756226  0.03584299236536026  1.0000
  Te  Te1       1.0  0.7730668187141418  0.6606268882751465  0.032889965921640396  1.0000
  Te  Te2       1.0  0.30198898911476135  0.7922698259353638  0.17123347520828247  1.0000
  Te  Te3       1.0  0.24816526472568512  0.5054530501365662  0.03847552463412285  1.0000
