data_image0
_chemical_formula_structural       Ge2I3LiSe2Ti
_chemical_formula_sum              "Ge2 I3 Li1 Se2 Ti1"
_cell_length_a       6.9314831759383395
_cell_length_b       6.873139125670133
_cell_length_c       6.98012113571167
_cell_angle_alpha    114.27540336498319
_cell_angle_beta     116.77679929187192
_cell_angle_gamma    108.70773986629251

_space_group_name_H-M_alt    "P 1"
_space_group_IT_number       1

loop_
  _space_group_symop_operation_xyz
  'x, y, z'

loop_
  _atom_site_type_symbol
  _atom_site_label
  _atom_site_symmetry_multiplicity
  _atom_site_fract_x
  _atom_site_fract_y
  _atom_site_fract_z
  _atom_site_occupancy
  Ge  Ge1       1.0  0.9796242117881774  0.5800055861473083  0.08240335434675204  1.0000
  Ge  Ge2       1.0  0.2264067083597183  0.18385925889015198  0.5359313488006592  1.0000
  I   I1        1.0  0.392955332994461  0.9232505559921265  0.38638940453529347  1.0000
  I   I2        1.0  0.9688924551010131  0.007278204429894686  0.11524916440248482  1.0000
  I   I3        1.0  0.4247848987579345  0.9444772005081177  0.7169610857963562  1.0000
  Li  Li1       1.0  0.5855777859687805  0.10510164499282837  0.8293964266777039  1.0000
  Se  Se1       1.0  0.7938948869705199  0.9907591342926025  0.3097839057445525  1.0000
  Se  Se2       1.0  0.2509877681732178  0.7663774490356445  0.434203952550888  1.0000
  Ti  Ti1       1.0  0.7370266318321227  0.4995156526565552  0.577235758304596  1.0000
