data_image0
_chemical_formula_structural       Li6Te3
_chemical_formula_sum              "Li6 Te3"
_cell_length_a       6.154736926053663
_cell_length_b       6.093924994590063
_cell_length_c       7.184630393981934
_cell_angle_alpha    119.03311572006749
_cell_angle_beta     121.47348969783302
_cell_angle_gamma    91.9342464741953

_space_group_name_H-M_alt    "P 1"
_space_group_IT_number       1

loop_
  _space_group_symop_operation_xyz
  'x, y, z'

loop_
  _atom_site_type_symbol
  _atom_site_label
  _atom_site_symmetry_multiplicity
  _atom_site_fract_x
  _atom_site_fract_y
  _atom_site_fract_z
  _atom_site_occupancy
  Li  Li1       1.0  0.6503886580467224  0.12947902083396912  0.8041487336158752  1.0000
  Li  Li2       1.0  0.17711465060710907  0.11461492627859116  0.7249918580055237  1.0000
  Li  Li3       1.0  0.9174028635025024  0.8277574181556702  0.23119470477104187  1.0000
  Li  Li4       1.0  0.5763255953788757  0.2585637867450714  0.8749545812606812  1.0000
  Li  Li5       1.0  0.21635672450065613  0.3082257807254791  0.6165652871131897  1.0000
  Li  Li6       1.0  0.08080242574214935  0.21980167925357819  0.24449293315410614  1.0000
  Te  Te1       1.0  0.6508826613426208  0.2696104347705841  0.9749782681465149  1.0000
  Te  Te2       1.0  0.2864139676094055  0.2325889617204666  0.33951181173324585  1.0000
  Te  Te3       1.0  0.7142616510391235  0.4541217088699341  0.1957417130470276  1.0000
