data_image0
_chemical_formula_structural       FGe4ILa3O3Zn
_chemical_formula_sum              "F1 Ge4 I1 La3 O3 Zn1"
_cell_length_a       5.419755056329994
_cell_length_b       5.751862052339094
_cell_length_c       10.82507610321045
_cell_angle_alpha    110.91541188058845
_cell_angle_beta     92.26450651143506
_cell_angle_gamma    89.4189695312935

_space_group_name_H-M_alt    "P 1"
_space_group_IT_number       1

loop_
  _space_group_symop_operation_xyz
  'x, y, z'

loop_
  _atom_site_type_symbol
  _atom_site_label
  _atom_site_symmetry_multiplicity
  _atom_site_fract_x
  _atom_site_fract_y
  _atom_site_fract_z
  _atom_site_occupancy
  F   F1        1.0  0.9704785346984864  0.41548380255699163  0.9402713775634766  1.0000
  Ge  Ge1       1.0  0.9671258330345155  0.5303073525428772  0.5540427565574646  1.0000
  Ge  Ge2       1.0  0.4540094733238221  0.3114306926727295  0.5613836646080017  1.0000
  Ge  Ge3       1.0  0.5015304088592529  0.8835482597351075  0.6217128038406372  1.0000
  Ge  Ge4       1.0  0.4654305279254914  0.9437817335128785  0.562611997127533  1.0000
  I   I1        1.0  0.9659125208854676  0.8073588013648988  0.5703423023223877  1.0000
  La  La1       1.0  0.9613258838653566  0.786923110485077  0.6061602234840393  1.0000
  La  La2       1.0  0.4640748500823975  0.9093720316886903  0.5608000755310059  1.0000
  La  La3       1.0  0.4585677087306977  0.5413058996200562  0.9597548246383667  1.0000
  O   O1        1.0  0.9516624212265016  0.728262722492218  0.9524831175804138  1.0000
  O   O2        1.0  0.46027794480323797  0.07818137109279633  0.9518471956253052  1.0000
  O   O3        1.0  0.9557199478149415  0.6411082148551941  0.5260582566261292  1.0000
  Zn  Zn1       1.0  0.9509807825088502  0.6712296009063721  0.023883091285824776  1.0000
