data_image0
_chemical_formula_structural       Ge7HLa3O2
_chemical_formula_sum              "Ge7 H1 La3 O2"
_cell_length_a       5.20743335690674
_cell_length_b       6.5292578130970815
_cell_length_c       6.783283710479736
_cell_angle_alpha    86.70832201167715
_cell_angle_beta     89.36614191266479
_cell_angle_gamma    90.62833941305011

_space_group_name_H-M_alt    "P 1"
_space_group_IT_number       1

loop_
  _space_group_symop_operation_xyz
  'x, y, z'

loop_
  _atom_site_type_symbol
  _atom_site_label
  _atom_site_symmetry_multiplicity
  _atom_site_fract_x
  _atom_site_fract_y
  _atom_site_fract_z
  _atom_site_occupancy
  Ge  Ge1       1.0  0.4038078486919403  0.31519538164138794  0.8967615365982056  1.0000
  Ge  Ge2       1.0  0.42755335569381714  0.646953821182251  0.6603050231933594  1.0000
  Ge  Ge3       1.0  0.4300258457660675  0.4307780861854553  0.8755480051040649  1.0000
  Ge  Ge4       1.0  0.9337985515594482  0.8396105766296387  0.9715280532836914  1.0000
  Ge  Ge5       1.0  0.24128203094005585  0.8152976632118225  0.3108251988887787  1.0000
  Ge  Ge6       1.0  0.43503671884536743  0.711788535118103  0.5494639873504638  1.0000
  Ge  Ge7       1.0  0.9297876358032227  0.039284348487854004  0.18298134207725525  1.0000
  H   H1        1.0  0.9262891411781311  0.04199754446744919  0.7699353098869324  1.0000
  La  La1       1.0  0.93785160779953  0.7857985496520996  0.9401828646659851  1.0000
  La  La2       1.0  0.925014853477478  0.2800672650337219  0.4271816909313202  1.0000
  La  La3       1.0  0.43092307448387146  0.08815115690231323  0.033784858882427216  1.0000
  O   O1        1.0  0.39623546600341797  0.7333059906959534  0.9157083630561829  1.0000
  O   O2        1.0  0.6235467195510864  0.8409703969955444  0.5271166563034058  1.0000
