data_image0
_chemical_formula_structural       Ge6La4O3
_chemical_formula_sum              "Ge6 La4 O3"
_cell_length_a       4.933498211379295
_cell_length_b       5.058139009728295
_cell_length_c       9.98678207397461
_cell_angle_alpha    90.39547417540025
_cell_angle_beta     91.91072835572822
_cell_angle_gamma    87.68944894831853

_space_group_name_H-M_alt    "P 1"
_space_group_IT_number       1

loop_
  _space_group_symop_operation_xyz
  'x, y, z'

loop_
  _atom_site_type_symbol
  _atom_site_label
  _atom_site_symmetry_multiplicity
  _atom_site_fract_x
  _atom_site_fract_y
  _atom_site_fract_z
  _atom_site_occupancy
  Ge  Ge1       1.0  0.3757930397987366  0.5836586952209473  0.11714106053113937  1.0000
  Ge  Ge2       1.0  0.9281412959098816  0.15490515530109406  0.27423179149627686  1.0000
  Ge  Ge3       1.0  0.937508761882782  0.4713242352008819  0.6494932770729065  1.0000
  Ge  Ge4       1.0  0.43769773840904236  0.22516095638275146  0.8683912754058838  1.0000
  Ge  Ge5       1.0  0.42501145601272583  0.3534606099128723  0.10073702782392502  1.0000
  Ge  Ge6       1.0  0.9238514304161072  0.7999169230461121  0.826446533203125  1.0000
  La  La1       1.0  0.9257323145866394  0.6364246010780334  0.9286757111549377  1.0000
  La  La2       1.0  0.8998439311981201  0.6480948328971863  0.12429430335760117  1.0000
  La  La3       1.0  0.07751401513814926  0.5825403928756714  0.05332505702972412  1.0000
  La  La4       1.0  0.7808462977409363  0.14522986114025116  0.6441212296485901  1.0000
  O   O1        1.0  0.4213595390319824  0.11084397882223129  0.9325322508811951  1.0000
  O   O2        1.0  0.36828115582466125  0.6755315065383911  0.4937829375267029  1.0000
  O   O3        1.0  0.4376468062400818  0.22093011438846588  0.8343372344970703  1.0000
