data_image0
_chemical_formula_structural       GeLa11O
_chemical_formula_sum              "Ge1 La11 O1"
_cell_length_a       5.29447959241754
_cell_length_b       7.262905939704203
_cell_length_c       7.146078109741211
_cell_angle_alpha    109.64393163363734
_cell_angle_beta     91.53211029118724
_cell_angle_gamma    109.86653135160682

_space_group_name_H-M_alt    "P 1"
_space_group_IT_number       1

loop_
  _space_group_symop_operation_xyz
  'x, y, z'

loop_
  _atom_site_type_symbol
  _atom_site_label
  _atom_site_symmetry_multiplicity
  _atom_site_fract_x
  _atom_site_fract_y
  _atom_site_fract_z
  _atom_site_occupancy
  Ge  Ge1       1.0  0.9959790706634521  0.5982158184051514  0.870522379875183  1.0000
  La  La1       1.0  0.0049905674532055855  0.3728521764278412  0.13183483481407166  1.0000
  La  La2       1.0  0.4990334212779999  0.8273773789405823  0.022239280864596363  1.0000
  La  La3       1.0  0.49093514680862427  0.4314481317996979  0.4632157683372497  1.0000
  La  La4       1.0  0.997585654258728  0.25693556666374207  0.6522141098976134  1.0000
  La  La5       1.0  0.5038567781448365  0.9607809782028199  0.0656718909740448  1.0000
  La  La6       1.0  0.006297270767390728  0.6906701326370239  0.8570622205734252  1.0000
  La  La7       1.0  0.48284241557121277  0.7360861301422119  0.8437169194221497  1.0000
  La  La8       1.0  0.003233981551602483  0.03340451419353485  0.9889601469039916  1.0000
  La  La9       1.0  0.4865208566188812  0.7096922993659973  0.3828382194042205  1.0000
  La  La10      1.0  0.029206665232777596  0.07484686374664307  0.10190798342227934  1.0000
  La  La11      1.0  0.9892032146453857  0.973105549812317  0.9671013355255126  1.0000
  O   O1        1.0  0.4850121140480042  0.9824751019477845  0.520084023475647  1.0000
