data_image0
_chemical_formula_structural       La11O2
_chemical_formula_sum              "La11 O2"
_cell_length_a       5.304757582686627
_cell_length_b       7.872227654731765
_cell_length_c       6.756569862365723
_cell_angle_alpha    120.84494055202224
_cell_angle_beta     90.84609592813193
_cell_angle_gamma    88.55217159091275

_space_group_name_H-M_alt    "P 1"
_space_group_IT_number       1

loop_
  _space_group_symop_operation_xyz
  'x, y, z'

loop_
  _atom_site_type_symbol
  _atom_site_label
  _atom_site_symmetry_multiplicity
  _atom_site_fract_x
  _atom_site_fract_y
  _atom_site_fract_z
  _atom_site_occupancy
  La  La1       1.0  0.3029884994029999  0.16424845159053802  0.021379726007580757  1.0000
  La  La2       1.0  0.45457643270492554  0.8072319626808167  0.6641870141029358  1.0000
  La  La3       1.0  0.4511091411113739  0.2998904585838318  0.36701491475105286  1.0000
  La  La4       1.0  0.7469059228897095  0.7909336686134338  0.7707304954528809  1.0000
  La  La5       1.0  0.8909241557121277  0.40074652433395386  0.022726785391569103  1.0000
  La  La6       1.0  0.8059019446372986  0.03075767122209072  0.4429808259010315  1.0000
  La  La7       1.0  0.43799784779548645  0.4541667103767395  0.5470776557922363  1.0000
  La  La8       1.0  0.011804413050413132  0.16046485304832458  0.7256349921226501  1.0000
  La  La9       1.0  0.9860063195228577  0.03779358044266701  0.015047355554997921  1.0000
  La  La10      1.0  0.8908984065055847  0.10962199419736862  0.34397485852241516  1.0000
  La  La11      1.0  0.21443180739879608  0.6150876879692078  0.874450147151947  1.0000
  O   O1        1.0  0.4158182740211487  0.22622635960578918  0.6307602524757385  1.0000
  O   O2        1.0  0.3664030134677887  0.1889764964580536  0.6846662163734436  1.0000
