data_image0
_chemical_formula_structural       Ge7La3O3
_chemical_formula_sum              "Ge7 La3 O3"
_cell_length_a       5.940402226042867
_cell_length_b       7.032410005931396
_cell_length_c       8.305301666259766
_cell_angle_alpha    110.72955183492738
_cell_angle_beta     98.30511064772838
_cell_angle_gamma    109.01946340321459

_space_group_name_H-M_alt    "P 1"
_space_group_IT_number       1

loop_
  _space_group_symop_operation_xyz
  'x, y, z'

loop_
  _atom_site_type_symbol
  _atom_site_label
  _atom_site_symmetry_multiplicity
  _atom_site_fract_x
  _atom_site_fract_y
  _atom_site_fract_z
  _atom_site_occupancy
  Ge  Ge1       1.0  0.052337873727083206  0.6211088299751282  0.16077840328216553  1.0000
  Ge  Ge2       1.0  0.9262847900390625  0.33388423919677734  0.21924203634262085  1.0000
  Ge  Ge3       1.0  0.44012293219566345  0.32363492250442505  0.761555552482605  1.0000
  Ge  Ge4       1.0  0.43472015857696533  0.3060983121395111  0.483476847410202  1.0000
  Ge  Ge5       1.0  0.9397007822990417  0.29556864500045776  0.5446578860282898  1.0000
  Ge  Ge6       1.0  0.9418565034866333  0.6669859886169434  0.2616107165813446  1.0000
  Ge  Ge7       1.0  0.2665078639984131  0.6751365661621094  0.8951473236083984  1.0000
  La  La1       1.0  0.6161307096481323  0.11913939565420151  0.5598861575126648  1.0000
  La  La2       1.0  0.9239888787269592  0.9598552584648132  0.8500671982765198  1.0000
  La  La3       1.0  0.9271737337112427  0.7870619297027588  0.4534049332141876  1.0000
  O   O1        1.0  0.5687363147735596  0.6534959673881531  0.5053099989891052  1.0000
  O   O2        1.0  0.15332813560962677  0.5755257606506348  0.14732688665390015  1.0000
  O   O3        1.0  0.0024998553562909556  0.5484462380409241  0.9323889017105103  1.0000
