data_image0
_chemical_formula_structural       O5P4
_chemical_formula_sum              "O5 P4"
_cell_length_a       6.22548818535739
_cell_length_b       6.357885130025586
_cell_length_c       6.374499320983887
_cell_angle_alpha    113.73744705785369
_cell_angle_beta     116.11725132278347
_cell_angle_gamma    92.93524728469924

_space_group_name_H-M_alt    "P 1"
_space_group_IT_number       1

loop_
  _space_group_symop_operation_xyz
  'x, y, z'

loop_
  _atom_site_type_symbol
  _atom_site_label
  _atom_site_symmetry_multiplicity
  _atom_site_fract_x
  _atom_site_fract_y
  _atom_site_fract_z
  _atom_site_occupancy
  O   O1        1.0  0.07320789992809296  0.13450728356838226  0.18430110812187195  1.0000
  O   O2        1.0  0.19593602418899536  0.6189048290252686  0.6582770347595215  1.0000
  O   O3        1.0  0.17784573137760162  0.9692137241363525  0.6548169851303101  1.0000
  O   O4        1.0  0.21883425116539001  0.19188302755355835  0.6589826345443726  1.0000
  O   O5        1.0  0.7161259055137634  0.6240432262420654  0.4474087953567505  1.0000
  P   P1        1.0  0.455145001411438  0.528569221496582  0.17101742327213287  1.0000
  P   P2        1.0  0.9480626583099365  0.8938305377960205  0.4249941110610962  1.0000
  P   P3        1.0  0.9501778483390808  0.19991615414619446  0.9193423390388489  1.0000
  P   P4        1.0  0.7605064511299133  0.8593994975090027  0.15142953395843506  1.0000
