data_image0
_chemical_formula_structural       CoO4P3Sm
_chemical_formula_sum              "Co1 O4 P3 Sm1"
_cell_length_a       4.849231269172474
_cell_length_b       5.097322212566494
_cell_length_c       6.797565460205078
_cell_angle_alpha    109.71609250773268
_cell_angle_beta     109.0311442542828
_cell_angle_gamma    90.23858096494222

_space_group_name_H-M_alt    "P 1"
_space_group_IT_number       1

loop_
  _space_group_symop_operation_xyz
  'x, y, z'

loop_
  _atom_site_type_symbol
  _atom_site_label
  _atom_site_symmetry_multiplicity
  _atom_site_fract_x
  _atom_site_fract_y
  _atom_site_fract_z
  _atom_site_occupancy
  Co  Co1       1.0  0.888573408126831  0.37205857038497925  0.3024823069572449  1.0000
  O   O1        1.0  0.02565157786011696  0.546181321144104  0.027730606496334076  1.0000
  O   O2        1.0  0.2118532508611679  0.06210996210575104  0.4382331073284149  1.0000
  O   O3        1.0  0.2811710834503174  0.001538395881652832  0.6055393815040588  1.0000
  O   O4        1.0  0.5818385481834412  0.615173876285553  0.24975807964801786  1.0000
  P   P1        1.0  0.9380115866661072  0.580607533454895  0.6811758875846863  1.0000
  P   P2        1.0  0.39438575506210327  0.60353022813797  0.3163449168205261  1.0000
  P   P3        1.0  0.4165222942829132  0.6085954904556274  0.7329161763191223  1.0000
  Sm  Sm1       1.0  0.03904398903250694  0.0509304478764534  0.024033190682530403  1.0000
