data_image0
_chemical_formula_structural       O3P5Pd
_chemical_formula_sum              "O3 P5 Pd1"
_cell_length_a       5.37427494699854
_cell_length_b       5.692715251095569
_cell_length_c       7.393348693847656
_cell_angle_alpha    107.58041559785396
_cell_angle_beta     109.3027598085979
_cell_angle_gamma    100.60335736363467

_space_group_name_H-M_alt    "P 1"
_space_group_IT_number       1

loop_
  _space_group_symop_operation_xyz
  'x, y, z'

loop_
  _atom_site_type_symbol
  _atom_site_label
  _atom_site_symmetry_multiplicity
  _atom_site_fract_x
  _atom_site_fract_y
  _atom_site_fract_z
  _atom_site_occupancy
  O   O1        1.0  0.47709041833877563  0.638469934463501  0.899594247341156  1.0000
  O   O2        1.0  0.46716824173927307  0.09250152856111526  0.11139992624521254  1.0000
  O   O3        1.0  0.9980103373527527  0.6048982739448547  0.8932870626449585  1.0000
  P   P1        1.0  0.4330810010433197  0.3941008448600769  0.998137891292572  1.0000
  P   P2        1.0  0.5433772802352905  0.45558077096939087  0.6484241485595703  1.0000
  P   P3        1.0  0.8370595574378967  0.15623235702514648  0.3757443130016327  1.0000
  P   P4        1.0  0.9282019138336182  0.6501630544662476  0.007736521773040295  1.0000
  P   P5        1.0  0.16360817849636078  0.9304078221321106  0.14924617111682895  1.0000
  Pd  Pd1       1.0  0.6868011355400085  0.9573667049407959  0.15871268510818481  1.0000
