data_image0
_chemical_formula_structural       Fe3O3P3
_chemical_formula_sum              "Fe3 O3 P3"
_cell_length_a       4.55502057196977
_cell_length_b       5.216606690863736
_cell_length_c       5.1438069343566895
_cell_angle_alpha    100.92592380546236
_cell_angle_beta     93.71097902553618
_cell_angle_gamma    94.60885941173615

_space_group_name_H-M_alt    "P 1"
_space_group_IT_number       1

loop_
  _space_group_symop_operation_xyz
  'x, y, z'

loop_
  _atom_site_type_symbol
  _atom_site_label
  _atom_site_symmetry_multiplicity
  _atom_site_fract_x
  _atom_site_fract_y
  _atom_site_fract_z
  _atom_site_occupancy
  Fe  Fe1       1.0  0.21487896144390106  0.4832534193992615  0.22714455425739288  1.0000
  Fe  Fe2       1.0  0.26432862877845764  0.8373080492019653  0.012320912443101384  1.0000
  Fe  Fe3       1.0  0.5913797616958618  0.18455269932746887  0.3775777816772461  1.0000
  O   O1        1.0  0.9526933431625366  0.6471613645553589  0.9587728977203369  1.0000
  O   O2        1.0  0.6607763767242432  0.9991843104362488  0.22283974289894098  1.0000
  O   O3        1.0  0.9671028852462769  0.7423673272132874  0.47263821959495544  1.0000
  P   P1        1.0  0.23027004301548004  0.22728222608566284  0.9010079503059387  1.0000
  P   P2        1.0  0.8093479871749878  0.3374747335910797  0.8569241166114807  1.0000
  P   P3        1.0  0.5651753544807434  0.7102566361427307  0.5837646722793579  1.0000
