data_image0
_chemical_formula_structural       Fe2O2P5
_chemical_formula_sum              "Fe2 O2 P5"
_cell_length_a       4.6857335863966405
_cell_length_b       5.1190764976194645
_cell_length_c       5.051786422729492
_cell_angle_alpha    106.92963080358335
_cell_angle_beta     99.64537564251668
_cell_angle_gamma    97.81578183156996

_space_group_name_H-M_alt    "P 1"
_space_group_IT_number       1

loop_
  _space_group_symop_operation_xyz
  'x, y, z'

loop_
  _atom_site_type_symbol
  _atom_site_label
  _atom_site_symmetry_multiplicity
  _atom_site_fract_x
  _atom_site_fract_y
  _atom_site_fract_z
  _atom_site_occupancy
  Fe  Fe1       1.0  0.21067197620868683  0.7865391969680786  0.04346133768558502  1.0000
  Fe  Fe2       1.0  0.5552946329116821  0.9243202209472656  0.7941165566444397  1.0000
  O   O1        1.0  0.9105241298675537  0.8139896392822266  0.8481336832046509  1.0000
  O   O2        1.0  0.9159009456634521  0.8764638900756836  0.9794915914535522  1.0000
  P   P1        1.0  0.09983387589454651  0.8307705521583557  0.46692216396331787  1.0000
  P   P2        1.0  0.5422906875610352  0.8770354986190796  0.42569687962532043  1.0000
  P   P3        1.0  0.8328761458396912  0.3157946765422821  0.30500105023384094  1.0000
  P   P4        1.0  0.3299691081047058  0.40070948004722595  0.31926071643829346  1.0000
  P   P5        1.0  0.00786557700484991  0.37297677993774414  0.7236037254333496  1.0000
