data_image0
_chemical_formula_structural       FeO4P4
_chemical_formula_sum              "Fe1 O4 P4"
_cell_length_a       6.258482852039384
_cell_length_b       6.921430741887013
_cell_length_c       7.031684875488281
_cell_angle_alpha    112.92197355327602
_cell_angle_beta     110.28505562039469
_cell_angle_gamma    96.08199282969466

_space_group_name_H-M_alt    "P 1"
_space_group_IT_number       1

loop_
  _space_group_symop_operation_xyz
  'x, y, z'

loop_
  _atom_site_type_symbol
  _atom_site_label
  _atom_site_symmetry_multiplicity
  _atom_site_fract_x
  _atom_site_fract_y
  _atom_site_fract_z
  _atom_site_occupancy
  Fe  Fe1       1.0  0.8927000761032106  0.8286778926849365  0.32364708185195923  1.0000
  O   O1        1.0  0.33126577734947205  0.09801162034273148  0.6711235046386719  1.0000
  O   O2        1.0  0.05535885319113732  0.572058379650116  0.653681218624115  1.0000
  O   O3        1.0  0.07083220779895782  0.7106518745422363  0.44480541348457336  1.0000
  O   O4        1.0  0.3830948173999787  0.8393992781639099  0.8446374535560608  1.0000
  P   P1        1.0  0.5678538084030151  0.5611990690231323  0.43824440240859985  1.0000
  P   P2        1.0  0.09305027872323991  0.5851879715919495  0.0698511153459549  1.0000
  P   P3        1.0  0.18032397329807284  0.3020342290401459  0.8348459601402283  1.0000
  P   P4        1.0  0.28591910004615784  0.30436182022094727  0.06925500184297562  1.0000
