data_image0
_chemical_formula_structural       As3Be3Cu3
_chemical_formula_sum              "As3 Be3 Cu3"
_cell_length_a       3.4877668406847846
_cell_length_b       5.430587089307929
_cell_length_c       6.7364702224731445
_cell_angle_alpha    70.41570716468429
_cell_angle_beta     75.19434468658704
_cell_angle_gamma    71.16766851987887

_space_group_name_H-M_alt    "P 1"
_space_group_IT_number       1

loop_
  _space_group_symop_operation_xyz
  'x, y, z'

loop_
  _atom_site_type_symbol
  _atom_site_label
  _atom_site_symmetry_multiplicity
  _atom_site_fract_x
  _atom_site_fract_y
  _atom_site_fract_z
  _atom_site_occupancy
  As  As1       1.0  0.9672757983207703  0.7954318523406982  0.9059303402900696  1.0000
  As  As2       1.0  0.6508603096008301  0.13056069612503052  0.24219143390655518  1.0000
  As  As3       1.0  0.3108290433883667  0.4375038146972656  0.614845871925354  1.0000
  Be  Be1       1.0  0.08584996312856674  0.37452226877212524  0.11886540055274965  1.0000
  Be  Be2       1.0  0.3780182898044586  0.05259861424565315  0.8522135019302367  1.0000
  Be  Be3       1.0  0.708454430103302  0.3912252187728882  0.8761770129203796  1.0000
  Cu  Cu1       1.0  0.9605342745780945  0.21141886711120605  0.5098408460617065  1.0000
  Cu  Cu2       1.0  0.6309026479721069  0.7952868938446045  0.5832093358039856  1.0000
  Cu  Cu3       1.0  0.3394910991191864  0.7493436336517334  0.21498312056064603  1.0000
