data_image0
_chemical_formula_structural       CuF3NNdTeWZr
_chemical_formula_sum              "Cu1 F3 N1 Nd1 Te1 W1 Zr1"
_cell_length_a       5.879817416717911
_cell_length_b       5.841979177906335
_cell_length_c       5.878857612609863
_cell_angle_alpha    64.49268673277508
_cell_angle_beta     64.8894875305919
_cell_angle_gamma    64.29972873417113

_space_group_name_H-M_alt    "P 1"
_space_group_IT_number       1

loop_
  _space_group_symop_operation_xyz
  'x, y, z'

loop_
  _atom_site_type_symbol
  _atom_site_label
  _atom_site_symmetry_multiplicity
  _atom_site_fract_x
  _atom_site_fract_y
  _atom_site_fract_z
  _atom_site_occupancy
  Cu  Cu1       1.0  0.7935888171195984  0.7489496469497681  0.3999137580394745  1.0000
  F   F1        1.0  0.17980089783668518  0.6934475898742676  0.3941127359867096  1.0000
  F   F2        1.0  0.48139113187789917  0.09956187009811401  0.4054821729660035  1.0000
  F   F3        1.0  0.7514457106590271  0.41124242544174194  0.39874890446662903  1.0000
  N   N1        1.0  0.26904332637786865  0.2686862349510193  0.9716426730155945  1.0000
  Nd  Nd1       1.0  0.5829046964645386  0.5367369651794434  0.009565591812133808  1.0000
  Te  Te1       1.0  0.9558836817741394  0.9151273965835571  0.8918747305870057  1.0000
  W   W1        1.0  0.3806934654712677  0.33415430784225464  0.6371608376502991  1.0000
  Zr  Zr1       1.0  0.13402199745178223  0.08297666162252426  0.380623459815979  1.0000
