data_image0
_chemical_formula_structural       AsBeClF2NaTaWZr
_chemical_formula_sum              "As1 Be1 Cl1 F2 Na1 Ta1 W1 Zr1"
_cell_length_a       5.51542165651504
_cell_length_b       5.51240773568031
_cell_length_c       5.459742069244385
_cell_angle_alpha    95.11643390497596
_cell_angle_beta     95.11290259438593
_cell_angle_gamma    94.7962475483999

_space_group_name_H-M_alt    "P 1"
_space_group_IT_number       1

loop_
  _space_group_symop_operation_xyz
  'x, y, z'

loop_
  _atom_site_type_symbol
  _atom_site_label
  _atom_site_symmetry_multiplicity
  _atom_site_fract_x
  _atom_site_fract_y
  _atom_site_fract_z
  _atom_site_occupancy
  As  As1       1.0  0.9452384114265442  0.7364063858985901  0.6957402229309082  1.0000
  Be  Be1       1.0  0.5294564366340637  0.722411036491394  0.5655968189239502  1.0000
  Cl  Cl1       1.0  0.39878979325294495  0.2965427339076996  0.5514923334121704  1.0000
  F   F1        1.0  0.9503224492073059  0.23413731157779694  0.11315420269966125  1.0000
  F   F2        1.0  0.4882657825946808  0.7538824081420898  0.2565106749534607  1.0000
  Na  Na1       1.0  0.3630252480506897  0.07980828732252121  0.01910983771085739  1.0000
  Ta  Ta1       1.0  0.14309899508953094  0.5875231623649597  0.28234681487083435  1.0000
  W   W1        1.0  0.8358567953109741  0.919187605381012  0.283191442489624  1.0000
  Zr  Zr1       1.0  0.8768961429595947  0.2651837468147278  0.6953019499778748  1.0000
