data_image0
_chemical_formula_structural       O8P6S2
_chemical_formula_sum              "O8 P6 S2"
_cell_length_a       5.4834387037732295
_cell_length_b       8.301443712721078
_cell_length_c       8.288981437683105
_cell_angle_alpha    118.25585519932093
_cell_angle_beta     89.08216997424178
_cell_angle_gamma    89.70359733155165

_space_group_name_H-M_alt    "P 1"
_space_group_IT_number       1

loop_
  _space_group_symop_operation_xyz
  'x, y, z'

loop_
  _atom_site_type_symbol
  _atom_site_label
  _atom_site_symmetry_multiplicity
  _atom_site_fract_x
  _atom_site_fract_y
  _atom_site_fract_z
  _atom_site_occupancy
  O   O1        1.0  0.2893979847431183  0.08654796332120897  0.49486833810806274  1.0000
  O   O2        1.0  0.2851603627204895  0.2597743272781372  0.1465106755495072  1.0000
  O   O3        1.0  0.22995389997959137  0.43122282624244695  0.25001874566078186  1.0000
  O   O4        1.0  0.7788153886795044  0.23444877564907077  0.7950736284255981  1.0000
  O   O5        1.0  0.7870512008666992  0.7497454285621644  0.15122526884078985  1.0000
  O   O6        1.0  0.7904211282730103  0.8525696992874147  0.09289005398750311  1.0000
  O   O7        1.0  0.2770410478115082  0.8205486536026002  0.5161859989166261  1.0000
  O   O8        1.0  0.25175225734710693  0.6823148727416993  0.9155583381652832  1.0000
  P   P1        1.0  0.04967460408806801  0.7362571358680726  0.4214552938938142  1.0000
  P   P2        1.0  0.5469573736190796  0.14801183342933658  0.6338611841201782  1.0000
  P   P3        1.0  0.547650933265686  0.13050590455532074  0.6273101568222046  1.0000
  P   P4        1.0  0.5530959963798523  0.9157614707946778  0.9058649539947511  1.0000
  P   P5        1.0  0.032244469970464706  0.09523247927427293  0.6086862683296204  1.0000
  P   P6        1.0  0.05065750330686569  0.23234315216541293  0.7515265941619873  1.0000
  S   S1        1.0  0.042643629014492035  0.5833259224891664  0.5195573568344116  1.0000
  S   S2        1.0  0.28342175483703613  0.7466410994529725  0.6377197504043579  1.0000
