data_image0
_chemical_formula_structural       O9P5S2
_chemical_formula_sum              "O9 P5 S2"
_cell_length_a       5.43535924155873
_cell_length_b       5.912266345591587
_cell_length_c       7.785661220550537
_cell_angle_alpha    107.13213908507227
_cell_angle_beta     107.96724013936975
_cell_angle_gamma    88.87129663686183

_space_group_name_H-M_alt    "P 1"
_space_group_IT_number       1

loop_
  _space_group_symop_operation_xyz
  'x, y, z'

loop_
  _atom_site_type_symbol
  _atom_site_label
  _atom_site_symmetry_multiplicity
  _atom_site_fract_x
  _atom_site_fract_y
  _atom_site_fract_z
  _atom_site_occupancy
  O   O1        1.0  0.9522853493690491  0.578956127166748  0.013085569255053997  1.0000
  O   O2        1.0  0.6680765151977539  0.3942583501338959  0.9358639717102051  1.0000
  O   O3        1.0  0.15378132462501526  0.839916467666626  0.8253553509712219  1.0000
  O   O4        1.0  0.3017178475856781  0.5256091952323914  0.6764174699783325  1.0000
  O   O5        1.0  0.4185760021209717  0.8440794944763184  0.8104463219642639  1.0000
  O   O6        1.0  0.4931481182575226  0.19244489073753357  0.5925887227058411  1.0000
  O   O7        1.0  0.5923161506652832  0.2086828202009201  0.8232049345970154  1.0000
  O   O8        1.0  0.8216360807418823  0.010384324006736279  0.37002065777778625  1.0000
  O   O9        1.0  0.34131622314453125  0.5717238187789917  0.22389823198318484  1.0000
  P   P1        1.0  0.5804811716079712  0.8047896027565002  0.5466554164886475  1.0000
  P   P2        1.0  0.4258406460285187  0.354326456785202  0.222183957695961  1.0000
  P   P3        1.0  0.16806307435035706  0.7575514316558838  0.17133358120918277  1.0000
  P   P4        1.0  0.8491185903549194  0.887205183506012  0.1821625977754593  1.0000
  P   P5        1.0  0.11864572018384933  0.7393825054168701  0.5258646607398987  1.0000
  S   S1        1.0  0.3225288391113281  0.18752771615982056  0.4141630530357361  1.0000
  S   S2        1.0  0.7232517004013062  0.22168830037117004  0.06628299504518509  1.0000
