data_image0
_chemical_formula_structural       O7P5PtRh2S
_chemical_formula_sum              "O7 P5 Pt1 Rh2 S1"
_cell_length_a       4.984474651146711
_cell_length_b       7.259218254025614
_cell_length_c       8.342657089233398
_cell_angle_alpha    90.20116610349446
_cell_angle_beta     89.80916159654761
_cell_angle_gamma    89.8942762498632

_space_group_name_H-M_alt    "P 1"
_space_group_IT_number       1

loop_
  _space_group_symop_operation_xyz
  'x, y, z'

loop_
  _atom_site_type_symbol
  _atom_site_label
  _atom_site_symmetry_multiplicity
  _atom_site_fract_x
  _atom_site_fract_y
  _atom_site_fract_z
  _atom_site_occupancy
  O   O1        1.0  0.7842347025871277  0.3482912480831146  0.928418755531311  1.0000
  O   O2        1.0  0.7525231838226318  0.976138174533844  0.15998889505863192  1.0000
  O   O3        1.0  0.7531791925430298  0.752648651599884  0.6649880409240723  1.0000
  O   O4        1.0  0.2611962556838989  0.5779044032096863  0.7709606289863586  1.0000
  O   O5        1.0  0.7869141101837158  0.05584080517292023  0.25670552253723145  1.0000
  O   O6        1.0  0.24540972709655762  0.322428822517395  0.5119694471359253  1.0000
  O   O7        1.0  0.25784870982170105  0.06303282827138901  0.051852308213710785  1.0000
  P   P1        1.0  0.48718810081481934  0.858290433883667  0.9443652629852296  1.0000
  P   P2        1.0  0.9789828658103943  0.061973050236701965  0.269766628742218  1.0000
  P   P3        1.0  0.6995083093643188  0.3754558265209198  0.40809154510498047  1.0000
  P   P4        1.0  0.2506602108478546  0.46888697147369385  0.6983354687690735  1.0000
  P   P5        1.0  0.47982048988342285  0.033516813069581985  0.8047967553138733  1.0000
  Pt  Pt1       1.0  0.7372205257415771  0.0397164560854435  0.06421913206577301  1.0000
  Rh  Rh1       1.0  0.7377280592918396  0.060473766177892685  0.7518225312232971  1.0000
  Rh  Rh2       1.0  0.2361842393875122  0.9076471328735352  0.5168358683586121  1.0000
  S   S1        1.0  0.10064435005187988  0.22459553182125092  0.46216610074043274  1.0000
