data_image0
_chemical_formula_structural       H4O3Pt8Rh
_chemical_formula_sum              "H4 O3 Pt8 Rh1"
_cell_length_a       4.464967532375725
_cell_length_b       6.209206768624031
_cell_length_c       9.22476577758789
_cell_angle_alpha    113.73813124291887
_cell_angle_beta     88.05665009568308
_cell_angle_gamma    88.80633765096458

_space_group_name_H-M_alt    "P 1"
_space_group_IT_number       1

loop_
  _space_group_symop_operation_xyz
  'x, y, z'

loop_
  _atom_site_type_symbol
  _atom_site_label
  _atom_site_symmetry_multiplicity
  _atom_site_fract_x
  _atom_site_fract_y
  _atom_site_fract_z
  _atom_site_occupancy
  H   H1        1.0  0.7892970442771912  0.6603661179542542  0.08271422982215884  1.0000
  H   H2        1.0  0.7810264825820923  0.25996193289756775  0.13690966367721558  1.0000
  H   H3        1.0  0.29185381531715393  0.46261763572692877  0.33763059973716736  1.0000
  H   H4        1.0  0.7917344570159912  0.09253551065921783  0.6090230941772461  1.0000
  O   O1        1.0  0.2910046875476837  0.9133046269416809  0.749761700630188  1.0000
  O   O2        1.0  0.2635560631752014  0.9191060066223145  0.45853978395462036  1.0000
  O   O3        1.0  0.8007595539093018  0.18220233917236328  0.4629179537296295  1.0000
  Pt  Pt1       1.0  0.2864368259906769  0.7902919054031372  0.4156731367111206  1.0000
  Pt  Pt2       1.0  0.799527645111084  0.32259097695350647  0.9104400277137756  1.0000
  Pt  Pt3       1.0  0.29711082577705383  0.5538190603256226  0.09284649789333346  1.0000
  Pt  Pt4       1.0  0.29004716873168945  0.3303540349006653  0.2622223496437073  1.0000
  Pt  Pt5       1.0  0.7878084182739258  0.8127928376197815  0.9082779288291931  1.0000
  Pt  Pt6       1.0  0.28978395462036133  0.9111706614494324  0.7517770528793335  1.0000
  Pt  Pt7       1.0  0.28269633650779724  0.9342392086982728  0.7643746137619019  1.0000
  Pt  Pt8       1.0  0.293587863445282  0.8070071339607239  0.23698841035366058  1.0000
  Rh  Rh1       1.0  0.7804102301597595  0.8726633191108704  0.16644538938999182  1.0000
