data_image0
_chemical_formula_structural       H2O5P6PtRhS
_chemical_formula_sum              "H2 O5 P6 Pt1 Rh1 S1"
_cell_length_a       5.084553682007509
_cell_length_b       5.765270477177061
_cell_length_c       9.080519676208496
_cell_angle_alpha    90.21533916351264
_cell_angle_beta     89.94494132937098
_cell_angle_gamma    90.6895689299334

_space_group_name_H-M_alt    "P 1"
_space_group_IT_number       1

loop_
  _space_group_symop_operation_xyz
  'x, y, z'

loop_
  _atom_site_type_symbol
  _atom_site_label
  _atom_site_symmetry_multiplicity
  _atom_site_fract_x
  _atom_site_fract_y
  _atom_site_fract_z
  _atom_site_occupancy
  H   H1        1.0  0.0799664631485939  0.5345739722251892  0.38726046681404114  1.0000
  H   H2        1.0  0.5419628620147705  0.2147843837738037  0.9816373586654663  1.0000
  O   O1        1.0  0.8608111143112183  0.2338913083076477  0.5472102165222168  1.0000
  O   O2        1.0  0.19348567724227905  0.1913766860961914  0.731960654258728  1.0000
  O   O3        1.0  0.7195291519165039  0.5332854390144348  0.9946547746658325  1.0000
  O   O4        1.0  0.2148699164390564  0.006307295989245176  0.47882595658302307  1.0000
  O   O5        1.0  0.37764376401901245  0.7310636639595032  0.5077926516532898  1.0000
  P   P1        1.0  0.5957724452018738  0.25819510221481323  0.3867248594760895  1.0000
  P   P2        1.0  0.5350711941719055  0.7351729869842529  0.27243638038635254  1.0000
  P   P3        1.0  0.8683282732963562  0.7707902193069458  0.33278384804725647  1.0000
  P   P4        1.0  0.8951339721679688  0.5202507972717285  0.7436641454696655  1.0000
  P   P5        1.0  0.22750906646251678  0.7322706580162048  0.5086829662322998  1.0000
  P   P6        1.0  0.12124471366405487  0.2385886013507843  0.9959872364997864  1.0000
  Pt  Pt1       1.0  0.3799131512641907  0.4871116876602173  0.6683819890022278  1.0000
  Rh  Rh1       1.0  0.7352978587150574  0.03306146711111069  0.9111543893814087  1.0000
  S   S1        1.0  0.005229840986430645  0.12278207391500473  0.4304083585739136  1.0000
