data_image0
_chemical_formula_structural       CaH5OPt7RhSe
_chemical_formula_sum              "Ca1 H5 O1 Pt7 Rh1 Se1"
_cell_length_a       4.675953538844226
_cell_length_b       5.3337024267076965
_cell_length_c       10.380228996276855
_cell_angle_alpha    96.02216638168544
_cell_angle_beta     88.93710097572084
_cell_angle_gamma    88.44983362311956

_space_group_name_H-M_alt    "P 1"
_space_group_IT_number       1

loop_
  _space_group_symop_operation_xyz
  'x, y, z'

loop_
  _atom_site_type_symbol
  _atom_site_label
  _atom_site_symmetry_multiplicity
  _atom_site_fract_x
  _atom_site_fract_y
  _atom_site_fract_z
  _atom_site_occupancy
  Ca  Ca1       1.0  0.7776312828063965  0.23307041823863983  0.435506135225296  1.0000
  H   H1        1.0  0.9974060654640198  0.534768283367157  0.3759387135505676  1.0000
  H   H2        1.0  0.7898431420326233  0.9334279298782349  0.8503991961479187  1.0000
  H   H3        1.0  0.3064638674259186  0.9957714676856995  0.9414953589439392  1.0000
  H   H4        1.0  0.9264805912971497  0.5940638780593872  0.005158378276973963  1.0000
  H   H5        1.0  0.2177872657775879  0.01240454614162445  0.7528187036514282  1.0000
  O   O1        1.0  0.8047477006912231  0.7122189402580261  0.27725374698638916  1.0000
  Pt  Pt1       1.0  0.30436691641807556  0.4795630872249603  0.26755860447883606  1.0000
  Pt  Pt2       1.0  0.8025140762329102  0.7368916273117065  0.36551806330680847  1.0000
  Pt  Pt3       1.0  0.31049683690071106  0.9970611929893494  0.571186900138855  1.0000
  Pt  Pt4       1.0  0.8489052057266235  0.20618319511413574  0.03706345707178116  1.0000
  Pt  Pt5       1.0  0.28893178701400757  0.6826235055923462  0.6606714129447937  1.0000
  Pt  Pt6       1.0  0.2629045844078064  0.944968044757843  0.31031134724617004  1.0000
  Pt  Pt7       1.0  0.8133255243301392  0.7244259119033813  0.30782127380371094  1.0000
  Rh  Rh1       1.0  0.7869527339935303  0.9911727905273438  0.7096338272094727  1.0000
  Se  Se1       1.0  0.6410634517669678  0.019481150433421135  0.5284737348556519  1.0000
