data_image0
_chemical_formula_structural       LaMo2Nb4RhSb
_chemical_formula_sum              "La1 Mo2 Nb4 Rh1 Sb1"
_cell_length_a       4.583516313547469
_cell_length_b       5.0390850062993024
_cell_length_c       7.932263374328613
_cell_angle_alpha    96.45958040431647
_cell_angle_beta     90.5377771580404
_cell_angle_gamma    97.58986894424868

_space_group_name_H-M_alt    "P 1"
_space_group_IT_number       1

loop_
  _space_group_symop_operation_xyz
  'x, y, z'

loop_
  _atom_site_type_symbol
  _atom_site_label
  _atom_site_symmetry_multiplicity
  _atom_site_fract_x
  _atom_site_fract_y
  _atom_site_fract_z
  _atom_site_occupancy
  La  La1       1.0  0.13884668052196503  0.38601866364479065  0.2839466631412506  1.0000
  Mo  Mo1       1.0  0.2041025161743164  0.1667042225599289  0.48230671882629395  1.0000
  Mo  Mo2       1.0  0.18704354763031006  0.643828809261322  0.24870377779006958  1.0000
  Nb  Nb1       1.0  0.6594741344451904  0.8944177627563477  0.5772526264190674  1.0000
  Nb  Nb2       1.0  0.15816368162631989  0.9060438275337219  0.10664676874876022  1.0000
  Nb  Nb3       1.0  0.6658383011817932  0.6500599384307861  0.5736334323883057  1.0000
  Nb  Nb4       1.0  0.16490206122398376  0.6582931280136108  0.8187408447265625  1.0000
  Rh  Rh1       1.0  0.021956022828817368  0.32541224360466003  0.9908989667892456  1.0000
  Sb  Sb1       1.0  0.5330016613006592  0.3267572224140167  0.08505350351333618  1.0000
