data_image0
_chemical_formula_structural       CoMo2NbRhSb2TaTi
_chemical_formula_sum              "Co1 Mo2 Nb1 Rh1 Sb2 Ta1 Ti1"
_cell_length_a       4.705744939445746
_cell_length_b       5.604360777755702
_cell_length_c       6.949830055236816
_cell_angle_alpha    99.118512172553
_cell_angle_beta     85.1589185723743
_cell_angle_gamma    110.6748251448046

_space_group_name_H-M_alt    "P 1"
_space_group_IT_number       1

loop_
  _space_group_symop_operation_xyz
  'x, y, z'

loop_
  _atom_site_type_symbol
  _atom_site_label
  _atom_site_symmetry_multiplicity
  _atom_site_fract_x
  _atom_site_fract_y
  _atom_site_fract_z
  _atom_site_occupancy
  Co  Co1       1.0  0.17915219068527222  0.6739692091941833  0.5741668939590454  1.0000
  Mo  Mo1       1.0  0.6731536388397217  0.828784704208374  0.06518074125051497  1.0000
  Mo  Mo2       1.0  0.6042147278785706  0.39844247698783875  0.27555039525032043  1.0000
  Nb  Nb1       1.0  0.29943445324897766  0.9804384112358093  0.3126714825630188  1.0000
  Rh  Rh1       1.0  0.2731475234031677  0.14797861874103546  0.787822723388672  1.0000
  Sb  Sb1       1.0  0.6138423681259155  0.4399578273296356  0.5573779940605164  1.0000
  Sb  Sb2       1.0  0.7863327860832214  0.9055879712104797  0.6071662306785583  1.0000
  Ta  Ta1       1.0  0.812332808971405  0.2810474634170532  0.8099413514137269  1.0000
  Ti  Ti1       1.0  0.10862648487091064  0.7966852188110352  0.31083762645721436  1.0000
