data_image0
_chemical_formula_structural       CoMoNb3Rh2SbSi
_chemical_formula_sum              "Co1 Mo1 Nb3 Rh2 Sb1 Si1"
_cell_length_a       3.704740681530424
_cell_length_b       5.953597306923034
_cell_length_c       7.719871520996094
_cell_angle_alpha    107.40315705900147
_cell_angle_beta     89.14214387870554
_cell_angle_gamma    90.56843685965366

_space_group_name_H-M_alt    "P 1"
_space_group_IT_number       1

loop_
  _space_group_symop_operation_xyz
  'x, y, z'

loop_
  _atom_site_type_symbol
  _atom_site_label
  _atom_site_symmetry_multiplicity
  _atom_site_fract_x
  _atom_site_fract_y
  _atom_site_fract_z
  _atom_site_occupancy
  Co  Co1       1.0  0.48491153120994573  0.27274760603904724  0.8739966750144958  1.0000
  Mo  Mo1       1.0  0.4673126935958863  0.014415031298995018  0.9809228777885437  1.0000
  Nb  Nb1       1.0  0.4601488411426545  0.7302003502845764  0.12162202596664429  1.0000
  Nb  Nb2       1.0  0.9738705754280091  0.124167300760746  0.3103908598423004  1.0000
  Nb  Nb3       1.0  0.963959574699402  0.7642194032669067  0.8800244331359863  1.0000
  Rh  Rh1       1.0  0.9787793755531312  0.5946172475814819  0.39258629083633423  1.0000
  Rh  Rh2       1.0  0.47753468155860906  0.20350569486618042  0.6293502449989319  1.0000
  Sb  Sb1       1.0  0.9730387926101686  0.28684666752815247  0.6917595863342285  1.0000
  Si  Si1       1.0  0.9558413028717042  0.9423442482948303  0.6509532332420349  1.0000
