data_image0
_chemical_formula_structural       Mo5Nb2RhTa
_chemical_formula_sum              "Mo5 Nb2 Rh1 Ta1"
_cell_length_a       4.536712521475084
_cell_length_b       6.940745048078341
_cell_length_c       6.4380879402160645
_cell_angle_alpha    120.06200870754316
_cell_angle_beta     91.15758989990009
_cell_angle_gamma    89.86423236982851

_space_group_name_H-M_alt    "P 1"
_space_group_IT_number       1

loop_
  _space_group_symop_operation_xyz
  'x, y, z'

loop_
  _atom_site_type_symbol
  _atom_site_label
  _atom_site_symmetry_multiplicity
  _atom_site_fract_x
  _atom_site_fract_y
  _atom_site_fract_z
  _atom_site_occupancy
  Mo  Mo1       1.0  0.07086658477783203  0.9323938488960266  0.9369741678237916  1.0000
  Mo  Mo2       1.0  0.5724762082099915  0.44738784432411194  0.4388736784458161  1.0000
  Mo  Mo3       1.0  0.5716352462768555  0.20740415155887604  0.17091803252696994  1.0000
  Mo  Mo4       1.0  0.5640166401863098  0.7457761168479919  0.8707698583602906  1.0000
  Mo  Mo5       1.0  0.07064612209796906  0.15113791823387146  0.34202620387077337  1.0000
  Nb  Nb1       1.0  0.5707962512969971  0.6899333000183105  0.4992417693138123  1.0000
  Nb  Nb2       1.0  0.06898730248212814  0.6667217016220093  0.13140568137168884  1.0000
  Rh  Rh1       1.0  0.5721048712730408  0.41368940472602844  0.647139310836792  1.0000
  Ta  Ta1       1.0  0.07708806544542313  0.4533531069755554  0.9397478103637696  1.0000
