data_image0
_chemical_formula_structural       CoMoNb3Rh2Sb2
_chemical_formula_sum              "Co1 Mo1 Nb3 Rh2 Sb2"
_cell_length_a       3.7901019345437663
_cell_length_b       4.635410152314432
_cell_length_c       7.249881267547607
_cell_angle_alpha    104.53689994127092
_cell_angle_beta     94.04361903303705
_cell_angle_gamma    89.32928480748899

_space_group_name_H-M_alt    "P 1"
_space_group_IT_number       1

loop_
  _space_group_symop_operation_xyz
  'x, y, z'

loop_
  _atom_site_type_symbol
  _atom_site_label
  _atom_site_symmetry_multiplicity
  _atom_site_fract_x
  _atom_site_fract_y
  _atom_site_fract_z
  _atom_site_occupancy
  Co  Co1       1.0  0.004239550791680813  0.7488799095153809  0.6679778099060059  1.0000
  Mo  Mo1       1.0  0.48454567790031433  0.2695338726043701  0.18043512105941772  1.0000
  Nb  Nb1       1.0  0.9839126467704773  0.7617653012275696  0.1843104064464569  1.0000
  Nb  Nb2       1.0  0.48255327343940735  0.8013132214546204  0.1288105696439743  1.0000
  Nb  Nb3       1.0  0.9545798301696777  0.034948207437992096  0.5361221432685852  1.0000
  Rh  Rh1       1.0  0.5550464987754822  0.2788686752319336  0.7498376965522766  1.0000
  Rh  Rh2       1.0  0.4926679730415344  0.2617463171482086  0.25724902749061584  1.0000
  Sb  Sb1       1.0  0.48151686787605286  0.8250909447669983  0.16789831221103668  1.0000
  Sb  Sb2       1.0  0.9969764351844788  0.5864406228065491  0.6773139834403992  1.0000
