data_image0
_chemical_formula_structural       HHg3IPb3Zr2
_chemical_formula_sum              "H1 Hg3 I1 Pb3 Zr2"
_cell_length_a       6.997990335278694
_cell_length_b       8.478909477471483
_cell_length_c       8.7246732711792
_cell_angle_alpha    123.09878123452913
_cell_angle_beta     87.939142016479
_cell_angle_gamma    90.16271076560123

_space_group_name_H-M_alt    "P 1"
_space_group_IT_number       1

loop_
  _space_group_symop_operation_xyz
  'x, y, z'

loop_
  _atom_site_type_symbol
  _atom_site_label
  _atom_site_symmetry_multiplicity
  _atom_site_fract_x
  _atom_site_fract_y
  _atom_site_fract_z
  _atom_site_occupancy
  H   H1        1.0  0.09876964241266252  0.5419370532035828  0.9480698704719543  1.0000
  Hg  Hg1       1.0  0.09628140926361085  0.4134206771850586  0.041940055787563324  1.0000
  Hg  Hg2       1.0  0.5964842438697816  0.9062341451644896  0.9554024338722229  1.0000
  Hg  Hg3       1.0  0.09524428099393846  0.9238135814666747  0.004105509724468044  1.0000
  I   I1        1.0  0.09653450548648836  0.02419014647603035  0.0913206934928894  1.0000
  Pb  Pb1       1.0  0.5963925123214723  0.3366521894931793  0.7834950685501099  1.0000
  Pb  Pb2       1.0  0.597136676311493  0.8313970565795897  0.3483818471431733  1.0000
  Pb  Pb3       1.0  0.5952647328376771  0.9082767963409423  0.0036582436878234404  1.0000
  Zr  Zr1       1.0  0.5974102020263673  0.7762985229492188  0.1822332739830017  1.0000
  Zr  Zr2       1.0  0.0963563770055771  0.9302989244461058  0.017629362642765045  1.0000
