data_image0
_chemical_formula_structural       Hg10
_chemical_formula_sum              "Hg10"
_cell_length_a       7.642693451190565
_cell_length_b       8.03559724740399
_cell_length_c       8.208081245422363
_cell_angle_alpha    121.51359749655336
_cell_angle_beta     95.78244297528708
_cell_angle_gamma    99.72591624111145

_space_group_name_H-M_alt    "P 1"
_space_group_IT_number       1

loop_
  _space_group_symop_operation_xyz
  'x, y, z'

loop_
  _atom_site_type_symbol
  _atom_site_label
  _atom_site_symmetry_multiplicity
  _atom_site_fract_x
  _atom_site_fract_y
  _atom_site_fract_z
  _atom_site_occupancy
  Hg  Hg1       1.0  0.04704463481903076  0.7365358471870422  0.7664059996604919  1.0000
  Hg  Hg2       1.0  0.5150091648101807  0.923228919506073  0.3218492567539215  1.0000
  Hg  Hg3       1.0  0.2864764332771301  0.8538866639137268  0.9326441287994385  1.0000
  Hg  Hg4       1.0  0.532931387424469  0.6869170069694519  0.7599815130233765  1.0000
  Hg  Hg5       1.0  0.27267423272132874  0.7910694479942322  0.9817596077919006  1.0000
  Hg  Hg6       1.0  0.5483700633049011  0.3535861074924469  0.1579059362411499  1.0000
  Hg  Hg7       1.0  0.025008881464600563  0.5947213172912598  0.015486321412026828  1.0000
  Hg  Hg8       1.0  0.8347547650337219  0.12481901794672012  0.7274454236030579  1.0000
  Hg  Hg9       1.0  0.06334201246500015  0.8961778879165649  0.30068925023078913  1.0000
  Hg  Hg10      1.0  0.8190138936042786  0.9312654733657837  0.27646514773368824  1.0000
