data_image0
_chemical_formula_structural       HfHg8Zr
_chemical_formula_sum              "Hf1 Hg8 Zr1"
_cell_length_a       6.775752286879912
_cell_length_b       5.491649538958466
_cell_length_c       8.535447120666504
_cell_angle_alpha    115.18821735933608
_cell_angle_beta     89.66946054964833
_cell_angle_gamma    118.85127375210013

_space_group_name_H-M_alt    "P 1"
_space_group_IT_number       1

loop_
  _space_group_symop_operation_xyz
  'x, y, z'

loop_
  _atom_site_type_symbol
  _atom_site_label
  _atom_site_symmetry_multiplicity
  _atom_site_fract_x
  _atom_site_fract_y
  _atom_site_fract_z
  _atom_site_occupancy
  Hf  Hf1       1.0  0.16703478991985318  0.7118526101112366  0.38315698504447937  1.0000
  Hg  Hg1       1.0  0.0016968359705061046  0.955405592918396  0.5932111144065857  1.0000
  Hg  Hg2       1.0  0.01169766020029783  0.5676308274269104  0.18491891026496887  1.0000
  Hg  Hg3       1.0  0.5100176334381104  0.7313990592956543  0.15696190297603607  1.0000
  Hg  Hg4       1.0  0.5838086605072021  0.6031538248062134  0.8874052166938782  1.0000
  Hg  Hg5       1.0  0.9700314998626708  0.7944113612174988  0.6778879761695862  1.0000
  Hg  Hg6       1.0  0.4117009043693542  0.0272951889783144  0.9833171367645264  1.0000
  Hg  Hg7       1.0  0.1765046119689941  0.36065882444381714  0.10709004849195479  1.0000
  Hg  Hg8       1.0  0.704620063304901  0.5634379386901855  0.9285436868667603  1.0000
  Zr  Zr1       1.0  0.5513099431991577  0.5484951138496399  0.6561364531517028  1.0000
