data_image0
_chemical_formula_structural       Hg3OPb4Zr2
_chemical_formula_sum              "Hg3 O1 Pb4 Zr2"
_cell_length_a       6.0813771357130415
_cell_length_b       7.691679332868244
_cell_length_c       8.320165634155273
_cell_angle_alpha    122.76134458022929
_cell_angle_beta     88.04463978786008
_cell_angle_gamma    91.61104950284556

_space_group_name_H-M_alt    "P 1"
_space_group_IT_number       1

loop_
  _space_group_symop_operation_xyz
  'x, y, z'

loop_
  _atom_site_type_symbol
  _atom_site_label
  _atom_site_symmetry_multiplicity
  _atom_site_fract_x
  _atom_site_fract_y
  _atom_site_fract_z
  _atom_site_occupancy
  Hg  Hg1       1.0  0.5696982145309448  0.9308007955551149  0.5634418725967408  1.0000
  Hg  Hg2       1.0  0.07583947479724884  0.6475553512573242  0.5133788585662842  1.0000
  Hg  Hg3       1.0  0.08912594616413118  0.25256800651550293  0.7852879166603088  1.0000
  O   O1        1.0  0.5775617957115173  0.062487024813890464  0.7096499800682068  1.0000
  Pb  Pb1       1.0  0.7453894019126893  0.26961883902549744  0.8190270066261292  1.0000
  Pb  Pb2       1.0  0.5734391212463379  0.4330474138259888  0.7363608479499817  1.0000
  Pb  Pb3       1.0  0.06661436706781387  0.6504926085472107  0.32995015382766735  1.0000
  Pb  Pb4       1.0  0.07090955227613449  0.6529049873352051  0.9163810014724731  1.0000
  Zr  Zr1       1.0  0.06759007275104523  0.2563692033290863  0.02766904793679717  1.0000
  Zr  Zr2       1.0  0.5808863639831543  0.8303579688072206  0.06247951090335857  1.0000
