data_image0
_chemical_formula_structural       Hg9O
_chemical_formula_sum              "Hg9 O1"
_cell_length_a       5.788249395013762
_cell_length_b       7.28319012786469
_cell_length_c       7.127960681915283
_cell_angle_alpha    129.44287129013657
_cell_angle_beta     87.08601355119488
_cell_angle_gamma    93.38619200470607

_space_group_name_H-M_alt    "P 1"
_space_group_IT_number       1

loop_
  _space_group_symop_operation_xyz
  'x, y, z'

loop_
  _atom_site_type_symbol
  _atom_site_label
  _atom_site_symmetry_multiplicity
  _atom_site_fract_x
  _atom_site_fract_y
  _atom_site_fract_z
  _atom_site_occupancy
  Hg  Hg1       1.0  0.06003956124186516  0.6236032247543335  0.34646204113960266  1.0000
  Hg  Hg2       1.0  0.058577410876750946  0.34449055790901184  0.360967218875885  1.0000
  Hg  Hg3       1.0  0.5646933913230896  0.43039992451667786  0.7178971767425537  1.0000
  Hg  Hg4       1.0  0.5456536412239075  0.2621074914932251  0.7812080979347229  1.0000
  Hg  Hg5       1.0  0.5628618597984314  0.9844635725021362  0.0017511722398921303  1.0000
  Hg  Hg6       1.0  0.0579347163438797  0.9401137828826904  0.5289675593376161  1.0000
  Hg  Hg7       1.0  0.058299001306295395  0.9069471955299377  0.4317002594470978  1.0000
  Hg  Hg8       1.0  0.5515759587287903  0.26372000575065613  0.8269498348236084  1.0000
  Hg  Hg9       1.0  0.5662853717803955  0.18189561367034912  0.3504648804664612  1.0000
  O   O1        1.0  0.5506536364555359  0.9042469263076782  0.7251672148704529  1.0000
