data_image0
_chemical_formula_structural       AsMg2Sr3Ta3Tl3
_chemical_formula_sum              "As1 Mg2 Sr3 Ta3 Tl3"
_cell_length_a       4.448481853860908
_cell_length_b       9.48693322276405
_cell_length_c       9.44764518737793
_cell_angle_alpha    120.13549224183909
_cell_angle_beta     90.0208345806569
_cell_angle_gamma    90.14197023631506

_space_group_name_H-M_alt    "P 1"
_space_group_IT_number       1

loop_
  _space_group_symop_operation_xyz
  'x, y, z'

loop_
  _atom_site_type_symbol
  _atom_site_label
  _atom_site_symmetry_multiplicity
  _atom_site_fract_x
  _atom_site_fract_y
  _atom_site_fract_z
  _atom_site_occupancy
  As  As1       1.0  0.628342866897583  0.7653151154518127  0.06159903481602669  1.0000
  Mg  Mg1       1.0  0.13097725808620453  0.4581485688686371  0.4374496042728424  1.0000
  Mg  Mg2       1.0  0.630445659160614  0.615372896194458  0.722978413105011  1.0000
  Sr  Sr1       1.0  0.6300706267356873  0.003053756896406412  0.44658711552619934  1.0000
  Sr  Sr2       1.0  0.6296249628067017  0.14431056380271912  0.07150695472955702  1.0000
  Sr  Sr3       1.0  0.1282629817724228  0.5469976663589478  0.09751108288764954  1.0000
  Ta  Ta1       1.0  0.6317209601402283  0.335854172706604  0.8273383975028992  1.0000
  Ta  Ta2       1.0  0.13371509313583374  0.14067652821540833  0.7896239757537842  1.0000
  Ta  Ta3       1.0  0.13211721181869507  0.8665260672569275  0.051903218030929565  1.0000
  Tl  Tl1       1.0  0.1321425437927246  0.3364945650100708  0.6539541482925415  1.0000
  Tl  Tl2       1.0  0.13374480605125427  0.8632698059082031  0.7622150778770446  1.0000
  Tl  Tl3       1.0  0.6313438415527344  0.5828174948692322  0.36638930439949036  1.0000
