data_image0
_chemical_formula_structural       ClErN2PrTa2Te3TlU
_chemical_formula_sum              "Cl1 Er1 N2 Pr1 Ta2 Te3 Tl1 U1"
_cell_length_a       6.843344572829932
_cell_length_b       6.846309526188449
_cell_length_c       6.8340959548950195
_cell_angle_alpha    96.12085543579607
_cell_angle_beta     95.41885126582494
_cell_angle_gamma    95.52448544331324

_space_group_name_H-M_alt    "P 1"
_space_group_IT_number       1

loop_
  _space_group_symop_operation_xyz
  'x, y, z'

loop_
  _atom_site_type_symbol
  _atom_site_label
  _atom_site_symmetry_multiplicity
  _atom_site_fract_x
  _atom_site_fract_y
  _atom_site_fract_z
  _atom_site_occupancy
  Cl  Cl1       1.0  0.5576496720314026  0.04305325075984001  0.708554208278656  1.0000
  Er  Er1       1.0  0.9240357279777527  0.886232852935791  0.847832202911377  1.0000
  N   N1        1.0  0.929629385471344  0.7524679899215698  0.482946515083313  1.0000
  N   N2        1.0  0.7494089007377625  0.6231123208999634  0.03353210166096687  1.0000
  Pr  Pr1       1.0  0.44991907477378845  0.3107549250125885  0.07473103702068329  1.0000
  Ta  Ta1       1.0  0.7194229960441589  0.8142750859260559  0.27246689796447754  1.0000
  Ta  Ta2       1.0  0.005204826593399048  0.5784346461296082  0.2229204624891281  1.0000
  Te  Te1       1.0  0.07059668004512787  0.32030466198921204  0.784170925617218  1.0000
  Te  Te2       1.0  0.3199067711830139  0.8142808079719543  0.10805509239435196  1.0000
  Te  Te3       1.0  0.8674864768981934  0.1947946399450302  0.24997788667678833  1.0000
  Tl  Tl1       1.0  0.5488457679748535  0.5247856974601746  0.6104416251182556  1.0000
  U   U1        1.0  0.1912967413663864  0.992104172706604  0.47555407881736755  1.0000
