data_image0
_chemical_formula_structural       CrGeMgNbSeSr2Ta3Te2
_chemical_formula_sum              "Cr1 Ge1 Mg1 Nb1 Se1 Sr2 Ta3 Te2"
_cell_length_a       6.693856381290727
_cell_length_b       6.683460927543461
_cell_length_c       6.73865270614624
_cell_angle_alpha    92.17390765393823
_cell_angle_beta     92.16884977410018
_cell_angle_gamma    92.23550320126807

_space_group_name_H-M_alt    "P 1"
_space_group_IT_number       1

loop_
  _space_group_symop_operation_xyz
  'x, y, z'

loop_
  _atom_site_type_symbol
  _atom_site_label
  _atom_site_symmetry_multiplicity
  _atom_site_fract_x
  _atom_site_fract_y
  _atom_site_fract_z
  _atom_site_occupancy
  Cr  Cr1       1.0  0.5064845085144043  0.43451762199401855  0.8923030495643616  1.0000
  Ge  Ge1       1.0  0.954776406288147  0.9698547124862671  0.25997087359428406  1.0000
  Mg  Mg1       1.0  0.4597158432006836  0.009681516326963902  0.9275251626968385  1.0000
  Nb  Nb1       1.0  0.9190323948860168  0.012044843286275864  0.889459490776062  1.0000
  Se  Se1       1.0  0.6902048587799072  0.7312297821044922  0.6712208986282349  1.0000
  Sr  Sr1       1.0  0.19280847907066345  0.7236628532409668  0.5481938123703003  1.0000
  Sr  Sr2       1.0  0.6807952523231506  0.24577105045318604  0.44664278626441956  1.0000
  Ta  Ta1       1.0  0.19373439252376556  0.24569368362426758  0.17660769820213318  1.0000
  Ta  Ta2       1.0  0.687201738357544  0.7309413552284241  0.1900896281003952  1.0000
  Ta  Ta3       1.0  0.9220695495605469  0.4935080409049988  0.9224579930305481  1.0000
  Te  Te1       1.0  0.18949460983276367  0.23412483930587769  0.668734073638916  1.0000
  Te  Te2       1.0  0.287634015083313  0.6449133157730103  0.0886816754937172  1.0000
