data_image0
_chemical_formula_structural       Mg3Sr2Ta3Tl4
_chemical_formula_sum              "Mg3 Sr2 Ta3 Tl4"
_cell_length_a       4.428502538149386
_cell_length_b       9.034919626433698
_cell_length_c       9.059401512145996
_cell_angle_alpha    119.7512583751987
_cell_angle_beta     89.9628246686311
_cell_angle_gamma    90.17275957759304

_space_group_name_H-M_alt    "P 1"
_space_group_IT_number       1

loop_
  _space_group_symop_operation_xyz
  'x, y, z'

loop_
  _atom_site_type_symbol
  _atom_site_label
  _atom_site_symmetry_multiplicity
  _atom_site_fract_x
  _atom_site_fract_y
  _atom_site_fract_z
  _atom_site_occupancy
  Mg  Mg1       1.0  0.4681536555290222  0.40596702694892883  0.5086647272109985  1.0000
  Mg  Mg2       1.0  0.46465402841567993  0.750458300113678  0.8495300412178041  1.0000
  Mg  Mg3       1.0  0.4685860872268677  0.6509194374084473  0.13869525492191315  1.0000
  Sr  Sr1       1.0  0.9668513536453247  0.6902216672897339  0.475616455078125  1.0000
  Sr  Sr2       1.0  0.9662910103797913  0.09424193948507309  0.8616489171981812  1.0000
  Ta  Ta1       1.0  0.9689364433288574  0.18158477544784546  0.519883394241333  1.0000
  Ta  Ta2       1.0  0.9687767028808594  0.5063406229019165  0.7941385507583618  1.0000
  Ta  Ta3       1.0  0.4673543870449066  0.05277939885854721  0.22414259612560272  1.0000
  Tl  Tl1       1.0  0.46764689683914185  0.9872537851333618  0.49498271942138683  1.0000
  Tl  Tl2       1.0  0.46836820244789124  0.35487693548202515  0.8151715397834778  1.0000
  Tl  Tl3       1.0  0.9689893126487732  0.273519366979599  0.2533678710460663  1.0000
  Tl  Tl4       1.0  0.9679319858551025  0.8237906694412231  0.09389686584472656  1.0000
