data_image0
_chemical_formula_structural       ClGa3Nb3
_chemical_formula_sum              "Cl1 Ga3 Nb3"
_cell_length_a       5.476949426236571
_cell_length_b       5.283968126158306
_cell_length_c       6.006020545959473
_cell_angle_alpha    117.01359833741658
_cell_angle_beta     113.21523237641334
_cell_angle_gamma    92.79162179898833

_space_group_name_H-M_alt    "P 1"
_space_group_IT_number       1

loop_
  _space_group_symop_operation_xyz
  'x, y, z'

loop_
  _atom_site_type_symbol
  _atom_site_label
  _atom_site_symmetry_multiplicity
  _atom_site_fract_x
  _atom_site_fract_y
  _atom_site_fract_z
  _atom_site_occupancy
  Cl  Cl1       1.0  0.37147027254104614  0.8065555691719055  0.014006904326379226  1.0000
  Ga  Ga1       1.0  0.7797052264213562  0.009019609540700912  0.5926035046577454  1.0000
  Ga  Ga2       1.0  0.5376696586608887  0.497646301984787  0.09828972816467278  1.0000
  Ga  Ga3       1.0  0.7718556523323059  0.8606034517288208  0.7707341313362122  1.0000
  Nb  Nb1       1.0  0.04394088685512543  0.49954283237457275  0.08816443383693692  1.0000
  Nb  Nb2       1.0  0.5400505661964417  0.5107150673866272  0.5126673579216003  1.0000
  Nb  Nb3       1.0  0.04827795922756195  0.02489972487092018  0.32806408405303955  1.0000
