data_image0
_chemical_formula_structural       Ga4Nb3
_chemical_formula_sum              "Ga4 Nb3"
_cell_length_a       4.778741719096246
_cell_length_b       5.120203238555886
_cell_length_c       6.295075416564941
_cell_angle_alpha    114.09928117821488
_cell_angle_beta     112.43207136927126
_cell_angle_gamma    92.1377370288021

_space_group_name_H-M_alt    "P 1"
_space_group_IT_number       1

loop_
  _space_group_symop_operation_xyz
  'x, y, z'

loop_
  _atom_site_type_symbol
  _atom_site_label
  _atom_site_symmetry_multiplicity
  _atom_site_fract_x
  _atom_site_fract_y
  _atom_site_fract_z
  _atom_site_occupancy
  Ga  Ga1       1.0  0.775084912776947  0.15391217172145844  0.7156288027763367  1.0000
  Ga  Ga2       1.0  0.30483442544937134  0.29410412907600403  0.4612656533718109  1.0000
  Ga  Ga3       1.0  0.4426121115684509  0.2792125344276428  0.6236158609390259  1.0000
  Ga  Ga4       1.0  0.06314773857593536  0.012871806509792805  0.21235507726669312  1.0000
  Nb  Nb1       1.0  0.3120674192905426  0.7708955407142639  0.9686427116394043  1.0000
  Nb  Nb2       1.0  0.7857848405838013  0.5367403626441956  0.3388053476810456  1.0000
  Nb  Nb3       1.0  0.8242865800857544  0.7737975120544434  0.42030453681945806  1.0000
