data_image0
_chemical_formula_structural       Ga3Nb4
_chemical_formula_sum              "Ga3 Nb4"
_cell_length_a       4.673378193435827
_cell_length_b       4.647824230061653
_cell_length_c       5.205572128295898
_cell_angle_alpha    113.78156457116246
_cell_angle_beta     114.93047167751546
_cell_angle_gamma    88.98158678835009

_space_group_name_H-M_alt    "P 1"
_space_group_IT_number       1

loop_
  _space_group_symop_operation_xyz
  'x, y, z'

loop_
  _atom_site_type_symbol
  _atom_site_label
  _atom_site_symmetry_multiplicity
  _atom_site_fract_x
  _atom_site_fract_y
  _atom_site_fract_z
  _atom_site_occupancy
  Ga  Ga1       1.0  0.16000773012638092  0.08119577169418335  0.06358680874109268  1.0000
  Ga  Ga2       1.0  0.6515398621559143  0.2166154980659485  0.9674839377403259  1.0000
  Ga  Ga3       1.0  0.06949320435523987  0.057618655264377594  0.26703590154647827  1.0000
  Nb  Nb1       1.0  0.4332071840763092  0.7135335206985474  0.7740030884742737  1.0000
  Nb  Nb2       1.0  0.9100546836853027  0.5705168843269348  0.9667627811431885  1.0000
  Nb  Nb3       1.0  0.9256734251976013  0.212166428565979  0.7730856537818909  1.0000
  Nb  Nb4       1.0  0.41105762124061584  0.5713579058647156  0.6702517867088318  1.0000
