data_image0
_chemical_formula_structural       Cd2Ge4Pd3
_chemical_formula_sum              "Cd2 Ge4 Pd3"
_cell_length_a       3.985287254998995
_cell_length_b       5.851232166931711
_cell_length_c       7.304162502288818
_cell_angle_alpha    102.57986434865087
_cell_angle_beta     90.06943604050873
_cell_angle_gamma    110.11480879814064

_space_group_name_H-M_alt    "P 1"
_space_group_IT_number       1

loop_
  _space_group_symop_operation_xyz
  'x, y, z'

loop_
  _atom_site_type_symbol
  _atom_site_label
  _atom_site_symmetry_multiplicity
  _atom_site_fract_x
  _atom_site_fract_y
  _atom_site_fract_z
  _atom_site_occupancy
  Cd  Cd1       1.0  0.2409772425889969  0.0656948983669281  0.38404250144958496  1.0000
  Cd  Cd2       1.0  0.5041370987892151  0.6043376922607422  0.6252861022949219  1.0000
  Ge  Ge1       1.0  0.8151959776878357  0.210199236869812  0.6964225172996521  1.0000
  Ge  Ge2       1.0  0.37102213501930237  0.32681071758270264  0.9590919017791748  1.0000
  Ge  Ge3       1.0  0.06445789337158203  0.7225269079208374  0.01332241296768187  1.0000
  Ge  Ge4       1.0  0.9339472055435181  0.4634011387825012  0.31908941268920893  1.0000
  Pd  Pd1       1.0  0.16335536539554596  0.932886004447937  0.7430220246315002  1.0000
  Pd  Pd2       1.0  0.7474605441093445  0.08318986743688583  0.04421170428395271  1.0000
  Pd  Pd3       1.0  0.5389246344566345  0.6650259494781494  0.22927537560462952  1.0000
