data_image0
_chemical_formula_structural       CdGe2MoPd3TeY
_chemical_formula_sum              "Cd1 Ge2 Mo1 Pd3 Te1 Y1"
_cell_length_a       5.814710829696069
_cell_length_b       5.792409212202168
_cell_length_c       5.745113849639893
_cell_angle_alpha    98.78878512294021
_cell_angle_beta     98.792853910146
_cell_angle_gamma    98.53566600283071

_space_group_name_H-M_alt    "P 1"
_space_group_IT_number       1

loop_
  _space_group_symop_operation_xyz
  'x, y, z'

loop_
  _atom_site_type_symbol
  _atom_site_label
  _atom_site_symmetry_multiplicity
  _atom_site_fract_x
  _atom_site_fract_y
  _atom_site_fract_z
  _atom_site_occupancy
  Cd  Cd1       1.0  0.8430666923522949  0.8411167860031128  0.06298852711915974  1.0000
  Ge  Ge1       1.0  0.18087095022201538  0.22268402576446533  0.4460761547088623  1.0000
  Ge  Ge2       1.0  0.8638538122177124  0.3566150665283203  0.9457051753997803  1.0000
  Mo  Mo1       1.0  0.021330324932932854  0.5861954092979431  0.6333115100860596  1.0000
  Pd  Pd1       1.0  0.4568485617637634  0.45528173446655273  0.8232039213180542  1.0000
  Pd  Pd2       1.0  0.2124786078929901  0.5821248292922974  0.21527157723903656  1.0000
  Pd  Pd3       1.0  0.645565927028656  0.4535509943962097  0.32056203484535223  1.0000
  Te  Te1       1.0  0.3395298719406128  0.9394641518592834  0.9534959197044373  1.0000
  Y   Y1        1.0  0.6154384016990662  0.9871371984481812  0.530989944934845  1.0000
