data_image0
_chemical_formula_structural       Cd2Ge4Pd3
_chemical_formula_sum              "Cd2 Ge4 Pd3"
_cell_length_a       4.24747249588443
_cell_length_b       5.654601423907896
_cell_length_c       7.467441558837891
_cell_angle_alpha    108.5167673694812
_cell_angle_beta     90.0180023914885
_cell_angle_gamma    111.30896373664132

_space_group_name_H-M_alt    "P 1"
_space_group_IT_number       1

loop_
  _space_group_symop_operation_xyz
  'x, y, z'

loop_
  _atom_site_type_symbol
  _atom_site_label
  _atom_site_symmetry_multiplicity
  _atom_site_fract_x
  _atom_site_fract_y
  _atom_site_fract_z
  _atom_site_occupancy
  Cd  Cd1       1.0  0.48609569668769836  0.7301151752471924  0.5898279547691345  1.0000
  Cd  Cd2       1.0  0.04512655362486839  0.8509801626205444  0.9381191730499268  1.0000
  Ge  Ge1       1.0  0.33135828375816345  0.3965599238872528  0.8645168542861938  1.0000
  Ge  Ge2       1.0  0.929749608039856  0.6393322944641113  0.27199655771255493  1.0000
  Ge  Ge3       1.0  0.7859160900115967  0.30419278144836426  0.6388135552406311  1.0000
  Ge  Ge4       1.0  0.6393624544143677  0.029294895008206367  0.25370362401008606  1.0000
  Pd  Pd1       1.0  0.2994197905063629  0.3661271333694458  0.22526627779006958  1.0000
  Pd  Pd2       1.0  0.731899619102478  0.22826066613197327  0.963082492351532  1.0000
  Pd  Pd3       1.0  0.16895665228366852  0.08471748977899551  0.500466525554657  1.0000
