data_image0
_chemical_formula_structural       Cd2GdGe3Pd2Te
_chemical_formula_sum              "Cd2 Gd1 Ge3 Pd2 Te1"
_cell_length_a       6.047296483885092
_cell_length_b       6.023716616608032
_cell_length_c       6.495936393737793
_cell_angle_alpha    90.28660029907141
_cell_angle_beta     90.09077284618895
_cell_angle_gamma    120.05887434276114

_space_group_name_H-M_alt    "P 1"
_space_group_IT_number       1

loop_
  _space_group_symop_operation_xyz
  'x, y, z'

loop_
  _atom_site_type_symbol
  _atom_site_label
  _atom_site_symmetry_multiplicity
  _atom_site_fract_x
  _atom_site_fract_y
  _atom_site_fract_z
  _atom_site_occupancy
  Cd  Cd1       1.0  0.7047250866889954  0.5805539488792419  0.6677291393280029  1.0000
  Cd  Cd2       1.0  0.1308428794145584  0.5064985156059265  0.669780433177948  1.0000
  Gd  Gd1       1.0  0.3690333664417267  0.9145190715789795  0.3091912567615509  1.0000
  Ge  Ge1       1.0  0.7137966156005859  0.056897424161434174  0.665138304233551  1.0000
  Ge  Ge2       1.0  0.08058766275644302  0.28214460611343384  0.22763973474502566  1.0000
  Ge  Ge3       1.0  0.34094616770744324  0.8983727693557739  0.8943421244621277  1.0000
  Pd  Pd1       1.0  0.14501072466373444  0.09002042561769485  0.6655506491661072  1.0000
  Pd  Pd2       1.0  0.7240505814552307  0.2668994665145874  0.9847065210342406  1.0000
  Te  Te1       1.0  0.7209330797195435  0.6170566082000732  0.22505597770214078  1.0000
