data_image0
_chemical_formula_structural       BBaGaInIrSV
_chemical_formula_sum              "B1 Ba1 Ga1 In1 Ir1 S1 V1"
_cell_length_a       3.6684589030339527
_cell_length_b       4.168113998332937
_cell_length_c       7.852860927581787
_cell_angle_alpha    89.67326058620614
_cell_angle_beta     94.7104209336353
_cell_angle_gamma    92.16189318668681

_space_group_name_H-M_alt    "P 1"
_space_group_IT_number       1

loop_
  _space_group_symop_operation_xyz
  'x, y, z'

loop_
  _atom_site_type_symbol
  _atom_site_label
  _atom_site_symmetry_multiplicity
  _atom_site_fract_x
  _atom_site_fract_y
  _atom_site_fract_z
  _atom_site_occupancy
  B   B1        1.0  0.4174793064594269  0.007156569976359606  0.636932611465454  1.0000
  Ba  Ba1       1.0  0.3959062695503235  0.28109875321388245  0.8939725756645202  1.0000
  Ga  Ga1       1.0  0.9079359173774719  0.2781820595264435  0.13981278240680695  1.0000
  In  In1       1.0  0.9117278456687927  0.7753152847290039  0.6118910908699035  1.0000
  Ir  Ir1       1.0  0.4055401384830475  0.2816413938999176  0.8915986418724059  1.0000
  S   S1        1.0  0.7407723069190979  0.5128738880157471  0.3434096276760101  1.0000
  V   V1        1.0  0.39743077754974365  0.7793890237808228  0.89120614528656  1.0000
