data_image0
_chemical_formula_structural       BrCoF2In3
_chemical_formula_sum              "Br1 Co1 F2 In3"
_cell_length_a       3.772381016905201
_cell_length_b       4.926440038203788
_cell_length_c       6.6643218994140625
_cell_angle_alpha    89.70406873577986
_cell_angle_beta     88.09816345841583
_cell_angle_gamma    95.18426229007017

_space_group_name_H-M_alt    "P 1"
_space_group_IT_number       1

loop_
  _space_group_symop_operation_xyz
  'x, y, z'

loop_
  _atom_site_type_symbol
  _atom_site_label
  _atom_site_symmetry_multiplicity
  _atom_site_fract_x
  _atom_site_fract_y
  _atom_site_fract_z
  _atom_site_occupancy
  Br  Br1       1.0  0.8761300444602966  0.0623786710202694  0.9636634588241577  1.0000
  Co  Co1       1.0  0.8830572366714478  0.05333023890852929  0.4606834650039673  1.0000
  F   F1        1.0  0.38760557770729065  0.873680353164673  0.29441988468170166  1.0000
  F   F2        1.0  0.8907152414321899  0.3934187889099121  0.548003613948822  1.0000
  In  In1       1.0  0.8844732642173767  0.5570547580718994  0.46690425276756287  1.0000
  In  In2       1.0  0.3793281316757202  0.5675510168075562  0.04374207183718681  1.0000
  In  In3       1.0  0.3944460153579712  0.19898052513599396  0.5363492369651794  1.0000
