data_image0
_chemical_formula_structural       BGaGdIn2SV
_chemical_formula_sum              "B1 Ga1 Gd1 In2 S1 V1"
_cell_length_a       4.100798884414339
_cell_length_b       4.629077450295399
_cell_length_c       8.027756690979004
_cell_angle_alpha    90.47294900261167
_cell_angle_beta     90.42409243705475
_cell_angle_gamma    112.54143694175899

_space_group_name_H-M_alt    "P 1"
_space_group_IT_number       1

loop_
  _space_group_symop_operation_xyz
  'x, y, z'

loop_
  _atom_site_type_symbol
  _atom_site_label
  _atom_site_symmetry_multiplicity
  _atom_site_fract_x
  _atom_site_fract_y
  _atom_site_fract_z
  _atom_site_occupancy
  B   B1        1.0  0.3606986403465271  0.06135778874158859  0.1366308480501175  1.0000
  Ga  Ga1       1.0  0.8419269919395447  0.5621362328529358  0.5483946800231934  1.0000
  Gd  Gd1       1.0  0.350527822971344  0.06075616180896759  0.2677585780620575  1.0000
  In  In1       1.0  0.15391221642494202  0.9010613560676575  0.06057864800095558  1.0000
  In  In2       1.0  0.8370497226715088  0.5615764260292053  0.3971622586250305  1.0000
  S   S1        1.0  0.17964787781238556  0.39368823170661926  0.762580156326294  1.0000
  V   V1        1.0  0.8199824690818787  0.5649507641792297  0.12505552172660828  1.0000
