data_image0
_chemical_formula_structural       In3Sr3
_chemical_formula_sum              "In3 Sr3"
_cell_length_a       5.080383724494934
_cell_length_b       6.634317264260644
_cell_length_c       7.471989631652832
_cell_angle_alpha    73.52199116402726
_cell_angle_beta     70.16201771742737
_cell_angle_gamma    67.3637717384771

_space_group_name_H-M_alt    "P 1"
_space_group_IT_number       1

loop_
  _space_group_symop_operation_xyz
  'x, y, z'

loop_
  _atom_site_type_symbol
  _atom_site_label
  _atom_site_symmetry_multiplicity
  _atom_site_fract_x
  _atom_site_fract_y
  _atom_site_fract_z
  _atom_site_occupancy
  In  In1       1.0  0.5204498767852783  0.11785531044006348  0.9713859558105469  1.0000
  In  In2       1.0  0.8023298382759094  0.9294489622116089  0.593575656414032  1.0000
  In  In3       1.0  0.484666645526886  0.7933165431022644  0.38553196191787714  1.0000
  Sr  Sr1       1.0  0.7968944311141968  0.3114488124847412  0.20625241100788114  1.0000
  Sr  Sr2       1.0  0.06948280334472656  0.36844849586486816  0.6196457147598267  1.0000
  Sr  Sr3       1.0  0.22686363756656647  0.7493907809257507  0.940062940120697  1.0000
