data_image0
_chemical_formula_structural       In4Sr2
_chemical_formula_sum              "In4 Sr2"
_cell_length_a       5.135069038758338
_cell_length_b       5.15712061931441
_cell_length_c       8.23999309539795
_cell_angle_alpha    89.88638636934222
_cell_angle_beta     89.97179562117617
_cell_angle_gamma    119.57399132942737

_space_group_name_H-M_alt    "P 1"
_space_group_IT_number       1

loop_
  _space_group_symop_operation_xyz
  'x, y, z'

loop_
  _atom_site_type_symbol
  _atom_site_label
  _atom_site_symmetry_multiplicity
  _atom_site_fract_x
  _atom_site_fract_y
  _atom_site_fract_z
  _atom_site_occupancy
  In  In1       1.0  0.17916734516620636  0.5085744261741638  0.758548617362976  1.0000
  In  In2       1.0  0.8463325500488281  0.8383203744888306  0.2590024173259735  1.0000
  In  In3       1.0  0.17855951189994812  0.5091466307640076  0.2588023245334625  1.0000
  In  In4       1.0  0.8476794362068176  0.8378481864929199  0.7575777769088745  1.0000
  Sr  Sr1       1.0  0.5137863159179688  0.17753571271896362  0.007703573442995548  1.0000
  Sr  Sr2       1.0  0.5178872346878052  0.17456477880477905  0.5091515779495239  1.0000
