data_image0
_chemical_formula_structural       GeNPrSrTeY
_chemical_formula_sum              "Ge1 N1 Pr1 Sr1 Te1 Y1"
_cell_length_a       5.367847036387868
_cell_length_b       5.353148433599044
_cell_length_c       5.3414812088012695
_cell_angle_alpha    90.02164006978965
_cell_angle_beta     90.04918638113007
_cell_angle_gamma    89.99083324228465

_space_group_name_H-M_alt    "P 1"
_space_group_IT_number       1

loop_
  _space_group_symop_operation_xyz
  'x, y, z'

loop_
  _atom_site_type_symbol
  _atom_site_label
  _atom_site_symmetry_multiplicity
  _atom_site_fract_x
  _atom_site_fract_y
  _atom_site_fract_z
  _atom_site_occupancy
  Ge  Ge1       1.0  0.3172788619995117  0.708247184753418  0.3055275082588196  1.0000
  N   N1        1.0  0.8154405355453491  0.20432323217391968  0.30728939175605774  1.0000
  Pr  Pr1       1.0  0.3132815361022949  0.20614466071128845  0.30526360869407654  1.0000
  Sr  Sr1       1.0  0.8149902820587158  0.20725463330745697  0.8038461804389954  1.0000
  Te  Te1       1.0  0.31583869457244873  0.708258330821991  0.8070006966590881  1.0000
  Y   Y1        1.0  0.8147537708282471  0.7075896859169006  0.3040447533130646  1.0000
