data_image0
_chemical_formula_structural       H3LaRhS5U
_chemical_formula_sum              "H3 La1 Rh1 S5 U1"
_cell_length_a       5.399121455042597
_cell_length_b       5.834311733241415
_cell_length_c       5.816219329833984
_cell_angle_alpha    114.99034991459797
_cell_angle_beta     96.72312672495134
_cell_angle_gamma    87.19582421821536

_space_group_name_H-M_alt    "P 1"
_space_group_IT_number       1

loop_
  _space_group_symop_operation_xyz
  'x, y, z'

loop_
  _atom_site_type_symbol
  _atom_site_label
  _atom_site_symmetry_multiplicity
  _atom_site_fract_x
  _atom_site_fract_y
  _atom_site_fract_z
  _atom_site_occupancy
  H   H1        1.0  0.07393597811460495  0.387519508600235  0.540424644947052  1.0000
  H   H2        1.0  0.7602871656417847  0.9349420070648193  0.3282366693019867  1.0000
  H   H3        1.0  0.08246777951717377  0.6123179793357849  0.7863270640373229  1.0000
  La  La1       1.0  0.8049532175064087  0.27673521637916565  0.8309144973754882  1.0000
  Rh  Rh1       1.0  0.7327007055282593  0.40394118428230286  0.42707437276840204  1.0000
  S   S1        1.0  0.986190676689148  0.5880588889122009  0.5677207112312317  1.0000
  S   S2        1.0  0.06408683955669403  0.14422832429409027  0.3043070435523987  1.0000
  S   S3        1.0  0.5822035074234009  0.9134349822998047  0.7437105178833008  1.0000
  S   S4        1.0  0.47756311297416687  0.11431741714477539  0.27516791224479675  1.0000
  S   S5        1.0  0.8181140422821045  0.8930602073669434  0.23623509705066678  1.0000
  U   U1        1.0  0.4817070960998535  0.6196582317352295  0.0711386427283287  1.0000
