data_image0
_chemical_formula_structural       H3INi2S5
_chemical_formula_sum              "H3 I1 Ni2 S5"
_cell_length_a       5.076019726634686
_cell_length_b       6.043919705454972
_cell_length_c       6.459251403808594
_cell_angle_alpha    104.5153717317036
_cell_angle_beta     105.87743201224185
_cell_angle_gamma    92.71328126871065

_space_group_name_H-M_alt    "P 1"
_space_group_IT_number       1

loop_
  _space_group_symop_operation_xyz
  'x, y, z'

loop_
  _atom_site_type_symbol
  _atom_site_label
  _atom_site_symmetry_multiplicity
  _atom_site_fract_x
  _atom_site_fract_y
  _atom_site_fract_z
  _atom_site_occupancy
  H   H1        1.0  0.30807775259017944  0.7108871340751648  0.8367524147033691  1.0000
  H   H2        1.0  0.7882813215255737  0.8714720606803894  0.6227840781211853  1.0000
  H   H3        1.0  0.8673802614212036  0.23612135648727417  0.03131807968020439  1.0000
  I   I1        1.0  0.712504506111145  0.3398056626319885  0.3736865222454071  1.0000
  Ni  Ni1       1.0  0.19171690940856934  0.5039358139038086  0.13054797053337097  1.0000
  Ni  Ni2       1.0  0.9230683445930481  0.07385627925395966  0.2856472134590149  1.0000
  S   S1        1.0  0.7354095578193665  0.7604668140411377  0.6732631325721741  1.0000
  S   S2        1.0  0.47201570868492126  0.0027132155373692513  0.20008155703544617  1.0000
  S   S3        1.0  0.2098139375448227  0.8247842788696289  0.22024743258953094  1.0000
  S   S4        1.0  0.6790690422058105  0.8202254772186279  0.6150333285331726  1.0000
  S   S5        1.0  0.1856466382741928  0.3344078063964844  0.6082133054733276  1.0000
