data_image0
_chemical_formula_structural       H4NNiS5
_chemical_formula_sum              "H4 N1 Ni1 S5"
_cell_length_a       4.906349533903697
_cell_length_b       6.174357671214928
_cell_length_c       6.399411678314209
_cell_angle_alpha    69.83838708433838
_cell_angle_beta     66.89284492259236
_cell_angle_gamma    66.89562802618306

_space_group_name_H-M_alt    "P 1"
_space_group_IT_number       1

loop_
  _space_group_symop_operation_xyz
  'x, y, z'

loop_
  _atom_site_type_symbol
  _atom_site_label
  _atom_site_symmetry_multiplicity
  _atom_site_fract_x
  _atom_site_fract_y
  _atom_site_fract_z
  _atom_site_occupancy
  H   H1        1.0  0.02889545075595379  0.8116704821586609  0.6568131446838379  1.0000
  H   H2        1.0  0.9152447581291199  0.646442174911499  0.1746562421321869  1.0000
  H   H3        1.0  0.4188169836997986  0.07570924609899521  0.8435475230216981  1.0000
  H   H4        1.0  0.9891059994697571  0.3945276737213135  0.12274213135242464  1.0000
  N   N1        1.0  0.2018168717622757  0.9475402235984802  0.5504055619239807  1.0000
  Ni  Ni1       1.0  0.20494996011257172  0.49101200699806213  0.9278282523155214  1.0000
  S   S1        1.0  0.22717392444610596  0.9994906783103943  0.9147905707359315  1.0000
  S   S2        1.0  0.2271369993686676  0.9961669445037842  0.18968670070171356  1.0000
  S   S3        1.0  0.7471250295639038  0.7176752090454102  0.3104060888290405  1.0000
  S   S4        1.0  0.23313599824905396  0.25136879086494446  0.764507532119751  1.0000
  S   S5        1.0  0.7405540347099304  0.4892623722553253  0.8349502682685853  1.0000
