data_image0
_chemical_formula_structural       C2FeH4NS3
_chemical_formula_sum              "C2 Fe1 H4 N1 S3"
_cell_length_a       4.950737256254906
_cell_length_b       5.226432543383645
_cell_length_c       5.510540008544922
_cell_angle_alpha    104.20455433747178
_cell_angle_beta     100.88802234724061
_cell_angle_gamma    99.19139447799607

_space_group_name_H-M_alt    "P 1"
_space_group_IT_number       1

loop_
  _space_group_symop_operation_xyz
  'x, y, z'

loop_
  _atom_site_type_symbol
  _atom_site_label
  _atom_site_symmetry_multiplicity
  _atom_site_fract_x
  _atom_site_fract_y
  _atom_site_fract_z
  _atom_site_occupancy
  C   C1        1.0  0.7313138842582703  0.4544031322002411  0.6414216160774231  1.0000
  C   C2        1.0  0.7082369923591614  0.21316292881965637  0.9651764035224915  1.0000
  Fe  Fe1       1.0  0.40926727652549744  0.10458142310380936  0.8183316588401794  1.0000
  H   H1        1.0  0.14405502378940582  0.8625269532203674  0.011526071466505527  1.0000
  H   H2        1.0  0.6990436315536499  0.15255622565746307  0.26188501715660095  1.0000
  H   H3        1.0  0.6511680483818054  0.7366458177566528  0.33999136090278625  1.0000
  H   H4        1.0  0.9874870181083679  0.4761584997177124  0.8862407207489014  1.0000
  N   N1        1.0  0.4549434185028076  0.4131280779838562  0.890282154083252  1.0000
  S   S1        1.0  0.3464312255382538  0.7516689300537109  0.4025630056858063  1.0000
  S   S2        1.0  0.4545153081417084  0.5850552320480347  0.15568454563617706  1.0000
  S   S3        1.0  0.03249804675579071  0.7675541043281555  0.1401928514242172  1.0000
