data_image0
_chemical_formula_structural       H3NNiS5U
_chemical_formula_sum              "H3 N1 Ni1 S5 U1"
_cell_length_a       4.960981250848152
_cell_length_b       6.266340722591778
_cell_length_c       6.049931526184082
_cell_angle_alpha    70.09446960070586
_cell_angle_beta     69.37663557405901
_cell_angle_gamma    72.24689806165779

_space_group_name_H-M_alt    "P 1"
_space_group_IT_number       1

loop_
  _space_group_symop_operation_xyz
  'x, y, z'

loop_
  _atom_site_type_symbol
  _atom_site_label
  _atom_site_symmetry_multiplicity
  _atom_site_fract_x
  _atom_site_fract_y
  _atom_site_fract_z
  _atom_site_occupancy
  H   H1        1.0  0.2776202857494354  0.7471578121185303  0.6134917736053467  1.0000
  H   H2        1.0  0.11204566806554794  0.3716070055961609  0.4373873770236969  1.0000
  H   H3        1.0  0.6100330948829651  0.04040856286883354  0.027007119730114937  1.0000
  N   N1        1.0  0.6425994634628296  0.9686790108680725  0.1902860403060913  1.0000
  Ni  Ni1       1.0  0.2385784536600113  0.4078468978404999  0.7040852308273315  1.0000
  S   S1        1.0  0.031213225796818733  0.9478811025619507  0.7653570771217346  1.0000
  S   S2        1.0  0.06366435438394547  0.7953975200653076  0.3481508195400238  1.0000
  S   S3        1.0  0.024058116599917412  0.29030001163482666  0.31210026144981384  1.0000
  S   S4        1.0  0.6150445342063904  0.6183043122291565  0.03126868978142738  1.0000
  S   S5        1.0  0.5692455172538757  0.2843446135520935  0.513157308101654  1.0000
  U   U1        1.0  0.6438150405883789  0.36577868461608887  0.11737291514873505  1.0000
