data_image0
_chemical_formula_structural       FeH5NS4
_chemical_formula_sum              "Fe1 H5 N1 S4"
_cell_length_a       4.863713814227685
_cell_length_b       5.34282259658743
_cell_length_c       5.950967788696289
_cell_angle_alpha    107.75963977487079
_cell_angle_beta     108.80493963245695
_cell_angle_gamma    90.3741111008089

_space_group_name_H-M_alt    "P 1"
_space_group_IT_number       1

loop_
  _space_group_symop_operation_xyz
  'x, y, z'

loop_
  _atom_site_type_symbol
  _atom_site_label
  _atom_site_symmetry_multiplicity
  _atom_site_fract_x
  _atom_site_fract_y
  _atom_site_fract_z
  _atom_site_occupancy
  Fe  Fe1       1.0  0.026156116276979446  0.20079809427261353  0.21701426804065704  1.0000
  H   H1        1.0  0.7626511454582214  0.7860910892486572  0.04944094270467758  1.0000
  H   H2        1.0  0.47819843888282776  0.48673078417778015  0.875052809715271  1.0000
  H   H3        1.0  0.2535293698310852  0.8123863339424133  0.6148025393486023  1.0000
  H   H4        1.0  0.9417906403541565  0.8635440468788147  0.6157324314117432  1.0000
  H   H5        1.0  0.2216707020998001  0.6324748396873474  0.3598301410675049  1.0000
  N   N1        1.0  0.9871445298194885  0.2094259411096573  0.73404860496521  1.0000
  S   S1        1.0  0.4884047210216522  0.2872362434864044  0.5544697046279907  1.0000
  S   S2        1.0  0.4788587987422943  0.5246779918670654  0.7568177580833435  1.0000
  S   S3        1.0  0.5918480157852173  0.7207937240600586  0.6158290505409241  1.0000
  S   S4        1.0  0.9894510507583618  0.32185694575309753  0.48630934953689575  1.0000
