data_image0
_chemical_formula_structural       FeGe2KLiNi3P3YZr
_chemical_formula_sum              "Fe1 Ge2 K1 Li1 Ni3 P3 Y1 Zr1"
_cell_length_a       6.624674749546859
_cell_length_b       6.845643699433298
_cell_length_c       6.6401543617248535
_cell_angle_alpha    63.48197713482752
_cell_angle_beta     61.31757818957581
_cell_angle_gamma    59.910101583873725

_space_group_name_H-M_alt    "P 1"
_space_group_IT_number       1

loop_
  _space_group_symop_operation_xyz
  'x, y, z'

loop_
  _atom_site_type_symbol
  _atom_site_label
  _atom_site_symmetry_multiplicity
  _atom_site_fract_x
  _atom_site_fract_y
  _atom_site_fract_z
  _atom_site_occupancy
  Fe  Fe1       1.0  0.7001078724861145  0.8268154263496399  0.2786649465560913  1.0000
  Ge  Ge1       1.0  0.5787734389305115  0.15332375466823578  0.5686510801315307  1.0000
  Ge  Ge2       1.0  0.710431694984436  0.29547181725502014  0.44776463508605946  1.0000
  K   K1        1.0  0.2341035008430481  0.5999182462692261  0.5716239809989928  1.0000
  Li  Li1       1.0  0.7501282691955566  0.7253736853599548  0.7268688678741455  1.0000
  Ni  Ni1       1.0  0.6804366111755371  0.8844915628433228  0.8930102586746215  1.0000
  Ni  Ni2       1.0  0.9498733282089233  0.5455374717712402  0.20579515397548662  1.0000
  Ni  Ni3       1.0  0.19075368344783783  0.320476770401001  0.5431702733039856  1.0000
  P   P1        1.0  0.8929402828216553  0.46907076239585876  0.4384001493453978  1.0000
  P   P2        1.0  0.7003925442695618  0.896943211555481  0.7202865481376648  1.0000
  P   P3        1.0  0.4517325162887573  0.729017972946167  0.654655396938324  1.0000
  Y   Y1        1.0  0.04792404919862747  0.08173593878746033  0.27580615878105164  1.0000
  Zr  Zr1       1.0  0.47680678963661194  0.7894728183746338  0.4359146058559417  1.0000
