data_image0
_chemical_formula_structural       CoGaGeLiNiO2P2Y4
_chemical_formula_sum              "Co1 Ga1 Ge1 Li1 Ni1 O2 P2 Y4"
_cell_length_a       6.5129340396535
_cell_length_b       6.753062745616879
_cell_length_c       7.4734272956848145
_cell_angle_alpha    63.092523097928435
_cell_angle_beta     63.56800744531198
_cell_angle_gamma    62.48531851856263

_space_group_name_H-M_alt    "P 1"
_space_group_IT_number       1

loop_
  _space_group_symop_operation_xyz
  'x, y, z'

loop_
  _atom_site_type_symbol
  _atom_site_label
  _atom_site_symmetry_multiplicity
  _atom_site_fract_x
  _atom_site_fract_y
  _atom_site_fract_z
  _atom_site_occupancy
  Co  Co1       1.0  0.3162238895893097  0.9509316682815552  0.23513776063919067  1.0000
  Ga  Ga1       1.0  0.15511779487133026  0.564824640750885  0.3494810163974762  1.0000
  Ge  Ge1       1.0  0.8668581247329712  0.8933260440826416  0.7786984443664551  1.0000
  Li  Li1       1.0  0.8130833506584167  0.9310884475708008  0.578272819519043  1.0000
  Ni  Ni1       1.0  0.8295243978500366  0.7325858473777771  0.7638271450996399  1.0000
  O   O1        1.0  0.16505053639411926  0.3396652638912201  0.5735087394714355  1.0000
  O   O2        1.0  0.7690487504005432  0.1051630899310112  0.5261678695678712  1.0000
  P   P1        1.0  0.04695311561226845  0.17099332809448242  0.65179044008255  1.0000
  P   P2        1.0  0.8177567720413208  0.40353894233703613  0.1796414703130722  1.0000
  Y   Y1        1.0  0.37523600459098816  0.7403087615966797  0.10437022894620895  1.0000
  Y   Y2        1.0  0.2573763132095337  0.2222694456577301  0.8755793571472168  1.0000
  Y   Y3        1.0  0.7866332530975342  0.4997020959854126  0.5090993046760559  1.0000
  Y   Y4        1.0  0.6535865068435669  0.4054986536502838  0.3869364261627197  1.0000
