data_image0
_chemical_formula_structural       HfMn6Ni2O3Y
_chemical_formula_sum              "Hf1 Mn6 Ni2 O3 Y1"
_cell_length_a       4.997860596760781
_cell_length_b       5.000021269409186
_cell_length_c       5.654914855957031
_cell_angle_alpha    75.66042810051933
_cell_angle_beta     69.39846405005318
_cell_angle_gamma    64.20845116802712

_space_group_name_H-M_alt    "P 1"
_space_group_IT_number       1

loop_
  _space_group_symop_operation_xyz
  'x, y, z'

loop_
  _atom_site_type_symbol
  _atom_site_label
  _atom_site_symmetry_multiplicity
  _atom_site_fract_x
  _atom_site_fract_y
  _atom_site_fract_z
  _atom_site_occupancy
  Hf  Hf1       1.0  0.5488110184669495  0.5104866027832031  0.22877967357635498  1.0000
  Mn  Mn1       1.0  0.20861469209194183  0.254090279340744  0.6567370295524597  1.0000
  Mn  Mn2       1.0  0.21155956387519836  0.2823759913444519  0.13145814836025238  1.0000
  Mn  Mn3       1.0  0.7147153615951538  0.3421971797943115  0.748622477054596  1.0000
  Mn  Mn4       1.0  0.506036639213562  0.7447160482406616  0.5132613778114319  1.0000
  Mn  Mn5       1.0  0.04372229799628258  0.04075442627072334  0.31754201650619507  1.0000
  Mn  Mn6       1.0  0.7309198379516602  0.1744598150253296  0.46326959133148193  1.0000
  Ni  Ni1       1.0  0.0233154259622097  0.8071253299713135  0.2741949260234833  1.0000
  Ni  Ni2       1.0  0.6935356855392456  0.08992066234350204  0.5807570815086365  1.0000
  O   O1        1.0  0.7003782391548157  0.7293953895568848  0.046683259308338165  1.0000
  O   O2        1.0  0.7190700769424438  0.11736097931861877  0.6688256859779358  1.0000
  O   O3        1.0  0.7030525803565979  0.233168825507164  0.639552652835846  1.0000
  Y   Y1        1.0  0.19897301495075226  0.5161902904510498  0.4234660267829895  1.0000
