data_image0
_chemical_formula_structural       IKNiO3Y5Zn2
_chemical_formula_sum              "I1 K1 Ni1 O3 Y5 Zn2"
_cell_length_a       6.379364948427464
_cell_length_b       6.326371153852787
_cell_length_c       6.641242980957031
_cell_angle_alpha    57.81319115598953
_cell_angle_beta     58.72546770171549
_cell_angle_gamma    59.78458343446545

_space_group_name_H-M_alt    "P 1"
_space_group_IT_number       1

loop_
  _space_group_symop_operation_xyz
  'x, y, z'

loop_
  _atom_site_type_symbol
  _atom_site_label
  _atom_site_symmetry_multiplicity
  _atom_site_fract_x
  _atom_site_fract_y
  _atom_site_fract_z
  _atom_site_occupancy
  I   I1        1.0  0.8408984541893005  0.827358603477478  0.0475127249956131  1.0000
  K   K1        1.0  0.6953144073486328  0.16232247650623322  0.13159218430519104  1.0000
  Ni  Ni1       1.0  0.5995303988456726  0.6664050817489624  0.3614398241043091  1.0000
  O   O1        1.0  0.7801105976104736  0.8954427242279053  0.2832379937171936  1.0000
  O   O2        1.0  0.2278112918138504  0.4742809534072876  0.08720515668392181  1.0000
  O   O3        1.0  0.15464268624782562  0.31650158762931824  0.8283318877220154  1.0000
  Y   Y1        1.0  0.21724271774291992  0.1444603055715561  0.7076553702354431  1.0000
  Y   Y2        1.0  0.7129477262496948  0.1352699100971222  0.7899153232574463  1.0000
  Y   Y3        1.0  0.24906016886234283  0.5132483243942261  0.4820461571216583  1.0000
  Y   Y4        1.0  0.823687732219696  0.13071763515472412  0.01394561119377613  1.0000
  Y   Y5        1.0  0.9223741888999939  0.08346892148256302  0.9544954895973206  1.0000
  Zn  Zn1       1.0  0.2578311264514923  0.4289209246635437  0.6442971229553223  1.0000
  Zn  Zn2       1.0  0.1814885139465332  0.41694068908691406  0.4716307520866394  1.0000
