data_image0
_chemical_formula_structural       Mn5Ni3O2Y3
_chemical_formula_sum              "Mn5 Ni3 O2 Y3"
_cell_length_a       5.721926543767464
_cell_length_b       5.516152073012332
_cell_length_c       6.104594707489014
_cell_angle_alpha    110.020431353098
_cell_angle_beta     96.94167027584047
_cell_angle_gamma    98.37598410955106

_space_group_name_H-M_alt    "P 1"
_space_group_IT_number       1

loop_
  _space_group_symop_operation_xyz
  'x, y, z'

loop_
  _atom_site_type_symbol
  _atom_site_label
  _atom_site_symmetry_multiplicity
  _atom_site_fract_x
  _atom_site_fract_y
  _atom_site_fract_z
  _atom_site_occupancy
  Mn  Mn1       1.0  0.38113564252853394  0.8013583421707153  0.5147082805633545  1.0000
  Mn  Mn2       1.0  0.6511417627334595  0.5250231027603149  0.033813562244176865  1.0000
  Mn  Mn3       1.0  0.6435838937759399  0.6647399067878723  0.9859143495559692  1.0000
  Mn  Mn4       1.0  0.3827710449695587  0.9877721071243285  0.8499314785003662  1.0000
  Mn  Mn5       1.0  0.8942251801490784  0.9663372039794921  0.24681752920150757  1.0000
  Ni  Ni1       1.0  0.8859707117080688  0.9673750400543212  0.5364146828651428  1.0000
  Ni  Ni2       1.0  0.3724907636642456  0.7340400815010071  0.2376985251903534  1.0000
  Ni  Ni3       1.0  0.6541203260421753  0.9948261976242064  0.36303964257240295  1.0000
  O   O1        1.0  0.6576218008995056  0.24574075639247892  0.7002919316291809  1.0000
  O   O2        1.0  0.15647083520889282  0.5425021648406982  0.09417425096035004  1.0000
  Y   Y1        1.0  0.14945125579833984  0.5177081823348999  0.187617227435112  1.0000
  Y   Y2        1.0  0.896885871887207  0.9845916032791137  0.3221871554851532  1.0000
  Y   Y3        1.0  0.39170750975608826  0.2525193989276886  0.4006575345993042  1.0000
