data_image0
_chemical_formula_structural       CoFLiNi2O3PbY3Zr
_chemical_formula_sum              "Co1 F1 Li1 Ni2 O3 Pb1 Y3 Zr1"
_cell_length_a       4.429105270181021
_cell_length_b       6.460595359529938
_cell_length_c       6.25124454498291
_cell_angle_alpha    53.964128549363195
_cell_angle_beta     9.199771747722034
_cell_angle_gamma    49.87485176209987

_space_group_name_H-M_alt    "P 1"
_space_group_IT_number       1

loop_
  _space_group_symop_operation_xyz
  'x, y, z'

loop_
  _atom_site_type_symbol
  _atom_site_label
  _atom_site_symmetry_multiplicity
  _atom_site_fract_x
  _atom_site_fract_y
  _atom_site_fract_z
  _atom_site_occupancy
  Co  Co1       1.0  0.12096675485372523  0.9781639575958252  0.4842853844165803  1.0000
  F   F1        1.0  0.484207838773728  0.6429027915000916  0.5117383599281307  1.0000
  Li  Li1       1.0  0.35006552934646584  0.8797870874404907  0.7248650193214418  1.0000
  Ni  Ni1       1.0  0.7755249142646791  0.8195245265960693  0.39492681622505177  1.0000
  Ni  Ni2       1.0  0.08931753039360066  0.19683058559894562  0.7136995196342467  1.0000
  O   O1        1.0  0.8986672759056089  0.9659034609794617  0.284596085548401  1.0000
  O   O2        1.0  0.025513427332043443  0.6038585305213928  0.12741734087467207  1.0000
  O   O3        1.0  0.7521753311157222  0.5789998173713684  0.4762511253356936  1.0000
  Pb  Pb1       1.0  0.2115538418293  0.18408165872097015  0.07345509529113761  1.0000
  Y   Y1        1.0  0.781502842903137  0.08871838450431824  0.8213391304016114  1.0000
  Y   Y2        1.0  0.5152382254600523  0.18273049592971802  0.6896302103996278  1.0000
  Y   Y3        1.0  0.4099669456481934  0.1522068977355957  0.462464153766632  1.0000
  Zr  Zr1       1.0  0.7587094902992252  0.6598531603813171  0.40471458435058555  1.0000
