data_image0
_chemical_formula_structural       DyILuSb3
_chemical_formula_sum              "Dy1 I1 Lu1 Sb3"
_cell_length_a       5.537115830114993
_cell_length_b       6.266042807672764
_cell_length_c       6.27590799331665
_cell_angle_alpha    120.59307342155867
_cell_angle_beta     93.01977628650775
_cell_angle_gamma    90.51350085388799

_space_group_name_H-M_alt    "P 1"
_space_group_IT_number       1

loop_
  _space_group_symop_operation_xyz
  'x, y, z'

loop_
  _atom_site_type_symbol
  _atom_site_label
  _atom_site_symmetry_multiplicity
  _atom_site_fract_x
  _atom_site_fract_y
  _atom_site_fract_z
  _atom_site_occupancy
  Dy  Dy1       1.0  0.6489173173904419  0.6777371764183044  0.7424829602241516  1.0000
  I   I1        1.0  0.18455204367637634  0.7964608669281006  0.8869460821151733  1.0000
  Lu  Lu1       1.0  0.17653211951255798  0.9380241632461548  0.7949909567832947  1.0000
  Sb  Sb1       1.0  0.17948555946350098  0.9749073386192322  0.9758113622665405  1.0000
  Sb  Sb2       1.0  0.18468759953975677  0.41342881321907043  0.5123794674873352  1.0000
  Sb  Sb3       1.0  0.6878383755683899  0.2179323434829712  0.9370906352996826  1.0000
