data_image0
_chemical_formula_structural       IPtTa2TiV
_chemical_formula_sum              "I1 Pt1 Ta2 Ti1 V1"
_cell_length_a       4.85413091115024
_cell_length_b       4.767778197073388
_cell_length_c       5.3813886642456055
_cell_angle_alpha    91.85525019119409
_cell_angle_beta     91.66990756220625
_cell_angle_gamma    80.99047742032013

_space_group_name_H-M_alt    "P 1"
_space_group_IT_number       1

loop_
  _space_group_symop_operation_xyz
  'x, y, z'

loop_
  _atom_site_type_symbol
  _atom_site_label
  _atom_site_symmetry_multiplicity
  _atom_site_fract_x
  _atom_site_fract_y
  _atom_site_fract_z
  _atom_site_occupancy
  I   I1        1.0  0.7030595541000366  0.16374127566814423  0.2930089235305786  1.0000
  Pt  Pt1       1.0  0.29219314455986023  0.4117441177368164  0.48491957783699036  1.0000
  Ta  Ta1       1.0  0.7091251015663147  0.8954437971115112  0.43648383021354675  1.0000
  Ta  Ta2       1.0  0.7083339691162109  0.6130059361457825  0.9660824537277222  1.0000
  Ti  Ti1       1.0  0.18552473187446594  0.9228980541229248  0.8773403167724609  1.0000
  V   V1        1.0  0.2195480316877365  0.07292229682207108  0.026842892169952393  1.0000
