data_image0
_chemical_formula_structural       Ag4Ta2
_chemical_formula_sum              "Ag4 Ta2"
_cell_length_a       4.188719916129837
_cell_length_b       3.9284006263363924
_cell_length_c       4.0057692527771
_cell_angle_alpha    93.8185313131277
_cell_angle_beta     94.92847877627293
_cell_angle_gamma    89.31935323311247

_space_group_name_H-M_alt    "P 1"
_space_group_IT_number       1

loop_
  _space_group_symop_operation_xyz
  'x, y, z'

loop_
  _atom_site_type_symbol
  _atom_site_label
  _atom_site_symmetry_multiplicity
  _atom_site_fract_x
  _atom_site_fract_y
  _atom_site_fract_z
  _atom_site_occupancy
  Ag  Ag1       1.0  0.22360895574092865  0.5117594003677368  0.802678644657135  1.0000
  Ag  Ag2       1.0  0.22418460249900818  0.947207272052765  0.35386449098587036  1.0000
  Ag  Ag3       1.0  0.8920062184333801  0.18323053419589996  0.12363511323928833  1.0000
  Ag  Ag4       1.0  0.4426184296607971  0.854955017566681  0.5754358768463135  1.0000
  Ta  Ta1       1.0  0.6856376528739929  0.26698699593544006  0.9910438060760498  1.0000
  Ta  Ta2       1.0  0.9347783327102661  0.992474138736725  0.5787982940673828  1.0000
