data_image0
_chemical_formula_structural       Ca2ISbTa2
_chemical_formula_sum              "Ca2 I1 Sb1 Ta2"
_cell_length_a       4.488521969363943
_cell_length_b       5.89855061811355
_cell_length_c       6.5667619705200195
_cell_angle_alpha    125.78568783290697
_cell_angle_beta     91.56156219955919
_cell_angle_gamma    86.40475799708767

_space_group_name_H-M_alt    "P 1"
_space_group_IT_number       1

loop_
  _space_group_symop_operation_xyz
  'x, y, z'

loop_
  _atom_site_type_symbol
  _atom_site_label
  _atom_site_symmetry_multiplicity
  _atom_site_fract_x
  _atom_site_fract_y
  _atom_site_fract_z
  _atom_site_occupancy
  Ca  Ca1       1.0  0.27885735034942627  0.46474647521972656  0.6233148574829102  1.0000
  Ca  Ca2       1.0  0.775987446308136  0.8492699861526489  0.2834388613700867  1.0000
  I   I1        1.0  0.2868400812149048  0.44838783144950867  0.03704118356108669  1.0000
  Sb  Sb1       1.0  0.28594666719436646  0.07811325043439865  0.06496786326169968  1.0000
  Ta  Ta1       1.0  0.8378347158432007  0.4442470073699951  0.4869939088821411  1.0000
  Ta  Ta2       1.0  0.7908544540405273  0.3269585967063904  0.5803179144859314  1.0000
