data_image0
_chemical_formula_structural       Ag6
_chemical_formula_sum              "Ag6"
_cell_length_a       4.301247093971531
_cell_length_b       4.325916761501579
_cell_length_c       7.074695110321045
_cell_angle_alpha    109.79030434702399
_cell_angle_beta     111.5388872989698
_cell_angle_gamma    90.29071323124808

_space_group_name_H-M_alt    "P 1"
_space_group_IT_number       1

loop_
  _space_group_symop_operation_xyz
  'x, y, z'

loop_
  _atom_site_type_symbol
  _atom_site_label
  _atom_site_symmetry_multiplicity
  _atom_site_fract_x
  _atom_site_fract_y
  _atom_site_fract_z
  _atom_site_occupancy
  Ag  Ag1       1.0  0.1927027404308319  0.8079637289047241  0.5050556659698486  1.0000
  Ag  Ag2       1.0  0.6951033473014832  0.7355226278305054  0.9964481592178345  1.0000
  Ag  Ag3       1.0  0.2051270604133606  0.5059338212013245  0.016766607761383057  1.0000
  Ag  Ag4       1.0  0.6959148645401001  0.8113478422164917  0.5525418519973755  1.0000
  Ag  Ag5       1.0  0.7071542143821716  0.23987682163715363  0.35205554962158203  1.0000
  Ag  Ag6       1.0  0.22100746631622314  0.5536105036735535  0.7624939680099487  1.0000
