data_image0
_chemical_formula_structural       Ga4O7Se2
_chemical_formula_sum              "Ga4 O7 Se2"
_cell_length_a       5.1914968893565225
_cell_length_b       6.074514283120505
_cell_length_c       10.56269645690918
_cell_angle_alpha    101.45907870812118
_cell_angle_beta     88.5781787537086
_cell_angle_gamma    116.35981440861242

_space_group_name_H-M_alt    "P 1"
_space_group_IT_number       1

loop_
  _space_group_symop_operation_xyz
  'x, y, z'

loop_
  _atom_site_type_symbol
  _atom_site_label
  _atom_site_symmetry_multiplicity
  _atom_site_fract_x
  _atom_site_fract_y
  _atom_site_fract_z
  _atom_site_occupancy
  Ga  Ga1       1.0  0.9365785717964172  0.1778670698404312  0.5338004231452942  1.0000
  Ga  Ga2       1.0  0.7370428442955017  0.0724622830748558  0.10002720355987549  1.0000
  Ga  Ga3       1.0  0.23733669519424438  0.42714905738830566  0.9843636751174927  1.0000
  Ga  Ga4       1.0  0.06382312625646591  0.656369686126709  0.777022123336792  1.0000
  O   O1        1.0  0.3615870475769043  0.5134830474853516  0.5928305387496948  1.0000
  O   O2        1.0  0.9345226883888245  0.009101123549044132  0.8792477250099182  1.0000
  O   O3        1.0  0.8950286507606506  0.749518632888794  0.33980482816696167  1.0000
  O   O4        1.0  0.23945704102516174  0.07714250683784485  0.2709008455276489  1.0000
  O   O5        1.0  0.522167980670929  0.5015225410461426  0.13747921586036682  1.0000
  O   O6        1.0  0.3435245752334595  0.07911110669374466  0.6192905902862549  1.0000
  O   O7        1.0  0.5013786554336548  0.5122482180595398  0.8522229790687561  1.0000
  Se  Se1       1.0  0.44947001338005066  0.515427827835083  0.34474360942840576  1.0000
  Se  Se2       1.0  0.7494441270828247  0.097474105656147  0.09942159056663513  1.0000
