data_image0
_chemical_formula_structural       Ga4KO5Se3
_chemical_formula_sum              "Ga4 K1 O5 Se3"
_cell_length_a       5.0070843862033385
_cell_length_b       5.9262068233436525
_cell_length_c       9.645967483520508
_cell_angle_alpha    102.6378091234834
_cell_angle_beta     90.32123171532118
_cell_angle_gamma    91.01680011217152

_space_group_name_H-M_alt    "P 1"
_space_group_IT_number       1

loop_
  _space_group_symop_operation_xyz
  'x, y, z'

loop_
  _atom_site_type_symbol
  _atom_site_label
  _atom_site_symmetry_multiplicity
  _atom_site_fract_x
  _atom_site_fract_y
  _atom_site_fract_z
  _atom_site_occupancy
  Ga  Ga1       1.0  0.13428081572055817  0.07392638921737671  0.9013968110084534  1.0000
  Ga  Ga2       1.0  0.4582262337207794  0.05906166881322861  0.3307721018791199  1.0000
  Ga  Ga3       1.0  0.845832109451294  0.5154798626899719  0.21335461735725403  1.0000
  Ga  Ga4       1.0  0.7704275250434875  0.823832094669342  0.8913190960884094  1.0000
  K   K1        1.0  0.8723666667938232  0.338497519493103  0.08826088905334473  1.0000
  O   O1        1.0  0.0328567698597908  0.12175653129816055  0.8525084853172302  1.0000
  O   O2        1.0  0.46028023958206177  0.9327605962753296  0.7859295010566711  1.0000
  O   O3        1.0  0.02486957050859928  0.849339485168457  0.7051683664321899  1.0000
  O   O4        1.0  0.5075454711914062  0.6211713552474976  0.4632590115070343  1.0000
  O   O5        1.0  0.6243653893470764  0.5639759302139282  0.6599127054214478  1.0000
  Se  Se1       1.0  0.267001211643219  0.31515657901763916  0.8782871961593628  1.0000
  Se  Se2       1.0  0.3610050082206726  0.2965691387653351  0.6446767449378967  1.0000
  Se  Se3       1.0  0.7978788614273071  0.8158619999885559  0.5472733378410339  1.0000
