data_image0
_chemical_formula_structural       Ga7O2Se4
_chemical_formula_sum              "Ga7 O2 Se4"
_cell_length_a       4.708282053273079
_cell_length_b       4.994447970546466
_cell_length_c       13.317160606384277
_cell_angle_alpha    90.7009802179031
_cell_angle_beta     80.80766759147222
_cell_angle_gamma    66.7328849436509

_space_group_name_H-M_alt    "P 1"
_space_group_IT_number       1

loop_
  _space_group_symop_operation_xyz
  'x, y, z'

loop_
  _atom_site_type_symbol
  _atom_site_label
  _atom_site_symmetry_multiplicity
  _atom_site_fract_x
  _atom_site_fract_y
  _atom_site_fract_z
  _atom_site_occupancy
  Ga  Ga1       1.0  0.28293609619140625  0.8693897724151611  0.09319471567869186  1.0000
  Ga  Ga2       1.0  0.755156934261322  0.8299984335899353  0.5567814707756042  1.0000
  Ga  Ga3       1.0  0.32224950194358826  0.7638959884643555  0.740392804145813  1.0000
  Ga  Ga4       1.0  0.6563504934310913  0.5159701108932495  0.5001561045646667  1.0000
  Ga  Ga5       1.0  0.7972896099090576  0.26976263523101807  0.0868605524301529  1.0000
  Ga  Ga6       1.0  0.30777543783187866  0.6121049523353577  0.9834544658660888  1.0000
  Ga  Ga7       1.0  0.7821487784385681  0.26930904388427734  0.7565590143203735  1.0000
  O   O1        1.0  0.9566234350204468  0.9093942046165466  0.20489661395549771  1.0000
  O   O2        1.0  0.9031865000724792  0.02372443675994873  0.6150903105735779  1.0000
  Se  Se1       1.0  0.7756912112236023  0.06606551259756088  0.29320865869522095  1.0000
  Se  Se2       1.0  0.5116556286811829  0.6295400857925415  0.07228204607963562  1.0000
  Se  Se3       1.0  0.2525745928287506  0.0728091448545456  0.9266179800033568  1.0000
  Se  Se4       1.0  0.7189599275588989  0.15532007813453674  0.3621889054775238  1.0000
