data_image0
_chemical_formula_structural       FeGa5Se7
_chemical_formula_sum              "Fe1 Ga5 Se7"
_cell_length_a       5.507197696608617
_cell_length_b       7.8502304663879
_cell_length_c       8.957497596740723
_cell_angle_alpha    85.60636258126704
_cell_angle_beta     78.23306161908508
_cell_angle_gamma    75.49112980727006

_space_group_name_H-M_alt    "P 1"
_space_group_IT_number       1

loop_
  _space_group_symop_operation_xyz
  'x, y, z'

loop_
  _atom_site_type_symbol
  _atom_site_label
  _atom_site_symmetry_multiplicity
  _atom_site_fract_x
  _atom_site_fract_y
  _atom_site_fract_z
  _atom_site_occupancy
  Fe  Fe1       1.0  0.32949942350387573  0.2580493688583374  0.5257819890975952  1.0000
  Ga  Ga1       1.0  0.11840934306383134  0.4511177837848663  0.40563729405403137  1.0000
  Ga  Ga2       1.0  0.9297651052474976  0.684030294418335  0.7987108826637268  1.0000
  Ga  Ga3       1.0  0.8102976083755493  0.9049545526504515  0.9979349374771118  1.0000
  Ga  Ga4       1.0  0.6695736050605774  0.6050543785095215  0.5547570586204529  1.0000
  Ga  Ga5       1.0  0.27464020252227783  0.3840643465518951  0.7946274280548096  1.0000
  Se  Se1       1.0  0.2142334282398224  0.01650344207882881  0.0038650515489280224  1.0000
  Se  Se2       1.0  0.28080740571022034  0.23826175928115842  0.7071454524993896  1.0000
  Se  Se3       1.0  0.7549254894256592  0.7309507727622985  0.37904471158981323  1.0000
  Se  Se4       1.0  0.5463342666625977  0.9395903348922728  0.2597329914569855  1.0000
  Se  Se5       1.0  0.8183772563934326  0.811646819114685  0.9930723905563354  1.0000
  Se  Se6       1.0  0.5670874118804932  0.9549527764320372  0.657673180103302  1.0000
  Se  Se7       1.0  0.26769813895225525  0.5642568469047546  0.158473402261734  1.0000
