data_image0
_chemical_formula_structural       Ga4O6Se3
_chemical_formula_sum              "Ga4 O6 Se3"
_cell_length_a       4.737605795477643
_cell_length_b       5.2434074390679655
_cell_length_c       11.193944931030273
_cell_angle_alpha    96.78012653850243
_cell_angle_beta     90.50601479864349
_cell_angle_gamma    114.85021252416892

_space_group_name_H-M_alt    "P 1"
_space_group_IT_number       1

loop_
  _space_group_symop_operation_xyz
  'x, y, z'

loop_
  _atom_site_type_symbol
  _atom_site_label
  _atom_site_symmetry_multiplicity
  _atom_site_fract_x
  _atom_site_fract_y
  _atom_site_fract_z
  _atom_site_occupancy
  Ga  Ga1       1.0  0.016771676018834114  0.060647059231996536  0.8581501841545105  1.0000
  Ga  Ga2       1.0  0.5606558322906494  0.06085827574133872  0.44249776005744934  1.0000
  Ga  Ga3       1.0  0.013985161669552326  0.07437900453805923  0.8318484425544739  1.0000
  Ga  Ga4       1.0  0.36047083139419556  0.09598321467638016  0.9610253572463989  1.0000
  O   O1        1.0  0.3855358362197876  0.3052041828632355  0.5332291722297668  1.0000
  O   O2        1.0  0.2914353609085083  0.43676891922950745  0.19467860460281372  1.0000
  O   O3        1.0  0.9218898415565491  0.5595851540565491  0.7662838697433472  1.0000
  O   O4        1.0  0.6280076503753662  0.7603171467781067  0.8075737357139587  1.0000
  O   O5        1.0  0.9487276673316956  0.5864891409873962  0.9746564030647278  1.0000
  O   O6        1.0  0.5468340516090393  0.04917840287089348  0.6510464549064636  1.0000
  Se  Se1       1.0  0.25362783670425415  0.942286491394043  0.738180935382843  1.0000
  Se  Se2       1.0  0.70716792345047  0.9241870045661926  0.6484675407409668  1.0000
  Se  Se3       1.0  0.8026582598686218  0.37956854701042175  0.985259175300598  1.0000
