data_image0
_chemical_formula_structural       Ga4O6Se3
_chemical_formula_sum              "Ga4 O6 Se3"
_cell_length_a       5.3568947922851144
_cell_length_b       6.457441820840155
_cell_length_c       9.290850639343262
_cell_angle_alpha    81.22936778381457
_cell_angle_beta     74.75937613139499
_cell_angle_gamma    71.65666582339242

_space_group_name_H-M_alt    "P 1"
_space_group_IT_number       1

loop_
  _space_group_symop_operation_xyz
  'x, y, z'

loop_
  _atom_site_type_symbol
  _atom_site_label
  _atom_site_symmetry_multiplicity
  _atom_site_fract_x
  _atom_site_fract_y
  _atom_site_fract_z
  _atom_site_occupancy
  Ga  Ga1       1.0  0.09062191843986511  0.7138744592666626  0.2914064824581146  1.0000
  Ga  Ga2       1.0  0.5662941932678223  0.12876898050308228  0.9313693046569824  1.0000
  Ga  Ga3       1.0  0.13020484149456024  0.7148876190185547  0.2154248207807541  1.0000
  Ga  Ga4       1.0  0.5061032176017761  0.7088801264762878  0.04874690622091293  1.0000
  O   O1        1.0  0.6366589665412903  0.445594847202301  0.4972130358219146  1.0000
  O   O2        1.0  0.832805871963501  0.3893139064311981  0.8651559352874756  1.0000
  O   O3        1.0  0.6361732482910156  0.45187872648239136  0.664638102054596  1.0000
  O   O4        1.0  0.05662394315004349  0.5098994374275208  0.6360434889793396  1.0000
  O   O5        1.0  0.4211355745792389  0.13579978048801422  0.4444618821144104  1.0000
  O   O6        1.0  0.06526722013950348  0.8472305536270142  0.13046371936798096  1.0000
  Se  Se1       1.0  0.6006003618240356  0.8912665247917175  0.1745731085538864  1.0000
  Se  Se2       1.0  0.07649031281471252  0.49918052554130554  0.13968920707702637  1.0000
  Se  Se3       1.0  0.7555562257766724  0.7045897245407104  0.4462275207042694  1.0000
