data_image0
_chemical_formula_structural       Ca4FIO2PV
_chemical_formula_sum              "Ca4 F1 I1 O2 P1 V1"
_cell_length_a       6.982961577811667
_cell_length_b       6.311336607013818
_cell_length_c       6.80208158493042
_cell_angle_alpha    68.7623823302349
_cell_angle_beta     58.62421041711617
_cell_angle_gamma    58.88709846504874

_space_group_name_H-M_alt    "P 1"
_space_group_IT_number       1

loop_
  _space_group_symop_operation_xyz
  'x, y, z'

loop_
  _atom_site_type_symbol
  _atom_site_label
  _atom_site_symmetry_multiplicity
  _atom_site_fract_x
  _atom_site_fract_y
  _atom_site_fract_z
  _atom_site_occupancy
  Ca  Ca1       1.0  0.04788914695382118  0.06230286881327629  0.4750489294528961  1.0000
  Ca  Ca2       1.0  0.008389752358198166  0.3229145407676697  0.4828704595565796  1.0000
  Ca  Ca3       1.0  0.7930124998092651  0.191232830286026  0.43574216961860657  1.0000
  Ca  Ca4       1.0  0.4991212785243988  0.9507259726524353  0.8885607719421387  1.0000
  F   F1        1.0  0.8773335814476013  0.5560258626937866  0.1710432469844818  1.0000
  I   I1        1.0  0.00271266489289701  0.4436456859111786  0.7911459803581238  1.0000
  O   O1        1.0  0.7704603672027588  0.8481706380844116  0.9550792574882507  1.0000
  O   O2        1.0  0.6835526823997498  0.7797079086303711  0.5096393823623657  1.0000
  P   P1        1.0  0.06267616897821426  0.6215708255767822  0.1396363079547882  1.0000
  V   V1        1.0  0.4871903955936432  0.5228105783462524  0.7388121485710144  1.0000
