data_image0
_chemical_formula_structural       Ca2I4O3P
_chemical_formula_sum              "Ca2 I4 O3 P1"
_cell_length_a       6.238703808261792
_cell_length_b       6.452012818017299
_cell_length_c       7.828070640563965
_cell_angle_alpha    68.68453961197716
_cell_angle_beta     68.51517151987949
_cell_angle_gamma    64.59507799411895

_space_group_name_H-M_alt    "P 1"
_space_group_IT_number       1

loop_
  _space_group_symop_operation_xyz
  'x, y, z'

loop_
  _atom_site_type_symbol
  _atom_site_label
  _atom_site_symmetry_multiplicity
  _atom_site_fract_x
  _atom_site_fract_y
  _atom_site_fract_z
  _atom_site_occupancy
  Ca  Ca1       1.0  0.36771291494369507  0.3064645528793335  0.959313929080963  1.0000
  Ca  Ca2       1.0  0.37350979447364807  0.7150509357452393  0.2745245695114136  1.0000
  I   I1        1.0  0.2790132164955139  0.011696103028953075  0.21327134966850278  1.0000
  I   I2        1.0  0.3649146854877472  0.8007980585098267  0.07642883062362671  1.0000
  I   I3        1.0  0.7964587807655334  0.9966019988059998  0.9651198983192443  1.0000
  I   I4        1.0  0.2802043557167053  0.6277893781661987  0.29595720767974854  1.0000
  O   O1        1.0  0.8756981492042542  0.21348874270915985  0.9103318452835082  1.0000
  O   O2        1.0  0.3753017485141754  0.23917561769485474  0.3050698935985565  1.0000
  O   O3        1.0  0.62773597240448  0.15225456655025482  0.8242042064666747  1.0000
  P   P1        1.0  0.7839815020561218  0.01408435683697462  0.17823344469070432  1.0000
