data_image0
_chemical_formula_structural       Ca8O2
_chemical_formula_sum              "Ca8 O2"
_cell_length_a       4.968376430247434
_cell_length_b       4.312784501701704
_cell_length_c       8.460740089416504
_cell_angle_alpha    116.83193775090241
_cell_angle_beta     106.03183132043975
_cell_angle_gamma    64.48981414668977

_space_group_name_H-M_alt    "P 1"
_space_group_IT_number       1

loop_
  _space_group_symop_operation_xyz
  'x, y, z'

loop_
  _atom_site_type_symbol
  _atom_site_label
  _atom_site_symmetry_multiplicity
  _atom_site_fract_x
  _atom_site_fract_y
  _atom_site_fract_z
  _atom_site_occupancy
  Ca  Ca1       1.0  0.9266598224639893  0.5987378358840942  0.28959786891937256  1.0000
  Ca  Ca2       1.0  0.4424007833003998  0.642485499382019  0.8077187538146973  1.0000
  Ca  Ca3       1.0  0.820964515209198  0.9179311394691467  0.7025740742683411  1.0000
  Ca  Ca4       1.0  0.3110285997390747  0.8899868726730347  0.493899941444397  1.0000
  Ca  Ca5       1.0  0.5142039656639099  0.709706723690033  0.5216597318649292  1.0000
  Ca  Ca6       1.0  0.9125282168388367  0.47911497950553894  0.9927144050598145  1.0000
  Ca  Ca7       1.0  0.3121618926525116  0.6652355194091797  0.3442958891391754  1.0000
  Ca  Ca8       1.0  0.8160650134086609  0.5446892380714417  0.8376331329345703  1.0000
  O   O1        1.0  0.7056760191917419  0.09378382563591003  0.11415835469961166  1.0000
  O   O2        1.0  0.2004649043083191  0.25159451365470886  0.7463541626930237  1.0000
