data_image0
_chemical_formula_structural       Ca6MnO3
_chemical_formula_sum              "Ca6 Mn1 O3"
_cell_length_a       3.870901542830452
_cell_length_b       3.564052918810037
_cell_length_c       8.63791561126709
_cell_angle_alpha    115.31105004599662
_cell_angle_beta     106.25110640374919
_cell_angle_gamma    70.6472354030315

_space_group_name_H-M_alt    "P 1"
_space_group_IT_number       1

loop_
  _space_group_symop_operation_xyz
  'x, y, z'

loop_
  _atom_site_type_symbol
  _atom_site_label
  _atom_site_symmetry_multiplicity
  _atom_site_fract_x
  _atom_site_fract_y
  _atom_site_fract_z
  _atom_site_occupancy
  Ca  Ca1       1.0  0.6887667179107666  0.7292391061782836  0.48781099915504456  1.0000
  Ca  Ca2       1.0  0.18594291806221008  0.6131440997123718  0.7142795920372009  1.0000
  Ca  Ca3       1.0  0.18678250908851624  0.47053211927413935  0.38094714283943176  1.0000
  Ca  Ca4       1.0  0.1931675523519516  0.6670738458633423  0.6211357712745667  1.0000
  Ca  Ca5       1.0  0.7022923231124878  0.702339470386505  0.564980149269104  1.0000
  Ca  Ca6       1.0  0.8693050742149353  0.24033790826797483  0.51584392786026  1.0000
  Mn  Mn1       1.0  0.6801174879074097  0.6007725596427917  0.8740456104278564  1.0000
  O   O1        1.0  0.38375717401504517  0.9361796975135802  0.5142098069190979  1.0000
  O   O2        1.0  0.28766098618507385  0.9966880679130553  0.6939318180084229  1.0000
  O   O3        1.0  0.1535302847623825  0.16417479515075684  0.45444953441619873  1.0000
