data_image0
_chemical_formula_structural       Ca5IOPPbSe
_chemical_formula_sum              "Ca5 I1 O1 P1 Pb1 Se1"
_cell_length_a       6.43911821283708
_cell_length_b       6.064801265607787
_cell_length_c       7.429453372955322
_cell_angle_alpha    69.29843207365697
_cell_angle_beta     63.457343094697656
_cell_angle_gamma    55.92820031786083

_space_group_name_H-M_alt    "P 1"
_space_group_IT_number       1

loop_
  _space_group_symop_operation_xyz
  'x, y, z'

loop_
  _atom_site_type_symbol
  _atom_site_label
  _atom_site_symmetry_multiplicity
  _atom_site_fract_x
  _atom_site_fract_y
  _atom_site_fract_z
  _atom_site_occupancy
  Ca  Ca1       1.0  0.17239117622375488  0.8042033910751343  0.27420711517333984  1.0000
  Ca  Ca2       1.0  0.6662372946739197  0.7440887689590454  0.025165067985653877  1.0000
  Ca  Ca3       1.0  0.16399316489696503  0.658618688583374  0.5655067563056946  1.0000
  Ca  Ca4       1.0  0.662082850933075  0.22437497973442078  0.14939874410629272  1.0000
  Ca  Ca5       1.0  0.659868061542511  0.7054288983345032  0.5040939450263977  1.0000
  I   I1        1.0  0.13563692569732666  0.751079261302948  0.16073310375213623  1.0000
  O   O1        1.0  0.6757915616035461  0.6695111989974976  0.7469621896743774  1.0000
  P   P1        1.0  0.1821957230567932  0.11033755540847778  0.16837260127067566  1.0000
  Pb  Pb1       1.0  0.3655184507369995  9.179115295410156e-06  0.2838691473007202  1.0000
  Se  Se1       1.0  0.16857415437698364  0.1370524764060974  0.46622520685195923  1.0000
