data_image0
_chemical_formula_structural       Ca2IO2P3PbPt
_chemical_formula_sum              "Ca2 I1 O2 P3 Pb1 Pt1"
_cell_length_a       7.177627073049989
_cell_length_b       6.894338645776902
_cell_length_c       7.724536418914795
_cell_angle_alpha    70.95279447623408
_cell_angle_beta     66.86009947549444
_cell_angle_gamma    59.811095990088475

_space_group_name_H-M_alt    "P 1"
_space_group_IT_number       1

loop_
  _space_group_symop_operation_xyz
  'x, y, z'

loop_
  _atom_site_type_symbol
  _atom_site_label
  _atom_site_symmetry_multiplicity
  _atom_site_fract_x
  _atom_site_fract_y
  _atom_site_fract_z
  _atom_site_occupancy
  Ca  Ca1       1.0  0.22430144250392914  0.9585654735565186  0.3290051817893982  1.0000
  Ca  Ca2       1.0  0.36530861258506775  0.038969483226537704  0.2136075347661972  1.0000
  I   I1        1.0  0.6397324204444885  0.181054025888443  0.06506843864917755  1.0000
  O   O1        1.0  0.13647238910198212  0.5646011233329773  0.45919865369796753  1.0000
  O   O2        1.0  0.3900541663169861  0.7694505453109741  0.3608497083187103  1.0000
  P   P1        1.0  0.859928548336029  0.4781535565853119  0.8140150308609009  1.0000
  P   P2        1.0  0.8623443841934204  0.5029967427253723  0.658083975315094  1.0000
  P   P3        1.0  0.6348620057106018  0.2391217052936554  0.039178431034088135  1.0000
  Pb  Pb1       1.0  0.6660510301589966  0.2383681982755661  0.0202126894146204  1.0000
  Pt  Pt1       1.0  0.38763341307640076  0.6852971911430359  0.9682929515838623  1.0000
