data_image0
_chemical_formula_structural       ClFIr3Mn2Pt2
_chemical_formula_sum              "Cl1 F1 Ir3 Mn2 Pt2"
_cell_length_a       5.643769741743721
_cell_length_b       5.6882128012273485
_cell_length_c       6.140255451202393
_cell_angle_alpha    109.39523021222728
_cell_angle_beta     106.0440318454904
_cell_angle_gamma    109.57669496761513

_space_group_name_H-M_alt    "P 1"
_space_group_IT_number       1

loop_
  _space_group_symop_operation_xyz
  'x, y, z'

loop_
  _atom_site_type_symbol
  _atom_site_label
  _atom_site_symmetry_multiplicity
  _atom_site_fract_x
  _atom_site_fract_y
  _atom_site_fract_z
  _atom_site_occupancy
  Cl  Cl1       1.0  0.491615891456604  0.3545227646827698  0.11035380512475969  1.0000
  F   F1        1.0  0.18769551813602448  0.44075435400009155  0.5932724475860596  1.0000
  Ir  Ir1       1.0  0.698188066482544  0.11429978162050247  0.09753569215536119  1.0000
  Ir  Ir2       1.0  0.17954006791114807  0.5074509382247925  0.09754957258701322  1.0000
  Ir  Ir3       1.0  0.20023907721042633  0.11887916177511215  0.5957469940185547  1.0000
  Mn  Mn1       1.0  0.6860973238945007  0.7910759449005127  0.5977954864501953  1.0000
  Mn  Mn2       1.0  0.1904953420162201  0.45680975914001465  0.0977063179016113  1.0000
  Pt  Pt1       1.0  0.7215033769607544  0.8076713681221008  0.6548035740852356  1.0000
  Pt  Pt2       1.0  0.2140105962753296  0.817375659942627  0.6663307547569275  1.0000
