data_image0
_chemical_formula_structural       FIr2Mn2Pt3Te
_chemical_formula_sum              "F1 Ir2 Mn2 Pt3 Te1"
_cell_length_a       4.202446000009933
_cell_length_b       6.381670506289155
_cell_length_c       6.350264072418213
_cell_angle_alpha    118.56725201930487
_cell_angle_beta     89.75889104585946
_cell_angle_gamma    91.13375167115827

_space_group_name_H-M_alt    "P 1"
_space_group_IT_number       1

loop_
  _space_group_symop_operation_xyz
  'x, y, z'

loop_
  _atom_site_type_symbol
  _atom_site_label
  _atom_site_symmetry_multiplicity
  _atom_site_fract_x
  _atom_site_fract_y
  _atom_site_fract_z
  _atom_site_occupancy
  F   F1        1.0  0.5033815503120422  0.80049067735672  0.3620415329933168  1.0000
  Ir  Ir1       1.0  0.0026396869216114283  0.04574405029416084  0.0940941795706749  1.0000
  Ir  Ir2       1.0  0.002653956413269043  0.6605660319328308  0.6940769553184509  1.0000
  Mn  Mn1       1.0  0.0010155439376831055  0.03955421224236488  0.6766017079353333  1.0000
  Mn  Mn2       1.0  0.49900636076927185  0.3089416027069092  0.6063777804374695  1.0000
  Pt  Pt1       1.0  0.4995192587375641  0.5345206260681152  0.3285202980041504  1.0000
  Pt  Pt2       1.0  0.0029005371034145355  0.5458154082298279  0.5930792689323428  1.0000
  Pt  Pt3       1.0  0.5018080472946167  0.0023627281188964844  0.8618868589401246  1.0000
  Te  Te1       1.0  0.7506384253501892  0.36790257692337036  0.9847496747970582  1.0000
