data_image0
_chemical_formula_structural       Ag2CeIrMnMoPt3
_chemical_formula_sum              "Ag2 Ce1 Ir1 Mn1 Mo1 Pt3"
_cell_length_a       4.571875860490217
_cell_length_b       6.975247792416191
_cell_length_c       6.971435070037842
_cell_angle_alpha    125.01202201145516
_cell_angle_beta     89.44760216804423
_cell_angle_gamma    88.66923524031303

_space_group_name_H-M_alt    "P 1"
_space_group_IT_number       1

loop_
  _space_group_symop_operation_xyz
  'x, y, z'

loop_
  _atom_site_type_symbol
  _atom_site_label
  _atom_site_symmetry_multiplicity
  _atom_site_fract_x
  _atom_site_fract_y
  _atom_site_fract_z
  _atom_site_occupancy
  Ag  Ag1       1.0  0.7479278445243835  0.9435781836509705  0.16982056200504303  1.0000
  Ag  Ag2       1.0  0.4712430536746979  0.8945237398147583  0.7204766869544983  1.0000
  Ce  Ce1       1.0  0.49258333444595337  0.567344069480896  0.9511880278587341  1.0000
  Ir  Ir1       1.0  0.49515050649642944  0.5334163904190063  0.23576529324054718  1.0000
  Mn  Mn1       1.0  0.9889692664146423  0.8312577605247498  0.9268012642860413  1.0000
  Mo  Mo1       1.0  0.4955122172832489  0.08017346262931824  0.5601874589920044  1.0000
  Pt  Pt1       1.0  0.9893433451652527  0.21078768372535706  0.22863353788852692  1.0000
  Pt  Pt2       1.0  0.9836966395378113  0.4545539617538452  0.6721502542495728  1.0000
  Pt  Pt3       1.0  0.9920023083686829  0.47118237614631653  0.5692327618598939  1.0000
