data_image0
_chemical_formula_structural       CrIrMgMn2MoPt3
_chemical_formula_sum              "Cr1 Ir1 Mg1 Mn2 Mo1 Pt3"
_cell_length_a       4.093984638496558
_cell_length_b       6.71771407061356
_cell_length_c       6.711556434631348
_cell_angle_alpha    123.9720699821106
_cell_angle_beta     90.21610907587304
_cell_angle_gamma    88.8656444995192

_space_group_name_H-M_alt    "P 1"
_space_group_IT_number       1

loop_
  _space_group_symop_operation_xyz
  'x, y, z'

loop_
  _atom_site_type_symbol
  _atom_site_label
  _atom_site_symmetry_multiplicity
  _atom_site_fract_x
  _atom_site_fract_y
  _atom_site_fract_z
  _atom_site_occupancy
  Cr  Cr1       1.0  0.42481526732444763  0.9120957851409912  0.8957154750823975  1.0000
  Ir  Ir1       1.0  0.9327998161315918  0.33278360962867737  0.5397166609764099  1.0000
  Mg  Mg1       1.0  0.9273239970207214  0.3465040326118469  0.7506535649299622  1.0000
  Mn  Mn1       1.0  0.4255415201187134  0.7485456466674805  0.2036169320344924  1.0000
  Mn  Mn2       1.0  0.9306662678718567  0.6072462797164917  0.020316584035754138  1.0000
  Mo  Mo1       1.0  0.4312228858470917  0.5559835433959961  0.6543823480606079  1.0000
  Pt  Pt1       1.0  0.901362955570221  0.09208337217569351  0.026746755465865125  1.0000
  Pt  Pt2       1.0  0.42254212498664856  0.6685023307800293  0.019038941711187297  1.0000
  Pt  Pt3       1.0  0.9273877739906311  0.7622028589248657  0.18970470130443573  1.0000
