data_image0
_chemical_formula_structural       F2Ir3Pt4
_chemical_formula_sum              "F2 Ir3 Pt4"
_cell_length_a       5.118167477764051
_cell_length_b       5.472748187802446
_cell_length_c       5.555772304534912
_cell_angle_alpha    64.56340336894334
_cell_angle_beta     60.80432523342904
_cell_angle_gamma    61.63578979713063

_space_group_name_H-M_alt    "P 1"
_space_group_IT_number       1

loop_
  _space_group_symop_operation_xyz
  'x, y, z'

loop_
  _atom_site_type_symbol
  _atom_site_label
  _atom_site_symmetry_multiplicity
  _atom_site_fract_x
  _atom_site_fract_y
  _atom_site_fract_z
  _atom_site_occupancy
  F   F1        1.0  0.2826942503452301  0.21583501994609833  0.022088605910539627  1.0000
  F   F2        1.0  0.787106990814209  0.23337142169475555  0.08042781800031662  1.0000
  Ir  Ir1       1.0  0.7439339756965637  0.6220167875289917  0.6753770709037781  1.0000
  Ir  Ir2       1.0  0.359072744846344  0.8654270172119141  0.27141478657722473  1.0000
  Ir  Ir3       1.0  0.8811368346214294  0.9554859399795532  0.2619273364543915  1.0000
  Pt  Pt1       1.0  0.2400072067975998  0.5091369152069092  0.8678970336914062  1.0000
  Pt  Pt2       1.0  0.9810358285903931  0.706172525882721  0.6907264590263367  1.0000
  Pt  Pt3       1.0  0.6088705658912659  0.7340365052223206  0.038341641426086426  1.0000
  Pt  Pt4       1.0  0.8094105124473572  0.2778094410896301  0.8525850176811218  1.0000
