data_image0
_chemical_formula_structural       F2Lu3PRbZr3
_chemical_formula_sum              "F2 Lu3 P1 Rb1 Zr3"
_cell_length_a       6.689808034532342
_cell_length_b       6.592517201742164
_cell_length_c       6.881197929382324
_cell_angle_alpha    63.45349848151921
_cell_angle_beta     62.99418487666297
_cell_angle_gamma    60.579525978044344

_space_group_name_H-M_alt    "P 1"
_space_group_IT_number       1

loop_
  _space_group_symop_operation_xyz
  'x, y, z'

loop_
  _atom_site_type_symbol
  _atom_site_label
  _atom_site_symmetry_multiplicity
  _atom_site_fract_x
  _atom_site_fract_y
  _atom_site_fract_z
  _atom_site_occupancy
  F   F1        1.0  0.19675353169441223  0.7625201344490051  0.4332394003868103  1.0000
  F   F2        1.0  0.9358559250831604  0.9463124871253967  0.9430127143859863  1.0000
  Lu  Lu1       1.0  0.45157429575920105  0.9626836776733398  0.5918118357658386  1.0000
  Lu  Lu2       1.0  0.9031558036804199  0.16881562769412994  0.2465335577726364  1.0000
  Lu  Lu3       1.0  0.44446349143981934  0.9789251089096069  0.24569860100746155  1.0000
  P   P1        1.0  0.17962431907653809  0.21431460976600647  0.0711580365896225  1.0000
  Rb  Rb1       1.0  0.9376423954963684  0.4512602686882019  0.4844277501106262  1.0000
  Zr  Zr1       1.0  0.18401309847831726  0.2304096668958664  0.8126001954078674  1.0000
  Zr  Zr2       1.0  0.434463232755661  0.45061975717544556  0.019273502752184868  1.0000
  Zr  Zr3       1.0  0.9098904132843018  0.6749399900436401  0.577885091304779  1.0000
