data_image0
_chemical_formula_structural       F4HoLuMoZr3
_chemical_formula_sum              "F4 Ho1 Lu1 Mo1 Zr3"
_cell_length_a       5.091940507476501
_cell_length_b       6.448957018769644
_cell_length_c       7.686112880706787
_cell_angle_alpha    113.48063786880726
_cell_angle_beta     90.34288409344825
_cell_angle_gamma    103.46489051125828

_space_group_name_H-M_alt    "P 1"
_space_group_IT_number       1

loop_
  _space_group_symop_operation_xyz
  'x, y, z'

loop_
  _atom_site_type_symbol
  _atom_site_label
  _atom_site_symmetry_multiplicity
  _atom_site_fract_x
  _atom_site_fract_y
  _atom_site_fract_z
  _atom_site_occupancy
  F   F1        1.0  0.4217769205570221  0.012265389785170555  0.3777518272399903  1.0000
  F   F2        1.0  0.925794243812561  0.10963533818721771  0.25198715925216675  1.0000
  F   F3        1.0  0.6930541396141052  0.39176881313323975  0.7480860948562623  1.0000
  F   F4        1.0  0.19226261973381042  0.5184934735298157  0.1311703324317932  1.0000
  Ho  Ho1       1.0  0.9389997720718384  0.47727277874946594  0.5749168992042542  1.0000
  Lu  Lu1       1.0  0.680841326713562  0.8181578516960144  0.9722003340721131  1.0000
  Mo  Mo1       1.0  0.6800466179847717  0.8861125111579895  0.8800830245018006  1.0000
  Zr  Zr1       1.0  0.19212864339351654  0.017215363681316376  0.0279085747897625  1.0000
  Zr  Zr2       1.0  0.6777179837226868  0.4661557376384735  0.46778163313865667  1.0000
  Zr  Zr3       1.0  0.23668198287487027  0.5082589983940125  0.30370545387268066  1.0000
