data_image0
_chemical_formula_structural       F5RhZr4
_chemical_formula_sum              "F5 Rh1 Zr4"
_cell_length_a       4.781119539845461
_cell_length_b       6.898108408693046
_cell_length_c       7.081035614013672
_cell_angle_alpha    127.79949136824013
_cell_angle_beta     86.46752766313297
_cell_angle_gamma    83.69391454983904

_space_group_name_H-M_alt    "P 1"
_space_group_IT_number       1

loop_
  _space_group_symop_operation_xyz
  'x, y, z'

loop_
  _atom_site_type_symbol
  _atom_site_label
  _atom_site_symmetry_multiplicity
  _atom_site_fract_x
  _atom_site_fract_y
  _atom_site_fract_z
  _atom_site_occupancy
  F   F1        1.0  0.6623772382736206  0.6128354072570801  0.795501172542572  1.0000
  F   F2        1.0  0.39198991656303406  0.303005188703537  0.8891927599906921  1.0000
  F   F3        1.0  0.6907682418823242  0.009622418321669102  0.5904891490936279  1.0000
  F   F4        1.0  0.8845717906951904  0.17170731723308563  0.45514559745788574  1.0000
  F   F5        1.0  0.931700587272644  0.9818548560142517  0.7108598351478577  1.0000
  Rh  Rh1       1.0  0.9320886731147766  0.20419639348983765  0.23293860256671906  1.0000
  Zr  Zr1       1.0  0.3892608880996704  0.9402843117713928  0.9791753888130188  1.0000
  Zr  Zr2       1.0  0.3873767554759979  0.3935284912586212  0.3154030740261078  1.0000
  Zr  Zr3       1.0  0.39675965905189514  0.129914790391922  0.24604777991771698  1.0000
  Zr  Zr4       1.0  0.894182026386261  0.9676688313484192  0.9745832085609436  1.0000
