data_image0
_chemical_formula_structural       F6Zr4
_chemical_formula_sum              "F6 Zr4"
_cell_length_a       4.346526714964393
_cell_length_b       7.00178172414661
_cell_length_c       6.987421035766602
_cell_angle_alpha    121.36453667404274
_cell_angle_beta     89.64073646072336
_cell_angle_gamma    90.07909407285548

_space_group_name_H-M_alt    "P 1"
_space_group_IT_number       1

loop_
  _space_group_symop_operation_xyz
  'x, y, z'

loop_
  _atom_site_type_symbol
  _atom_site_label
  _atom_site_symmetry_multiplicity
  _atom_site_fract_x
  _atom_site_fract_y
  _atom_site_fract_z
  _atom_site_occupancy
  F   F1        1.0  0.29149889945983887  0.5711541175842285  0.8412561416625978  1.0000
  F   F2        1.0  0.7901880741119385  0.4517392814159393  0.015040894970297782  1.0000
  F   F3        1.0  0.8029066324234009  0.9453378915786742  0.08963084220886232  1.0000
  F   F4        1.0  0.7898116111755371  0.10223162919282912  0.8217749595642091  1.0000
  F   F5        1.0  0.7890272736549377  0.6153132915496826  0.7658095955848695  1.0000
  F   F6        1.0  0.2967675030231476  0.8107280135154723  0.6703343391418458  1.0000
  Zr  Zr1       1.0  0.2924444079399109  0.6252123713493347  0.8273332715034486  1.0000
  Zr  Zr2       1.0  0.7730401158332825  0.28102150559425354  0.7145493030548097  1.0000
  Zr  Zr3       1.0  0.2875598967075348  0.08385051041841507  0.8163492679595948  1.0000
  Zr  Zr4       1.0  0.7986874580383301  0.4458061754703521  0.054885990917682655  1.0000
