data_image0
_chemical_formula_structural       BaF2Lu3PZr3
_chemical_formula_sum              "Ba1 F2 Lu3 P1 Zr3"
_cell_length_a       6.19391450013358
_cell_length_b       6.290439264859341
_cell_length_c       6.768047332763672
_cell_angle_alpha    61.262573951235794
_cell_angle_beta     62.27298266686767
_cell_angle_gamma    61.16035439582991

_space_group_name_H-M_alt    "P 1"
_space_group_IT_number       1

loop_
  _space_group_symop_operation_xyz
  'x, y, z'

loop_
  _atom_site_type_symbol
  _atom_site_label
  _atom_site_symmetry_multiplicity
  _atom_site_fract_x
  _atom_site_fract_y
  _atom_site_fract_z
  _atom_site_occupancy
  Ba  Ba1       1.0  0.8974547386169434  0.8874989151954651  0.8364497423171997  1.0000
  F   F1        1.0  0.10868273675441742  0.2921800911426544  0.1677349954843521  1.0000
  F   F2        1.0  0.11583817005157471  0.8629899024963379  0.420657753944397  1.0000
  Lu  Lu1       1.0  0.24819232523441315  0.9380273222923279  0.41034090518951416  1.0000
  Lu  Lu2       1.0  0.2535685896873474  0.5351609587669373  0.008281734772026539  1.0000
  Lu  Lu3       1.0  0.8821178674697876  0.6014474630355835  0.9133707880973816  1.0000
  P   P1        1.0  0.013178657740354538  0.2952551245689392  0.5188744068145752  1.0000
  Zr  Zr1       1.0  0.5968250632286072  0.767595112323761  0.4063795804977417  1.0000
  Zr  Zr2       1.0  0.6014118194580078  0.2905288338661194  0.4196230173110962  1.0000
  Zr  Zr3       1.0  0.25073468685150146  0.5184440612792969  0.5128238797187805  1.0000
