data_image0
_chemical_formula_structural       F4HoLuRbZr3
_chemical_formula_sum              "F4 Ho1 Lu1 Rb1 Zr3"
_cell_length_a       6.222239995498993
_cell_length_b       6.731187855793319
_cell_length_c       6.6358160972595215
_cell_angle_alpha    113.81517368027387
_cell_angle_beta     101.00978666523814
_cell_angle_gamma    107.38422707174549

_space_group_name_H-M_alt    "P 1"
_space_group_IT_number       1

loop_
  _space_group_symop_operation_xyz
  'x, y, z'

loop_
  _atom_site_type_symbol
  _atom_site_label
  _atom_site_symmetry_multiplicity
  _atom_site_fract_x
  _atom_site_fract_y
  _atom_site_fract_z
  _atom_site_occupancy
  F   F1        1.0  0.8523750901222229  0.01892068423330784  0.7076300978660583  1.0000
  F   F2        1.0  0.861958384513855  0.5430241823196411  0.031070930883288383  1.0000
  F   F3        1.0  0.5985300540924072  0.21467117965221405  0.4525349736213684  1.0000
  F   F4        1.0  0.5973849296569824  0.5405905246734619  0.14506331086158752  1.0000
  Ho  Ho1       1.0  0.5954315662384033  0.7552619576454163  0.37665978074073797  1.0000
  Lu  Lu1       1.0  0.11564330756664276  0.2676127254962921  0.7211455702781677  1.0000
  Rb  Rb1       1.0  0.10275917500257492  0.7957568764686584  0.12910215556621557  1.0000
  Zr  Zr1       1.0  0.09610863029956818  0.05124567449092865  0.6518734097480774  1.0000
  Zr  Zr2       1.0  0.5882351398468018  0.03647472709417343  0.6282475590705872  1.0000
  Zr  Zr3       1.0  0.09360133856534958  0.7975318431854248  0.11711664497852332  1.0000
