data_image0
_chemical_formula_structural       BGeI2InSb3
_chemical_formula_sum              "B1 Ge1 I2 In1 Sb3"
_cell_length_a       4.808528799632934
_cell_length_b       7.227171173304645
_cell_length_c       7.846307277679443
_cell_angle_alpha    109.85587220701532
_cell_angle_beta     91.47552989220087
_cell_angle_gamma    88.38709693141742

_space_group_name_H-M_alt    "P 1"
_space_group_IT_number       1

loop_
  _space_group_symop_operation_xyz
  'x, y, z'

loop_
  _atom_site_type_symbol
  _atom_site_label
  _atom_site_symmetry_multiplicity
  _atom_site_fract_x
  _atom_site_fract_y
  _atom_site_fract_z
  _atom_site_occupancy
  B   B1        1.0  0.7248810529708862  0.49416792392730713  0.17513298988342282  1.0000
  Ge  Ge1       1.0  0.30574649572372437  0.1133037656545639  0.7118908166885376  1.0000
  I   I1        1.0  0.32944977283477783  0.7450463175773621  0.7103093862533569  1.0000
  I   I2        1.0  0.8015097379684448  0.8631932735443115  0.18411837518215174  1.0000
  In  In1       1.0  0.1819813847541809  0.47934749722480774  0.6567038893699646  1.0000
  Sb  Sb1       1.0  0.8482030630111695  0.9574285745620728  0.7769575715065002  1.0000
  Sb  Sb2       1.0  0.3838156461715698  0.012248799204826355  0.8918372988700867  1.0000
  Sb  Sb3       1.0  0.8395181894302369  0.7542490363121033  0.09380956739187238  1.0000
