data_image0
_chemical_formula_structural       Yb8
_chemical_formula_sum              "Yb8"
_cell_length_a       4.064434535516269
_cell_length_b       4.389834322362881
_cell_length_c       10.475825309753418
_cell_angle_alpha    99.83139796421383
_cell_angle_beta     102.46283012488544
_cell_angle_gamma    90.36102207191114

_space_group_name_H-M_alt    "P 1"
_space_group_IT_number       1

loop_
  _space_group_symop_operation_xyz
  'x, y, z'

loop_
  _atom_site_type_symbol
  _atom_site_label
  _atom_site_symmetry_multiplicity
  _atom_site_fract_x
  _atom_site_fract_y
  _atom_site_fract_z
  _atom_site_occupancy
  Yb  Yb1       1.0  0.12767738103866577  0.08267676830291748  0.5853747129440308  1.0000
  Yb  Yb2       1.0  0.6280961036682129  0.8352867960929871  0.9397718906402588  1.0000
  Yb  Yb3       1.0  0.12696412205696106  0.7064645886421204  0.7206962704658508  1.0000
  Yb  Yb4       1.0  0.12625427544116974  0.3517884910106659  0.9928589463233949  1.0000
  Yb  Yb5       1.0  0.12842552363872528  0.33277076482772827  0.7348171472549438  1.0000
  Yb  Yb6       1.0  0.6268151998519897  0.7403427958488464  0.6035933494567871  1.0000
  Yb  Yb7       1.0  0.6258928179740906  0.18623489141464233  0.28872328996658325  1.0000
  Yb  Yb8       1.0  0.6295501589775085  0.1770240217447281  0.5948083400726318  1.0000
