data_image0
_chemical_formula_structural       AsSb2Yb5
_chemical_formula_sum              "As1 Sb2 Yb5"
_cell_length_a       4.184966276548738
_cell_length_b       3.420056352340727
_cell_length_c       8.051865577697754
_cell_angle_alpha    106.78344779919763
_cell_angle_beta     105.8108630616686
_cell_angle_gamma    99.886474293525

_space_group_name_H-M_alt    "P 1"
_space_group_IT_number       1

loop_
  _space_group_symop_operation_xyz
  'x, y, z'

loop_
  _atom_site_type_symbol
  _atom_site_label
  _atom_site_symmetry_multiplicity
  _atom_site_fract_x
  _atom_site_fract_y
  _atom_site_fract_z
  _atom_site_occupancy
  As  As1       1.0  0.8209913969039917  0.8013864755630493  0.29725518822669983  1.0000
  Sb  Sb1       1.0  0.9252674579620361  0.1916106641292572  0.17842446267604828  1.0000
  Sb  Sb2       1.0  0.37599125504493713  0.3570769727230072  0.863638162612915  1.0000
  Yb  Yb1       1.0  0.42120543122291565  0.22765129804611206  0.5044621229171753  1.0000
  Yb  Yb2       1.0  0.9115753769874573  0.5392704010009766  0.9830528497695923  1.0000
  Yb  Yb3       1.0  0.9023573398590088  0.5922499895095825  0.3978192210197449  1.0000
  Yb  Yb4       1.0  0.9190024137496948  0.5619451403617859  0.14995302259922025  1.0000
  Yb  Yb5       1.0  0.4224607050418854  0.9345905184745789  0.584705114364624  1.0000
