data_image0
_chemical_formula_structural       Ge2InPbSb4
_chemical_formula_sum              "Ge2 In1 Pb1 Sb4"
_cell_length_a       5.4774970482774
_cell_length_b       5.700905259541726
_cell_length_c       8.151358604431152
_cell_angle_alpha    90.9550060625593
_cell_angle_beta     89.16772474777363
_cell_angle_gamma    89.75177749566687

_space_group_name_H-M_alt    "P 1"
_space_group_IT_number       1

loop_
  _space_group_symop_operation_xyz
  'x, y, z'

loop_
  _atom_site_type_symbol
  _atom_site_label
  _atom_site_symmetry_multiplicity
  _atom_site_fract_x
  _atom_site_fract_y
  _atom_site_fract_z
  _atom_site_occupancy
  Ge  Ge1       1.0  0.6801535487174988  0.5683350563049316  0.2094462811946869  1.0000
  Ge  Ge2       1.0  0.6701439023017883  0.4064936339855194  0.8800353407859802  1.0000
  In  In1       1.0  0.17817902565002441  0.5761603713035583  0.30934324860572815  1.0000
  Pb  Pb1       1.0  0.17399011552333832  0.8889519572257996  0.8157626986503601  1.0000
  Sb  Sb1       1.0  0.6877484321594238  0.11990895122289658  0.5937914252281189  1.0000
  Sb  Sb2       1.0  0.15887658298015594  0.5030820369720459  0.7168446779251099  1.0000
  Sb  Sb3       1.0  0.17596352100372314  0.5266441702842712  0.4394870698451996  1.0000
  Sb  Sb4       1.0  0.6652064323425293  0.45642420649528503  0.16425153613090515  1.0000
