data_image0
_chemical_formula_structural       As3VZn2Zr2
_chemical_formula_sum              "As3 V1 Zn2 Zr2"
_cell_length_a       4.590366005291395
_cell_length_b       5.974652476437401
_cell_length_c       6.692358493804932
_cell_angle_alpha    124.87052598135672
_cell_angle_beta     89.58113255825342
_cell_angle_gamma    88.65360719344503

_space_group_name_H-M_alt    "P 1"
_space_group_IT_number       1

loop_
  _space_group_symop_operation_xyz
  'x, y, z'

loop_
  _atom_site_type_symbol
  _atom_site_label
  _atom_site_symmetry_multiplicity
  _atom_site_fract_x
  _atom_site_fract_y
  _atom_site_fract_z
  _atom_site_occupancy
  As  As1       1.0  0.7195754647254944  0.7500332593917847  0.5767399072647095  1.0000
  As  As2       1.0  0.14521627128124237  0.6133695840835571  0.6286430954933167  1.0000
  As  As3       1.0  0.34655869007110596  0.9806405305862427  0.433843344449997  1.0000
  V   V1        1.0  0.3446284830570221  0.833758533000946  0.40843096375465393  1.0000
  Zn  Zn1       1.0  0.8350035548210144  0.22573097050189972  0.15654532611370087  1.0000
  Zn  Zn2       1.0  0.3362676799297333  0.2671024799346924  0.4992474615573883  1.0000
  Zr  Zr1       1.0  0.8372834324836731  0.2851620018482208  0.7182812094688416  1.0000
  Zr  Zr2       1.0  0.16660627722740173  0.12109805643558502  0.3624923527240753  1.0000
