data_image0
_chemical_formula_structural       Si2Tb5
_chemical_formula_sum              "Si2 Tb5"
_cell_length_a       4.248105736149342
_cell_length_b       4.6303757489022646
_cell_length_c       10.033136367797852
_cell_angle_alpha    91.67803243679498
_cell_angle_beta     91.54372738550151
_cell_angle_gamma    103.7105501605616

_space_group_name_H-M_alt    "P 1"
_space_group_IT_number       1

loop_
  _space_group_symop_operation_xyz
  'x, y, z'

loop_
  _atom_site_type_symbol
  _atom_site_label
  _atom_site_symmetry_multiplicity
  _atom_site_fract_x
  _atom_site_fract_y
  _atom_site_fract_z
  _atom_site_occupancy
  Si  Si1       1.0  0.5430701375007629  0.4738110899925232  0.35711994767189026  1.0000
  Si  Si2       1.0  0.04954823479056358  0.05619875341653824  0.8922019004821777  1.0000
  Tb  Tb1       1.0  0.049172528088092804  0.5104765295982361  0.6192291975021362  1.0000
  Tb  Tb2       1.0  0.5527544021606445  0.27053117752075195  0.0147065045312047  1.0000
  Tb  Tb3       1.0  0.0480705089867115  0.07171416282653809  0.5659568905830383  1.0000
  Tb  Tb4       1.0  0.5478916168212891  0.040556229650974274  0.35622140765190125  1.0000
  Tb  Tb5       1.0  0.04953711852431297  0.46505317091941833  0.15115845203399658  1.0000
