data_image0
_chemical_formula_structural       FGaSiTb4
_chemical_formula_sum              "F1 Ga1 Si1 Tb4"
_cell_length_a       5.124831448005053
_cell_length_b       4.842138359152075
_cell_length_c       5.766058921813965
_cell_angle_alpha    58.121263737045574
_cell_angle_beta     58.63691342572135
_cell_angle_gamma    54.29997652309869

_space_group_name_H-M_alt    "P 1"
_space_group_IT_number       1

loop_
  _space_group_symop_operation_xyz
  'x, y, z'

loop_
  _atom_site_type_symbol
  _atom_site_label
  _atom_site_symmetry_multiplicity
  _atom_site_fract_x
  _atom_site_fract_y
  _atom_site_fract_z
  _atom_site_occupancy
  F   F1        1.0  0.6769521832466125  0.06288022547960281  0.8024535775184631  1.0000
  Ga  Ga1       1.0  0.23831042647361753  0.8526045680046083  0.2695223093032837  1.0000
  Si  Si1       1.0  0.537946879863739  0.6813658475875856  0.3376263976097107  1.0000
  Tb  Tb1       1.0  0.6124813556671143  0.9026032090187074  0.9551957249641418  1.0000
  Tb  Tb2       1.0  0.5598387122154236  0.389959990978241  0.6902506947517395  1.0000
  Tb  Tb3       1.0  0.11626865714788437  0.5036535859107971  0.19081823527812958  1.0000
  Tb  Tb4       1.0  0.9010211229324341  0.38350841403007513  0.8564513325691223  1.0000
