data_image0
_chemical_formula_structural       AsBiGaGdGeLuSbZr
_chemical_formula_sum              "As1 Bi1 Ga1 Gd1 Ge1 Lu1 Sb1 Zr1"
_cell_length_a       4.762762441831235
_cell_length_b       4.852119870871844
_cell_length_c       8.565925598144531
_cell_angle_alpha    90.55654073563495
_cell_angle_beta     90.3261044831914
_cell_angle_gamma    98.92502665152739

_space_group_name_H-M_alt    "P 1"
_space_group_IT_number       1

loop_
  _space_group_symop_operation_xyz
  'x, y, z'

loop_
  _atom_site_type_symbol
  _atom_site_label
  _atom_site_symmetry_multiplicity
  _atom_site_fract_x
  _atom_site_fract_y
  _atom_site_fract_z
  _atom_site_occupancy
  As  As1       1.0  0.8766915202140808  0.38601478934288025  0.27902132272720337  1.0000
  Bi  Bi1       1.0  0.855496346950531  0.32679033279418945  0.41417667269706726  1.0000
  Ga  Ga1       1.0  0.39685437083244324  0.4073408246040344  0.26526087522506714  1.0000
  Gd  Gd1       1.0  0.40242722630500793  0.9720115065574646  0.378578782081604  1.0000
  Ge  Ge1       1.0  0.8583683967590332  0.6113049983978271  0.5681039094924927  1.0000
  Lu  Lu1       1.0  0.39933550357818604  0.06447945535182953  0.1606520563364029  1.0000
  Sb  Sb1       1.0  0.3998493552207947  0.88712078332901  0.6418974399566649  1.0000
  Zr  Zr1       1.0  0.8935069441795349  0.98686683177948  0.9588437676429749  1.0000
