data_image0
_chemical_formula_structural       BiCCoHfI2LuPb
_chemical_formula_sum              "Bi1 C1 Co1 Hf1 I2 Lu1 Pb1"
_cell_length_a       4.579063568069417
_cell_length_b       5.277093813275921
_cell_length_c       10.706451416015625
_cell_angle_alpha    90.21786328074907
_cell_angle_beta     90.98127403159019
_cell_angle_gamma    90.31271363628709

_space_group_name_H-M_alt    "P 1"
_space_group_IT_number       1

loop_
  _space_group_symop_operation_xyz
  'x, y, z'

loop_
  _atom_site_type_symbol
  _atom_site_label
  _atom_site_symmetry_multiplicity
  _atom_site_fract_x
  _atom_site_fract_y
  _atom_site_fract_z
  _atom_site_occupancy
  Bi  Bi1       1.0  0.2839393615722656  0.7111243605613708  0.1689784824848175  1.0000
  C   C1        1.0  0.7835088968276978  0.26639324426651  0.6138596534729004  1.0000
  Co  Co1       1.0  0.27885735034942627  0.5270448923110962  0.5363266468048096  1.0000
  Hf  Hf1       1.0  0.7855851054191589  0.30925747752189636  0.01810765080153942  1.0000
  I   I1        1.0  0.7818725109100342  0.2356494814157486  0.14015330374240875  1.0000
  I   I2        1.0  0.7802087068557739  0.34015461802482605  0.7131320834159851  1.0000
  Lu  Lu1       1.0  0.26772940158843994  0.6869120597839355  0.2969377636909485  1.0000
  Pb  Pb1       1.0  0.29113301634788513  0.6281543374061584  0.5856792330741882  1.0000
