data_image0
_chemical_formula_structural       As2BiMo2OsY2
_chemical_formula_sum              "As2 Bi1 Mo2 Os1 Y2"
_cell_length_a       3.501823103739216
_cell_length_b       1.6908925841623517
_cell_length_c       15.068589210510254
_cell_angle_alpha    129.2944818077003
_cell_angle_beta     105.10554922640814
_cell_angle_gamma    119.7633829930815

_space_group_name_H-M_alt    "P 1"
_space_group_IT_number       1

loop_
  _space_group_symop_operation_xyz
  'x, y, z'

loop_
  _atom_site_type_symbol
  _atom_site_label
  _atom_site_symmetry_multiplicity
  _atom_site_fract_x
  _atom_site_fract_y
  _atom_site_fract_z
  _atom_site_occupancy
  As  As1       1.0  0.18685053288936676  0.06559670716524292  0.6557792425155642  1.0000
  As  As2       1.0  0.6665723323822023  0.3963117897510531  0.8006572723388672  1.0000
  Bi  Bi1       1.0  0.200348123908043  0.051615923643112384  0.3994581401348114  1.0000
  Mo  Mo1       1.0  0.9883847236633301  0.2817762196063995  0.1957535445690155  1.0000
  Mo  Mo2       1.0  0.22029444575309767  0.09926482290029566  0.8035008311271667  1.0000
  Os  Os1       1.0  0.20148174464702606  0.06111214309930799  0.2791135013103485  1.0000
  Y   Y1        1.0  0.9844436645507811  0.29367822408676114  0.44001901149749756  1.0000
  Y   Y2        1.0  0.6596773862838744  0.0856701359152791  0.5592222809791565  1.0000
