data_image0
_chemical_formula_structural       As2BaBiOOsY2
_chemical_formula_sum              "As2 Ba1 Bi1 O1 Os1 Y2"
_cell_length_a       3.9280637738094213
_cell_length_b       3.519458635689003
_cell_length_c       13.825923919677734
_cell_angle_alpha    97.10545444186792
_cell_angle_beta     94.40304676462979
_cell_angle_gamma    90.06304752677747

_space_group_name_H-M_alt    "P 1"
_space_group_IT_number       1

loop_
  _space_group_symop_operation_xyz
  'x, y, z'

loop_
  _atom_site_type_symbol
  _atom_site_label
  _atom_site_symmetry_multiplicity
  _atom_site_fract_x
  _atom_site_fract_y
  _atom_site_fract_z
  _atom_site_occupancy
  As  As1       1.0  0.8170405626296998  0.021337198093533512  0.315502405166626  1.0000
  As  As2       1.0  0.31713107228279114  0.5172790884971619  0.9729685187339783  1.0000
  Ba  Ba1       1.0  0.8189041614532472  0.7818059921264647  0.3774985671043396  1.0000
  Bi  Bi1       1.0  0.3140740692615509  0.1993635445833206  0.4651761054992676  1.0000
  O   O1        1.0  0.3144497275352478  0.619283378124237  0.5392443537712097  1.0000
  Os  Os1       1.0  0.8154008984565736  0.01294103357940912  0.968904137611389  1.0000
  Y   Y1        1.0  0.8135669231414796  0.2937532663345337  0.9706599712371826  1.0000
  Y   Y2        1.0  0.29598745703697205  0.5603978633880615  0.4723944365978241  1.0000
