data_image0
_chemical_formula_structural       AsGeILuNNiZn2
_chemical_formula_sum              "As1 Ge1 I1 Lu1 N1 Ni1 Zn2"
_cell_length_a       4.518528926799938
_cell_length_b       4.763152212381092
_cell_length_c       10.15431022644043
_cell_angle_alpha    89.76983750377563
_cell_angle_beta     89.55022143177298
_cell_angle_gamma    120.05268335504607

_space_group_name_H-M_alt    "P 1"
_space_group_IT_number       1

loop_
  _space_group_symop_operation_xyz
  'x, y, z'

loop_
  _atom_site_type_symbol
  _atom_site_label
  _atom_site_symmetry_multiplicity
  _atom_site_fract_x
  _atom_site_fract_y
  _atom_site_fract_z
  _atom_site_occupancy
  As  As1       1.0  0.9674132466316223  0.47417348623275757  0.9852591156959534  1.0000
  Ge  Ge1       1.0  0.9747653007507324  0.17912611365318298  0.40097102522850037  1.0000
  I   I1        1.0  0.9722544550895691  0.6588905453681946  0.9976320266723633  1.0000
  Lu  Lu1       1.0  0.9707340002059937  0.09019860625267029  0.7797271609306335  1.0000
  N   N1        1.0  0.4654577374458313  0.9298169016838074  0.36313697695732117  1.0000
  Ni  Ni1       1.0  0.45252281427383423  0.5201082229614258  0.9001047015190125  1.0000
  Zn  Zn1       1.0  0.9625270366668701  0.5551972389221191  0.07411520183086395  1.0000
  Zn  Zn2       1.0  0.46177005767822266  0.5595002770423889  0.2636038064956665  1.0000
