data_image0
_chemical_formula_structural       AsCl2CsGe3K4Zr2
_chemical_formula_sum              "As1 Cl2 Cs1 Ge3 K4 Zr2"
_cell_length_a       6.753264784799008
_cell_length_b       6.890617432871249
_cell_length_c       7.218479156494141
_cell_angle_alpha    97.38618410829962
_cell_angle_beta     89.71947532062902
_cell_angle_gamma    93.2486915140641

_space_group_name_H-M_alt    "P 1"
_space_group_IT_number       1

loop_
  _space_group_symop_operation_xyz
  'x, y, z'

loop_
  _atom_site_type_symbol
  _atom_site_label
  _atom_site_symmetry_multiplicity
  _atom_site_fract_x
  _atom_site_fract_y
  _atom_site_fract_z
  _atom_site_occupancy
  As  As1       1.0  0.5385246276855469  0.1161310076713562  0.7614523768424988  1.0000
  Cl  Cl1       1.0  0.044225674122571945  0.6738411784172058  0.758797287940979  1.0000
  Cl  Cl2       1.0  0.052243422716856  0.5727325677871704  0.18566548824310303  1.0000
  Cs  Cs1       1.0  0.8339547514915466  0.6548730731010437  0.6326023936271667  1.0000
  Ge  Ge1       1.0  0.5402788519859314  0.3337149918079376  0.17517893016338348  1.0000
  Ge  Ge2       1.0  0.03675366193056106  0.9521060585975646  0.0637195333838463  1.0000
  Ge  Ge3       1.0  0.543973445892334  0.06496410816907883  0.03688080981373787  1.0000
  K   K1        1.0  0.5360280871391296  0.9661602973937987  0.9916079640388489  1.0000
  K   K2        1.0  0.5373727083206177  0.9727331995964049  0.46927767992019653  1.0000
  K   K3        1.0  0.049735505133867264  0.5243334770202637  0.16718441247940063  1.0000
  K   K4        1.0  0.5389384031295776  0.6021742820739746  0.4497429132461548  1.0000
  Zr  Zr1       1.0  0.5341044664382935  0.9443876147270203  0.6631137132644653  1.0000
  Zr  Zr2       1.0  0.04030405357480049  0.9142565131187439  0.5019211173057556  1.0000
