data_image0
_chemical_formula_structural       ClFGe2IK3O2PbZr2
_chemical_formula_sum              "Cl1 F1 Ge2 I1 K3 O2 Pb1 Zr2"
_cell_length_a       6.673947759076199
_cell_length_b       5.2119944072745215
_cell_length_c       6.705033779144287
_cell_angle_alpha    139.96226014990418
_cell_angle_beta     109.77640155155258
_cell_angle_gamma    101.00786929826637

_space_group_name_H-M_alt    "P 1"
_space_group_IT_number       1

loop_
  _space_group_symop_operation_xyz
  'x, y, z'

loop_
  _atom_site_type_symbol
  _atom_site_label
  _atom_site_symmetry_multiplicity
  _atom_site_fract_x
  _atom_site_fract_y
  _atom_site_fract_z
  _atom_site_occupancy
  Cl  Cl1       1.0  0.7593540549278259  0.0698107182979582  0.5823032855987548  1.0000
  F   F1        1.0  0.9876287579536437  0.5124070048332213  0.0836268663406372  1.0000
  Ge  Ge1       1.0  0.02009510435163973  0.37717714905738825  0.22665672004222867  1.0000
  Ge  Ge2       1.0  0.015457209199666906  0.9001836776733396  0.5069071650505065  1.0000
  I   I1        1.0  0.2080204486846923  0.21089321374893172  0.6518501639366149  1.0000
  K   K1        1.0  0.2171892821788787  0.5666146874427793  0.9624857306480407  1.0000
  K   K2        1.0  0.1662469059228897  0.724858283996582  0.4464944005012512  1.0000
  K   K3        1.0  0.7168397307395935  0.07291754335165018  0.5701889395713806  1.0000
  O   O1        1.0  0.015831045806407856  0.4796754717826841  0.8236843943595885  1.0000
  O   O2        1.0  0.5130006670951842  0.9515559077262877  0.4875141680240631  1.0000
  Pb  Pb1       1.0  0.5181761384010315  0.41220185160636896  0.45210012793540955  1.0000
  Zr  Zr1       1.0  0.9199653863906859  0.8894182443618774  0.3746604919433594  1.0000
  Zr  Zr2       1.0  0.526689052581787  0.7788001298904417  0.6368060111999511  1.0000
