data_image0
_chemical_formula_structural       ClCr5K3O4
_chemical_formula_sum              "Cl1 Cr5 K3 O4"
_cell_length_a       6.755177881598593
_cell_length_b       7.285102763349615
_cell_length_c       7.134803295135498
_cell_angle_alpha    85.00834645348738
_cell_angle_beta     66.82710127557176
_cell_angle_gamma    69.79843884718346

_space_group_name_H-M_alt    "P 1"
_space_group_IT_number       1

loop_
  _space_group_symop_operation_xyz
  'x, y, z'

loop_
  _atom_site_type_symbol
  _atom_site_label
  _atom_site_symmetry_multiplicity
  _atom_site_fract_x
  _atom_site_fract_y
  _atom_site_fract_z
  _atom_site_occupancy
  Cl  Cl1       1.0  0.05624809116125107  0.5198681950569153  0.49712726473808283  1.0000
  Cr  Cr1       1.0  0.5545943975448608  0.38475731015205383  0.5448602437973022  1.0000
  Cr  Cr2       1.0  0.5406238436698914  0.22269247472286222  0.4204839766025543  1.0000
  Cr  Cr3       1.0  0.005383879411965609  0.26372531056404114  0.379325270652771  1.0000
  Cr  Cr4       1.0  0.043326545506715775  0.057134833186864846  0.863842248916626  1.0000
  Cr  Cr5       1.0  0.28006961941719055  0.12092299014329909  0.06672903895378111  1.0000
  K   K1        1.0  0.748197615146637  0.23842789232730863  0.40423160791397095  1.0000
  K   K2        1.0  0.058529794216156006  0.5436614155769348  0.18568624556064606  1.0000
  K   K3        1.0  0.3149511814117432  0.4814105927944183  0.5938002467155457  1.0000
  O   O1        1.0  0.5544210076332092  0.6284779906272888  0.3061034381389618  1.0000
  O   O2        1.0  0.0787750110030175  0.9290796518325805  0.4702847898006439  1.0000
  O   O3        1.0  0.40455323457717896  0.33571383357048035  0.5769023895263672  1.0000
  O   O4        1.0  0.9533227682113647  0.9678719043731688  0.3813186287879943  1.0000
