data_image0
_chemical_formula_structural       AsClCrKO3PtVZr4
_chemical_formula_sum              "As1 Cl1 Cr1 K1 O3 Pt1 V1 Zr4"
_cell_length_a       6.820595219831752
_cell_length_b       7.780741872552407
_cell_length_c       8.15618896484375
_cell_angle_alpha    112.5148859224621
_cell_angle_beta     90.10475366811656
_cell_angle_gamma    89.74998728409636

_space_group_name_H-M_alt    "P 1"
_space_group_IT_number       1

loop_
  _space_group_symop_operation_xyz
  'x, y, z'

loop_
  _atom_site_type_symbol
  _atom_site_label
  _atom_site_symmetry_multiplicity
  _atom_site_fract_x
  _atom_site_fract_y
  _atom_site_fract_z
  _atom_site_occupancy
  As  As1       1.0  0.2941070795059204  0.810228168964386  0.2291860729455948  1.0000
  Cl  Cl1       1.0  0.5654605031013489  0.24130916595458984  0.2967683970928192  1.0000
  Cr  Cr1       1.0  0.2968948185443878  0.22752645611763  0.2382621318101883  1.0000
  K   K1        1.0  0.7977727055549622  0.404002845287323  0.034835897386074066  1.0000
  O   O1        1.0  0.0798080563545227  0.6060120463371277  0.3145211338996887  1.0000
  O   O2        1.0  0.5363034009933472  0.48982852697372437  0.21844035387039185  1.0000
  O   O3        1.0  0.08796942234039307  0.3661913573741913  0.5901837348937988  1.0000
  Pt  Pt1       1.0  0.5615959167480469  0.6347041130065918  0.5147018432617188  1.0000
  V   V1        1.0  0.2993890941143036  0.23337215185165405  0.2671865224838257  1.0000
  Zr  Zr1       1.0  0.7991366982460022  0.027794258669018745  0.4646347761154175  1.0000
  Zr  Zr2       1.0  0.08731447160243988  0.3345757722854614  0.5687459707260132  1.0000
  Zr  Zr3       1.0  0.793749213218689  0.10828334093093872  0.3164707124233246  1.0000
  Zr  Zr4       1.0  0.8040767908096313  0.5849218964576721  0.01902456022799015  1.0000
