data_image0
_chemical_formula_structural       Cr5K5O3
_chemical_formula_sum              "Cr5 K5 O3"
_cell_length_a       7.564138354341493
_cell_length_b       7.45846332284457
_cell_length_c       7.35443639755249
_cell_angle_alpha    111.9475884243716
_cell_angle_beta     110.08806762170617
_cell_angle_gamma    109.70991700593625

_space_group_name_H-M_alt    "P 1"
_space_group_IT_number       1

loop_
  _space_group_symop_operation_xyz
  'x, y, z'

loop_
  _atom_site_type_symbol
  _atom_site_label
  _atom_site_symmetry_multiplicity
  _atom_site_fract_x
  _atom_site_fract_y
  _atom_site_fract_z
  _atom_site_occupancy
  Cr  Cr1       1.0  0.17061150074005127  0.08755515515804291  0.21685700118541718  1.0000
  Cr  Cr2       1.0  0.8158957362174987  0.34698382019996643  0.5151914954185485  1.0000
  Cr  Cr3       1.0  0.724750518798828  0.21600382030010223  0.2989393770694732  1.0000
  Cr  Cr4       1.0  0.3335393965244293  0.5713819861412048  0.32653161883354187  1.0000
  Cr  Cr5       1.0  0.014056074433028696  0.022685309872031212  0.9669464826583862  1.0000
  K   K1        1.0  0.030150564387440678  0.01795293018221855  0.7282333374023438  1.0000
  K   K2        1.0  0.12487914413213728  0.4102822244167328  0.5917733311653137  1.0000
  K   K3        1.0  0.3402716815471649  0.5419952273368835  0.48457586765289307  1.0000
  K   K4        1.0  0.6082589626312256  0.4226934015750885  0.6705889701843262  1.0000
  K   K5        1.0  0.635012686252594  0.5553301572799683  0.5979923009872437  1.0000
  O   O1        1.0  0.8438375592231749  0.29953643679618835  0.22562608122825617  1.0000
  O   O2        1.0  0.6009045839309692  0.9632760882377625  0.33606669306755066  1.0000
  O   O3        1.0  0.13014358282089233  0.9879391193389893  0.479486882686615  1.0000
