data_image0
_chemical_formula_structural       AsGeK5O3VZr2
_chemical_formula_sum              "As1 Ge1 K5 O3 V1 Zr2"
_cell_length_a       7.469604788732453
_cell_length_b       7.074497519374501
_cell_length_c       7.8781208992004395
_cell_angle_alpha    113.67775027885935
_cell_angle_beta     103.08808259425079
_cell_angle_gamma    107.1657991623058

_space_group_name_H-M_alt    "P 1"
_space_group_IT_number       1

loop_
  _space_group_symop_operation_xyz
  'x, y, z'

loop_
  _atom_site_type_symbol
  _atom_site_label
  _atom_site_symmetry_multiplicity
  _atom_site_fract_x
  _atom_site_fract_y
  _atom_site_fract_z
  _atom_site_occupancy
  As  As1       1.0  0.9731566905975342  0.3440678119659424  0.1990131139755249  1.0000
  Ge  Ge1       1.0  0.017226336523890495  0.9477294087409973  0.41601389646530157  1.0000
  K   K1        1.0  0.49786052107810974  0.6297667622566223  0.31169164180755615  1.0000
  K   K2        1.0  0.4690639078617096  0.1498444527387619  0.7251061797142029  1.0000
  K   K3        1.0  0.9755923748016357  0.4007561504840851  0.9872912764549255  1.0000
  K   K4        1.0  0.488514244556427  0.9067957401275635  0.6056329607963562  1.0000
  K   K5        1.0  0.5019499659538269  0.7198548913002014  0.6778094172477722  1.0000
  O   O1        1.0  0.34290096163749695  0.12626850605010986  0.0716637447476387  1.0000
  O   O2        1.0  0.7327841520309448  0.04156697914004326  0.46181565523147583  1.0000
  O   O3        1.0  0.27965429425239563  0.3206387758255005  0.06911410391330719  1.0000
  V   V1        1.0  0.9765648245811462  0.8170578479766846  0.5417038798332215  1.0000
  Zr  Zr1       1.0  0.3493824899196625  0.05526844784617424  0.7414267063140869  1.0000
  Zr  Zr2       1.0  0.32869625091552734  0.24466167390346527  0.2853602468967438  1.0000
