data_image0
_chemical_formula_structural       I2Tb7
_chemical_formula_sum              "I2 Tb7"
_cell_length_a       5.049486383175925
_cell_length_b       5.600725847437604
_cell_length_c       12.405593872070312
_cell_angle_alpha    102.20167111716188
_cell_angle_beta     90.68981348280705
_cell_angle_gamma    93.62087115668102

_space_group_name_H-M_alt    "P 1"
_space_group_IT_number       1

loop_
  _space_group_symop_operation_xyz
  'x, y, z'

loop_
  _atom_site_type_symbol
  _atom_site_label
  _atom_site_symmetry_multiplicity
  _atom_site_fract_x
  _atom_site_fract_y
  _atom_site_fract_z
  _atom_site_occupancy
  I   I1        1.0  0.9479085206985474  0.01880672574043274  0.6500160098075867  1.0000
  I   I2        1.0  0.2770300507545471  0.28556036949157715  0.07088086009025574  1.0000
  Tb  Tb1       1.0  0.7766090035438538  0.40372389554977417  0.32798337936401367  1.0000
  Tb  Tb2       1.0  0.7699055671691895  0.7652865648269653  0.6834645271301268  1.0000
  Tb  Tb3       1.0  0.2746545672416687  0.27000799775123596  0.34777560830116266  1.0000
  Tb  Tb4       1.0  0.774312436580658  0.1455371081829071  0.40035477280616755  1.0000
  Tb  Tb5       1.0  0.2708202600479126  0.6977089643478394  0.13897454738616943  1.0000
  Tb  Tb6       1.0  0.7843059301376343  0.4924376904964447  0.7022857069969176  1.0000
  Tb  Tb7       1.0  0.28211119771003723  0.536590039730072  0.5206112861633301  1.0000
