data_image0
_chemical_formula_structural       I2LaTb6
_chemical_formula_sum              "I2 La1 Tb6"
_cell_length_a       5.252395685489174
_cell_length_b       7.475901784077259
_cell_length_c       9.652104377746582
_cell_angle_alpha    117.80999833689613
_cell_angle_beta     100.45846597389699
_cell_angle_gamma    89.89143738669996

_space_group_name_H-M_alt    "P 1"
_space_group_IT_number       1

loop_
  _space_group_symop_operation_xyz
  'x, y, z'

loop_
  _atom_site_type_symbol
  _atom_site_label
  _atom_site_symmetry_multiplicity
  _atom_site_fract_x
  _atom_site_fract_y
  _atom_site_fract_z
  _atom_site_occupancy
  I   I1        1.0  0.03328169882297516  0.8286444544792175  0.03270468115806575  1.0000
  I   I2        1.0  0.019372116774320602  0.09007588028907776  0.1403162181377411  1.0000
  La  La1       1.0  0.04435828700661659  0.24844156205654144  0.4742448925971985  1.0000
  Tb  Tb1       1.0  0.539685070514679  0.4314422011375427  0.15871283411979675  1.0000
  Tb  Tb2       1.0  0.04384810850024223  0.2259717732667923  0.8629016876220703  1.0000
  Tb  Tb3       1.0  0.5282003879547119  0.823131263256073  0.6404063105583191  1.0000
  Tb  Tb4       1.0  0.5286451578140259  0.5601324439048767  0.850460410118103  1.0000
  Tb  Tb5       1.0  0.5375018119812012  0.3211641013622284  0.8983876705169678  1.0000
  Tb  Tb6       1.0  0.5331366658210754  0.4188278019428253  0.15034037828445432  1.0000
