data_image0
_chemical_formula_structural       ITb8
_chemical_formula_sum              "I1 Tb8"
_cell_length_a       6.605136026253392
_cell_length_b       6.881019710902935
_cell_length_c       7.057129383087158
_cell_angle_alpha    123.9744535988495
_cell_angle_beta     113.39268158343702
_cell_angle_gamma    100.42510837958578

_space_group_name_H-M_alt    "P 1"
_space_group_IT_number       1

loop_
  _space_group_symop_operation_xyz
  'x, y, z'

loop_
  _atom_site_type_symbol
  _atom_site_label
  _atom_site_symmetry_multiplicity
  _atom_site_fract_x
  _atom_site_fract_y
  _atom_site_fract_z
  _atom_site_occupancy
  I   I1        1.0  0.6187891960144043  0.3074072003364563  0.18075118958950043  1.0000
  Tb  Tb1       1.0  0.9766105413436889  0.025645181536674555  0.5701161623001099  1.0000
  Tb  Tb2       1.0  0.5505518913269043  0.15493594110012054  0.1784438043832779  1.0000
  Tb  Tb3       1.0  0.9849177598953246  0.09275564551353464  0.3617865443229676  1.0000
  Tb  Tb4       1.0  0.9855199456214904  0.5150606036186218  0.540995180606842  1.0000
  Tb  Tb5       1.0  0.16581808030605308  0.9879260659217833  0.3941253125667572  1.0000
  Tb  Tb6       1.0  0.5472150444984436  0.6305046677589417  0.4202914834022522  1.0000
  Tb  Tb7       1.0  0.035321276634931564  0.22069837152957916  0.4311119318008423  1.0000
  Tb  Tb8       1.0  0.03809967637062073  0.268878698348999  0.5138033032417297  1.0000
