data_image0
_chemical_formula_structural       Co3O2Sb
_chemical_formula_sum              "Co3 O2 Sb1"
_cell_length_a       5.341381866886499
_cell_length_b       4.013505349875082
_cell_length_c       4.902408599853516
_cell_angle_alpha    33.1294426849263
_cell_angle_beta     58.68986409394397
_cell_angle_gamma    41.615810281198584

_space_group_name_H-M_alt    "P 1"
_space_group_IT_number       1

loop_
  _space_group_symop_operation_xyz
  'x, y, z'

loop_
  _atom_site_type_symbol
  _atom_site_label
  _atom_site_symmetry_multiplicity
  _atom_site_fract_x
  _atom_site_fract_y
  _atom_site_fract_z
  _atom_site_occupancy
  Co  Co1       1.0  0.8748947381973267  0.06866047531366357  0.3816503882408142  1.0000
  Co  Co2       1.0  0.7389270067214966  0.5737580060958863  0.29354822635650635  1.0000
  Co  Co3       1.0  0.4064094126224518  0.38430389761924744  0.07620511204004286  1.0000
  O   O1        1.0  0.8998300433158875  0.2254830002784729  0.4923618733882904  1.0000
  O   O2        1.0  0.8029666543006897  0.014872801490127976  0.4153814315795899  1.0000
  Sb  Sb1       1.0  0.2381305694580078  0.5254262685775758  0.7899498939514159  1.0000
