data_image0
_chemical_formula_structural       Co3O2Te
_chemical_formula_sum              "Co3 O2 Te1"
_cell_length_a       5.361520326660668
_cell_length_b       5.069088074231306
_cell_length_c       6.989293098449707
_cell_angle_alpha    71.62094746084591
_cell_angle_beta     67.78838254776383
_cell_angle_gamma    55.47196390666137

_space_group_name_H-M_alt    "P 1"
_space_group_IT_number       1

loop_
  _space_group_symop_operation_xyz
  'x, y, z'

loop_
  _atom_site_type_symbol
  _atom_site_label
  _atom_site_symmetry_multiplicity
  _atom_site_fract_x
  _atom_site_fract_y
  _atom_site_fract_z
  _atom_site_occupancy
  Co  Co1       1.0  0.5239427089691162  0.2520619034767151  0.44664049148559565  1.0000
  Co  Co2       1.0  0.5854467153549194  0.07738273590803146  0.8331583142280578  1.0000
  Co  Co3       1.0  0.3153504729270935  0.19836056232452393  0.16018486022949216  1.0000
  O   O1        1.0  0.9697840809822083  0.9576342105865479  0.5760201811790466  1.0000
  O   O2        1.0  0.5448489189147949  0.539310097694397  0.2571411728858948  1.0000
  Te  Te1       1.0  0.32162556052207947  0.05254468694329262  0.660684823989868  1.0000
