data_image0
_chemical_formula_structural       Co5O
_chemical_formula_sum              "Co5 O1"
_cell_length_a       4.416839931878541
_cell_length_b       4.215414410994755
_cell_length_c       4.6112823486328125
_cell_angle_alpha    64.00231893900352
_cell_angle_beta     62.96922255712992
_cell_angle_gamma    57.25139716062692

_space_group_name_H-M_alt    "P 1"
_space_group_IT_number       1

loop_
  _space_group_symop_operation_xyz
  'x, y, z'

loop_
  _atom_site_type_symbol
  _atom_site_label
  _atom_site_symmetry_multiplicity
  _atom_site_fract_x
  _atom_site_fract_y
  _atom_site_fract_z
  _atom_site_occupancy
  Co  Co1       1.0  0.8790405988693237  0.6411926746368408  0.8593748807907104  1.0000
  Co  Co2       1.0  0.3567844331264496  0.7140994668006897  0.2240329533815384  1.0000
  Co  Co3       1.0  0.6054421067237854  0.09317193180322647  0.9203927516937256  1.0000
  Co  Co4       1.0  0.08533021062612534  0.02206222340464592  0.8920351266860962  1.0000
  Co  Co5       1.0  0.9945511817932129  0.4851827025413513  0.3704472780227661  1.0000
  O   O1        1.0  0.3240472376346588  0.18815229833126068  0.3668685555458069  1.0000
