data_image0
_chemical_formula_structural       Co3IO2
_chemical_formula_sum              "Co3 I1 O2"
_cell_length_a       5.5058408634805955
_cell_length_b       4.994666766347277
_cell_length_c       5.782244682312012
_cell_angle_alpha    66.56156777450514
_cell_angle_beta     64.38967673163293
_cell_angle_gamma    55.91994526712378

_space_group_name_H-M_alt    "P 1"
_space_group_IT_number       1

loop_
  _space_group_symop_operation_xyz
  'x, y, z'

loop_
  _atom_site_type_symbol
  _atom_site_label
  _atom_site_symmetry_multiplicity
  _atom_site_fract_x
  _atom_site_fract_y
  _atom_site_fract_z
  _atom_site_occupancy
  Co  Co1       1.0  0.46044471859931946  0.4841747581958771  0.7896042466163635  1.0000
  Co  Co2       1.0  0.16104330122470856  0.7624830007553101  0.4040438234806061  1.0000
  Co  Co3       1.0  0.9070035219192505  0.6841211915016174  0.955033004283905  1.0000
  I   I1        1.0  0.18341973423957825  0.7974177002906799  0.21899394690990448  1.0000
  O   O1        1.0  0.8564211130142212  0.5738251209259033  0.4199114441871643  1.0000
  O   O2        1.0  0.5000134706497192  0.18337580561637878  0.8344517350196838  1.0000
