data_image0
_chemical_formula_structural       Co4O2
_chemical_formula_sum              "Co4 O2"
_cell_length_a       3.7352705208258468
_cell_length_b       3.5833506770408396
_cell_length_c       3.654341697692871
_cell_angle_alpha    90.58641432340004
_cell_angle_beta     97.27415034708709
_cell_angle_gamma    90.22032724422085

_space_group_name_H-M_alt    "P 1"
_space_group_IT_number       1

loop_
  _space_group_symop_operation_xyz
  'x, y, z'

loop_
  _atom_site_type_symbol
  _atom_site_label
  _atom_site_symmetry_multiplicity
  _atom_site_fract_x
  _atom_site_fract_y
  _atom_site_fract_z
  _atom_site_occupancy
  Co  Co1       1.0  0.8760104179382324  0.7310220003128052  0.9645808935165405  1.0000
  Co  Co2       1.0  0.9111512303352356  0.43897661566734314  0.8417863249778748  1.0000
  Co  Co3       1.0  0.3923089802265167  0.6593930125236511  0.5190113186836243  1.0000
  Co  Co4       1.0  0.4125937521457672  0.9072880744934082  0.7674418687820435  1.0000
  O   O1        1.0  0.010474665090441704  0.7009106278419495  0.5205434560775757  1.0000
  O   O2        1.0  0.39895832538604736  0.3608163595199585  0.37084394693374634  1.0000
