data_image0
_chemical_formula_structural       Sb2Si6Tb2W
_chemical_formula_sum              "Sb2 Si6 Tb2 W1"
_cell_length_a       4.626653340443026
_cell_length_b       6.412055662233377
_cell_length_c       7.551279544830322
_cell_angle_alpha    74.29360626451432
_cell_angle_beta     70.4100252774553
_cell_angle_gamma    69.15368918145803

_space_group_name_H-M_alt    "P 1"
_space_group_IT_number       1

loop_
  _space_group_symop_operation_xyz
  'x, y, z'

loop_
  _atom_site_type_symbol
  _atom_site_label
  _atom_site_symmetry_multiplicity
  _atom_site_fract_x
  _atom_site_fract_y
  _atom_site_fract_z
  _atom_site_occupancy
  Sb  Sb1       1.0  0.05145472288131714  0.6989606022834778  0.09546951204538345  1.0000
  Sb  Sb2       1.0  0.5922561883926392  0.5918633937835693  0.5042978525161743  1.0000
  Si  Si1       1.0  0.8359382152557373  0.2051452100276947  0.851078987121582  1.0000
  Si  Si2       1.0  0.1791711300611496  0.33694157004356384  0.34090444445610046  1.0000
  Si  Si3       1.0  0.06849009543657303  0.08830466866493225  0.2919906675815582  1.0000
  Si  Si4       1.0  0.3317877948284149  0.6979039907455444  0.086943618953228  1.0000
  Si  Si5       1.0  0.17799519002437592  0.1205780878663063  0.1445782631635666  1.0000
  Si  Si6       1.0  0.8015437722206116  0.47223520278930664  0.2825855314731598  1.0000
  Tb  Tb1       1.0  0.4048363268375397  0.08239488303661346  0.7987748384475708  1.0000
  Tb  Tb2       1.0  0.8031668663024902  0.5078219175338745  0.7933536171913147  1.0000
  W   W1        1.0  0.5724971890449524  0.15270152688026428  0.07768934965133667  1.0000
