data_image0
_chemical_formula_structural       HRhSbScSi5Tb2
_chemical_formula_sum              "H1 Rh1 Sb1 Sc1 Si5 Tb2"
_cell_length_a       5.038915854801493
_cell_length_b       6.278659047376044
_cell_length_c       7.595995903015137
_cell_angle_alpha    68.65267794052723
_cell_angle_beta     66.3244047003111
_cell_angle_gamma    63.44891785528738

_space_group_name_H-M_alt    "P 1"
_space_group_IT_number       1

loop_
  _space_group_symop_operation_xyz
  'x, y, z'

loop_
  _atom_site_type_symbol
  _atom_site_label
  _atom_site_symmetry_multiplicity
  _atom_site_fract_x
  _atom_site_fract_y
  _atom_site_fract_z
  _atom_site_occupancy
  H   H1        1.0  0.41251203417778015  0.44007909297943115  0.7923285961151123  1.0000
  Rh  Rh1       1.0  0.5935195684432983  0.09762662649154663  0.07160405069589615  1.0000
  Sb  Sb1       1.0  0.07155172526836395  0.5566625595092773  0.7325546741485596  1.0000
  Sc  Sc1       1.0  0.9353305101394653  0.9166218638420105  0.6038476228713989  1.0000
  Si  Si1       1.0  0.5442249774932861  0.5928463935852051  0.5375299453735352  1.0000
  Si  Si2       1.0  0.9040426015853882  0.07486484199762344  0.8485649824142456  1.0000
  Si  Si3       1.0  0.7318662405014038  0.18549616634845734  0.3335321545600891  1.0000
  Si  Si4       1.0  0.09381744265556335  0.026523664593696594  0.0532183013856411  1.0000
  Si  Si5       1.0  0.2520926594734192  0.5176377892494202  0.3559962213039398  1.0000
  Tb  Tb1       1.0  0.43710824847221375  0.31187307834625244  0.8514015674591064  1.0000
  Tb  Tb2       1.0  0.7122867703437805  0.6725603342056274  0.6411957740783691  1.0000
