data_image0
_chemical_formula_structural       Re2RhSbSi4Tb3
_chemical_formula_sum              "Re2 Rh1 Sb1 Si4 Tb3"
_cell_length_a       5.511826133264937
_cell_length_b       5.803004710382362
_cell_length_c       8.408685684204102
_cell_angle_alpha    75.10760982680327
_cell_angle_beta     70.37012418741773
_cell_angle_gamma    60.220600934820425

_space_group_name_H-M_alt    "P 1"
_space_group_IT_number       1

loop_
  _space_group_symop_operation_xyz
  'x, y, z'

loop_
  _atom_site_type_symbol
  _atom_site_label
  _atom_site_symmetry_multiplicity
  _atom_site_fract_x
  _atom_site_fract_y
  _atom_site_fract_z
  _atom_site_occupancy
  Re  Re1       1.0  0.91302090883255  0.8753675818443298  0.16159462928771973  1.0000
  Re  Re2       1.0  0.46716415882110596  0.11354966461658478  0.8078755140304565  1.0000
  Rh  Rh1       1.0  0.6347754597663879  0.6121683120727539  0.4346613883972168  1.0000
  Sb  Sb1       1.0  0.5038123726844788  0.6725818514823914  0.22761711478233337  1.0000
  Si  Si1       1.0  0.3808290362358093  0.343732625246048  0.07674761861562729  1.0000
  Si  Si2       1.0  0.9936923980712891  0.5007383227348328  0.09686705470085144  1.0000
  Si  Si3       1.0  0.007911433465778828  0.17446285486221313  0.30141210556030273  1.0000
  Si  Si4       1.0  0.572818398475647  0.027686048299074173  0.3451883494853973  1.0000
  Tb  Tb1       1.0  0.48688414692878723  0.036685872822999954  0.03192980587482454  1.0000
  Tb  Tb2       1.0  0.0540313646197319  0.03943729028105736  0.40804848074913025  1.0000
  Tb  Tb3       1.0  0.520641565322876  0.11557204276323318  0.6824309825897217  1.0000
