data_image0
_chemical_formula_structural       BrRh2Si7Tb
_chemical_formula_sum              "Br1 Rh2 Si7 Tb1"
_cell_length_a       5.32504529520817
_cell_length_b       5.861096251420202
_cell_length_c       6.954904556274414
_cell_angle_alpha    77.4817081206753
_cell_angle_beta     67.12542128479825
_cell_angle_gamma    61.4643540949766

_space_group_name_H-M_alt    "P 1"
_space_group_IT_number       1

loop_
  _space_group_symop_operation_xyz
  'x, y, z'

loop_
  _atom_site_type_symbol
  _atom_site_label
  _atom_site_symmetry_multiplicity
  _atom_site_fract_x
  _atom_site_fract_y
  _atom_site_fract_z
  _atom_site_occupancy
  Br  Br1       1.0  0.027064215391874313  0.8918465375900269  0.5657567977905273  1.0000
  Rh  Rh1       1.0  0.08815394341945648  0.7961308360099792  0.11431005597114563  1.0000
  Rh  Rh2       1.0  0.008257404901087284  0.9073085188865662  0.4051769971847534  1.0000
  Si  Si1       1.0  0.6267003417015076  0.41944169998168945  0.8134021759033203  1.0000
  Si  Si2       1.0  0.09717802703380585  0.9164231419563293  0.15032650530338287  1.0000
  Si  Si3       1.0  0.5322209000587463  0.893356442451477  0.05773867666721344  1.0000
  Si  Si4       1.0  0.5821988582611084  0.8906437754631042  0.5650501251220703  1.0000
  Si  Si5       1.0  0.4952261745929718  0.8821309804916382  0.3698216676712036  1.0000
  Si  Si6       1.0  0.04048338159918785  0.7513360977172852  0.5708575248718262  1.0000
  Si  Si7       1.0  0.07922026515007019  0.9264770746231079  0.8967055678367615  1.0000
  Tb  Tb1       1.0  0.2879985570907593  0.2763362228870392  0.37793460488319397  1.0000
