data_image0
_chemical_formula_structural       ClSi7Tb3
_chemical_formula_sum              "Cl1 Si7 Tb3"
_cell_length_a       5.2270852384122195
_cell_length_b       5.987933984258284
_cell_length_c       6.786308765411377
_cell_angle_alpha    111.34865168008947
_cell_angle_beta     99.91673103287165
_cell_angle_gamma    110.34439323454318

_space_group_name_H-M_alt    "P 1"
_space_group_IT_number       1

loop_
  _space_group_symop_operation_xyz
  'x, y, z'

loop_
  _atom_site_type_symbol
  _atom_site_label
  _atom_site_symmetry_multiplicity
  _atom_site_fract_x
  _atom_site_fract_y
  _atom_site_fract_z
  _atom_site_occupancy
  Cl  Cl1       1.0  0.40836548805236816  0.8009971380233765  0.1664034873247146  1.0000
  Si  Si1       1.0  0.9454320073127747  0.8445420265197754  0.4937000572681427  1.0000
  Si  Si2       1.0  0.15385915338993073  0.16768339276313782  0.03927774727344513  1.0000
  Si  Si3       1.0  0.9575446248054504  0.6305705308914185  0.1494729071855545  1.0000
  Si  Si4       1.0  0.6725059151649475  0.5181789398193359  0.8381699919700623  1.0000
  Si  Si5       1.0  0.44552144408226013  0.05459186062216759  0.5024892091751099  1.0000
  Si  Si6       1.0  0.8910601735115051  0.7395994067192078  0.10247494280338287  1.0000
  Si  Si7       1.0  0.6771748661994934  0.12864410877227783  0.10047072172164917  1.0000
  Tb  Tb1       1.0  0.42181023955345154  0.26658686995506287  0.6598963737487793  1.0000
  Tb  Tb2       1.0  0.08943521231412888  0.561917245388031  0.7391074895858765  1.0000
  Tb  Tb3       1.0  0.5698884129524231  0.020412709563970566  0.3075970709323883  1.0000
