data_image0
_chemical_formula_structural       HRhSb2Si6Tb
_chemical_formula_sum              "H1 Rh1 Sb2 Si6 Tb1"
_cell_length_a       5.421000274986184
_cell_length_b       5.855770753466859
_cell_length_c       7.295882225036621
_cell_angle_alpha    78.00773693277466
_cell_angle_beta     69.34233591296389
_cell_angle_gamma    62.095486435336724

_space_group_name_H-M_alt    "P 1"
_space_group_IT_number       1

loop_
  _space_group_symop_operation_xyz
  'x, y, z'

loop_
  _atom_site_type_symbol
  _atom_site_label
  _atom_site_symmetry_multiplicity
  _atom_site_fract_x
  _atom_site_fract_y
  _atom_site_fract_z
  _atom_site_occupancy
  H   H1        1.0  0.6217261552810669  0.7234675884246826  0.8126822113990784  1.0000
  Rh  Rh1       1.0  0.414573073387146  0.24982118606567383  0.4963009059429168  1.0000
  Sb  Sb1       1.0  0.21889905631542206  0.266824871301651  0.012148461304605007  1.0000
  Sb  Sb2       1.0  0.8855140805244446  0.6587381958961487  0.05059163644909859  1.0000
  Si  Si1       1.0  0.7133723497390747  0.27038130164146423  0.0029241996817290475  1.0000
  Si  Si2       1.0  0.22334738075733185  0.2935892641544342  0.022293493151664717  1.0000
  Si  Si3       1.0  0.9785072803497316  0.3996128737926483  0.746606707572937  1.0000
  Si  Si4       1.0  0.48438578844070435  0.5318089723587036  0.6005863547325134  1.0000
  Si  Si5       1.0  0.020812343806028366  0.3370087444782257  0.22868020832538602  1.0000
  Si  Si6       1.0  0.3002188801765442  0.8149760961532593  0.17780297994613647  1.0000
  Tb  Tb1       1.0  0.5806056261062622  0.9129967093467712  0.352242112159729  1.0000
