data_image0
_chemical_formula_structural       Au4Be3Cu2
_chemical_formula_sum              "Au4 Be3 Cu2"
_cell_length_a       4.775600551160576
_cell_length_b       4.775856998916561
_cell_length_c       5.605559349060059
_cell_angle_alpha    89.92699482939106
_cell_angle_beta     90.06399511162905
_cell_angle_gamma    89.83429801121954

_space_group_name_H-M_alt    "P 1"
_space_group_IT_number       1

loop_
  _space_group_symop_operation_xyz
  'x, y, z'

loop_
  _atom_site_type_symbol
  _atom_site_label
  _atom_site_symmetry_multiplicity
  _atom_site_fract_x
  _atom_site_fract_y
  _atom_site_fract_z
  _atom_site_occupancy
  Au  Au1       1.0  0.3382917642593384  0.8491045832633972  0.12447840720415115  1.0000
  Au  Au2       1.0  0.4310675859451294  0.7158414721488953  0.6081825494766235  1.0000
  Au  Au3       1.0  0.8670555353164673  0.8893661499023438  0.8672981858253478  1.0000
  Au  Au4       1.0  0.6641237139701843  0.1723230630159378  0.3915514349937439  1.0000
  Be  Be1       1.0  0.6526869535446167  0.4949806034564972  0.09969975799322128  1.0000
  Be  Be2       1.0  0.928200364112854  0.7052085995674133  0.37616267800331116  1.0000
  Be  Be3       1.0  0.43849602341651917  0.2118576616048813  0.8647738099098206  1.0000
  Cu  Cu1       1.0  0.08431489020586014  0.34570151567459106  0.6336541771888734  1.0000
  Cu  Cu2       1.0  0.1033392995595932  0.34937530755996704  0.1238984242081642  1.0000
