data_image0
_chemical_formula_structural       AuBe3CuEuGeScTe
_chemical_formula_sum              "Au1 Be3 Cu1 Eu1 Ge1 Sc1 Te1"
_cell_length_a       6.013869249709382
_cell_length_b       5.9793067070250485
_cell_length_c       5.993751049041748
_cell_angle_alpha    65.49503955201999
_cell_angle_beta     65.63460413379246
_cell_angle_gamma    65.32192726007031

_space_group_name_H-M_alt    "P 1"
_space_group_IT_number       1

loop_
  _space_group_symop_operation_xyz
  'x, y, z'

loop_
  _atom_site_type_symbol
  _atom_site_label
  _atom_site_symmetry_multiplicity
  _atom_site_fract_x
  _atom_site_fract_y
  _atom_site_fract_z
  _atom_site_occupancy
  Au  Au1       1.0  0.03275025263428688  0.36390215158462524  0.9619743824005127  1.0000
  Be  Be1       1.0  0.4893316328525543  0.9206440448760986  0.9221909642219543  1.0000
  Be  Be2       1.0  0.9707678556442261  0.9152840971946716  0.9129880666732788  1.0000
  Be  Be3       1.0  0.7325530648231506  0.669386625289917  0.14602544903755185  1.0000
  Cu  Cu1       1.0  0.626693844795227  0.08433852344751358  0.20024220645427704  1.0000
  Eu  Eu1       1.0  0.599063515663147  0.5128051042556763  0.6344749331474304  1.0000
  Ge  Ge1       1.0  0.25862106680870056  0.13755875825881958  0.6421176791191101  1.0000
  Sc  Sc1       1.0  0.2567259669303894  0.565949559211731  0.21009506285190582  1.0000
  Te  Te1       1.0  0.9823071956634521  0.9214335083961487  0.4594910442829132  1.0000
