data_image0
_chemical_formula_structural       DyMgPtSbTi2Tl
_chemical_formula_sum              "Dy1 Mg1 Pt1 Sb1 Ti2 Tl1"
_cell_length_a       5.072478273058291
_cell_length_b       6.3484851118829155
_cell_length_c       6.53122615814209
_cell_angle_alpha    123.31444860333228
_cell_angle_beta     88.2167339132452
_cell_angle_gamma    87.97836642746248

_space_group_name_H-M_alt    "P 1"
_space_group_IT_number       1

loop_
  _space_group_symop_operation_xyz
  'x, y, z'

loop_
  _atom_site_type_symbol
  _atom_site_label
  _atom_site_symmetry_multiplicity
  _atom_site_fract_x
  _atom_site_fract_y
  _atom_site_fract_z
  _atom_site_occupancy
  Dy  Dy1       1.0  0.04179283231496811  0.9326525926589966  0.3977421522140503  1.0000
  Mg  Mg1       1.0  0.5283487439155579  0.752661406993866  0.4453853368759155  1.0000
  Pt  Pt1       1.0  0.029294820502400398  0.8023947477340698  0.6140068769454956  1.0000
  Sb  Sb1       1.0  0.5255897045135498  0.10345899313688278  0.13184374570846558  1.0000
  Ti  Ti1       1.0  0.04989424720406532  0.6021460294723511  0.182984009385109  1.0000
  Ti  Ti2       1.0  0.047504670917987823  0.7303670048713684  0.20869295299053192  1.0000
  Tl  Tl1       1.0  0.5306498408317566  0.8440335392951965  0.15238860249519348  1.0000
