data_image0
_chemical_formula_structural       IPdReTi5Zn
_chemical_formula_sum              "I1 Pd1 Re1 Ti5 Zn1"
_cell_length_a       5.413952909530852
_cell_length_b       5.0434655827244885
_cell_length_c       6.346072673797607
_cell_angle_alpha    84.30227255649555
_cell_angle_beta     81.02856021365038
_cell_angle_gamma    79.79652246804939

_space_group_name_H-M_alt    "P 1"
_space_group_IT_number       1

loop_
  _space_group_symop_operation_xyz
  'x, y, z'

loop_
  _atom_site_type_symbol
  _atom_site_label
  _atom_site_symmetry_multiplicity
  _atom_site_fract_x
  _atom_site_fract_y
  _atom_site_fract_z
  _atom_site_occupancy
  I   I1        1.0  0.9355177283287048  0.7164365649223328  0.5115334391593933  1.0000
  Pd  Pd1       1.0  0.45649799704551697  0.7669668197631836  0.9196730852127075  1.0000
  Re  Re1       1.0  0.4383305013179779  0.10875097662210464  0.8570117354393005  1.0000
  Ti  Ti1       1.0  0.9341868162155151  0.6736268997192383  0.426277756690979  1.0000
  Ti  Ti2       1.0  0.9639703035354614  0.1954113095998764  0.015806492418050766  1.0000
  Ti  Ti3       1.0  0.9680408835411072  0.7722226977348328  0.8041512966156006  1.0000
  Ti  Ti4       1.0  0.9639004468917847  0.25072231888771057  0.11793617159128189  1.0000
  Ti  Ti5       1.0  0.698225200176239  0.006722469814121723  0.778431236743927  1.0000
  Zn  Zn1       1.0  0.4731127917766571  0.40158697962760925  0.472573846578598  1.0000
