data_image0
_chemical_formula_structural       Pd2Ti7
_chemical_formula_sum              "Pd2 Ti7"
_cell_length_a       5.474258694236953
_cell_length_b       4.3031084785914695
_cell_length_c       5.791683197021484
_cell_angle_alpha    108.16802984048857
_cell_angle_beta     101.5348463659102
_cell_angle_gamma    95.83566350894772

_space_group_name_H-M_alt    "P 1"
_space_group_IT_number       1

loop_
  _space_group_symop_operation_xyz
  'x, y, z'

loop_
  _atom_site_type_symbol
  _atom_site_label
  _atom_site_symmetry_multiplicity
  _atom_site_fract_x
  _atom_site_fract_y
  _atom_site_fract_z
  _atom_site_occupancy
  Pd  Pd1       1.0  0.3351631462574005  0.20172835886478424  0.6126762628555298  1.0000
  Pd  Pd2       1.0  0.8339666724205018  0.1581704169511795  0.12008718401193617  1.0000
  Ti  Ti1       1.0  0.8451223969459535  0.8948840498924255  0.48969832062721247  1.0000
  Ti  Ti2       1.0  0.33722156286239624  0.9652357697486877  0.38966426253318787  1.0000
  Ti  Ti3       1.0  0.8404950499534608  0.907807469367981  0.6847420930862427  1.0000
  Ti  Ti4       1.0  0.3378258943557739  0.557490885257721  0.5000700354576111  1.0000
  Ti  Ti5       1.0  0.3290840983390808  0.8795562982559204  0.3049646019935608  1.0000
  Ti  Ti6       1.0  0.8380956649780275  0.20454727113246918  0.5360174179077148  1.0000
  Ti  Ti7       1.0  0.8473941683769227  0.2606493830680847  0.7963247895240784  1.0000
