data_image0
_chemical_formula_structural       IIrSbTi5Zr
_chemical_formula_sum              "I1 Ir1 Sb1 Ti5 Zr1"
_cell_length_a       5.90887240908445
_cell_length_b       5.783123129214971
_cell_length_c       8.349239349365234
_cell_angle_alpha    73.74974029602443
_cell_angle_beta     69.14005560409338
_cell_angle_gamma    59.60800827628016

_space_group_name_H-M_alt    "P 1"
_space_group_IT_number       1

loop_
  _space_group_symop_operation_xyz
  'x, y, z'

loop_
  _atom_site_type_symbol
  _atom_site_label
  _atom_site_symmetry_multiplicity
  _atom_site_fract_x
  _atom_site_fract_y
  _atom_site_fract_z
  _atom_site_occupancy
  I   I1        1.0  0.549349308013916  0.08665943145751953  0.7273690700531006  1.0000
  Ir  Ir1       1.0  0.13565047085285187  0.6768633127212524  0.18104322254657745  1.0000
  Sb  Sb1       1.0  0.7176811099052429  0.2182653844356537  0.9241356253623962  1.0000
  Ti  Ti1       1.0  0.2134481817483902  0.8548359870910645  0.8865181803703308  1.0000
  Ti  Ti2       1.0  0.2137877643108368  0.9040898680686951  0.9468163251876831  1.0000
  Ti  Ti3       1.0  0.2091713845729828  0.8059885501861572  0.43367427587509155  1.0000
  Ti  Ti4       1.0  0.05577556788921356  0.5789049863815308  0.7621917128562927  1.0000
  Ti  Ti5       1.0  0.7081418037414551  0.7071338891983032  0.4277358949184418  1.0000
  Zr  Zr1       1.0  0.5194664597511292  0.4980904757976532  0.5905174016952515  1.0000
