data_image0
_chemical_formula_structural       Pd2ReSbTi5
_chemical_formula_sum              "Pd2 Re1 Sb1 Ti5"
_cell_length_a       3.825568575483592
_cell_length_b       3.3556837465906373
_cell_length_c       5.915505409240723
_cell_angle_alpha    104.4480305286446
_cell_angle_beta     92.01529257066392
_cell_angle_gamma    92.25343541436904

_space_group_name_H-M_alt    "P 1"
_space_group_IT_number       1

loop_
  _space_group_symop_operation_xyz
  'x, y, z'

loop_
  _atom_site_type_symbol
  _atom_site_label
  _atom_site_symmetry_multiplicity
  _atom_site_fract_x
  _atom_site_fract_y
  _atom_site_fract_z
  _atom_site_occupancy
  Pd  Pd1       1.0  0.5475445985794067  0.13304513692855835  0.45506006479263306  1.0000
  Pd  Pd2       1.0  0.2109408676624298  0.5611392855644226  0.619742214679718  1.0000
  Re  Re1       1.0  0.9958089590072632  0.7798201441764832  0.6768214702606201  1.0000
  Sb  Sb1       1.0  0.5466547012329102  0.9151251912117004  0.8332054018974304  1.0000
  Ti  Ti1       1.0  0.21714632213115692  0.05742338299751282  0.13144607841968536  1.0000
  Ti  Ti2       1.0  0.5068538188934326  0.748973548412323  0.3267059624195099  1.0000
  Ti  Ti3       1.0  0.9629359245300293  0.4621178209781647  0.10038711875677109  1.0000
  Ti  Ti4       1.0  0.5178931951522827  0.5110125541687012  0.9976785778999329  1.0000
  Ti  Ti5       1.0  0.03149060532450676  0.21485233306884766  0.24278125166893005  1.0000
