data_image0
_chemical_formula_structural       BiFGeHgOsPrWY
_chemical_formula_sum              "Bi1 F1 Ge1 Hg1 Os1 Pr1 W1 Y1"
_cell_length_a       5.704717359818536
_cell_length_b       5.671433190940534
_cell_length_c       5.625394821166992
_cell_angle_alpha    98.61797612484456
_cell_angle_beta     98.34197919762936
_cell_angle_gamma    97.91773378483524

_space_group_name_H-M_alt    "P 1"
_space_group_IT_number       1

loop_
  _space_group_symop_operation_xyz
  'x, y, z'

loop_
  _atom_site_type_symbol
  _atom_site_label
  _atom_site_symmetry_multiplicity
  _atom_site_fract_x
  _atom_site_fract_y
  _atom_site_fract_z
  _atom_site_occupancy
  Bi  Bi1       1.0  0.8731179237365723  0.5727308392524719  0.9843987226486206  1.0000
  F   F1        1.0  0.17859047651290894  0.22394779324531555  0.3834119439125061  1.0000
  Ge  Ge1       1.0  0.3210481107234955  0.1816202849149704  0.8920824527740479  1.0000
  Hg  Hg1       1.0  0.7507216930389404  0.9612208008766174  0.5033810138702393  1.0000
  Os  Os1       1.0  0.33215561509132385  0.9001998901367188  0.21379871666431427  1.0000
  Pr  Pr1       1.0  0.263166218996048  0.7010498642921448  0.6882972121238708  1.0000
  W   W1        1.0  0.9238132238388062  0.07991452515125275  0.03264052793383596  1.0000
  Y   Y1        1.0  0.5858340263366699  0.4022984504699707  0.3413509428501129  1.0000
