data_image0
_chemical_formula_structural       Bi2Os3Y3
_chemical_formula_sum              "Bi2 Os3 Y3"
_cell_length_a       4.2583599307701565
_cell_length_b       6.0352201118134365
_cell_length_c       7.942790985107422
_cell_angle_alpha    74.3203220444239
_cell_angle_beta     74.35742307204963
_cell_angle_gamma    69.12179754825956

_space_group_name_H-M_alt    "P 1"
_space_group_IT_number       1

loop_
  _space_group_symop_operation_xyz
  'x, y, z'

loop_
  _atom_site_type_symbol
  _atom_site_label
  _atom_site_symmetry_multiplicity
  _atom_site_fract_x
  _atom_site_fract_y
  _atom_site_fract_z
  _atom_site_occupancy
  Bi  Bi1       1.0  0.3593829572200775  0.5964311361312866  0.1613103598356247  1.0000
  Bi  Bi2       1.0  0.8506157994270325  0.935775637626648  0.832223653793335  1.0000
  Os  Os1       1.0  0.5390033721923828  0.650134801864624  0.7606661319732666  1.0000
  Os  Os2       1.0  0.0994623675942421  0.7241472601890564  0.5286444425582886  1.0000
  Os  Os3       1.0  0.3556874692440033  0.12298091500997543  0.6079351902008057  1.0000
  Y   Y1        1.0  0.6031693816184998  0.9820238351821899  0.2828584611415863  1.0000
  Y   Y2        1.0  0.8109434247016907  0.3776929974555969  0.4733066260814667  1.0000
  Y   Y3        1.0  0.10840994119644165  0.32609477639198303  0.9331777095794678  1.0000
