data_image0
_chemical_formula_structural       As2Co4FO3
_chemical_formula_sum              "As2 Co4 F1 O3"
_cell_length_a       4.093147858438735
_cell_length_b       5.912712549751671
_cell_length_c       5.898279190063477
_cell_angle_alpha    120.76791849209506
_cell_angle_beta     90.88510419498525
_cell_angle_gamma    86.64219557895657

_space_group_name_H-M_alt    "P 1"
_space_group_IT_number       1

loop_
  _space_group_symop_operation_xyz
  'x, y, z'

loop_
  _atom_site_type_symbol
  _atom_site_label
  _atom_site_symmetry_multiplicity
  _atom_site_fract_x
  _atom_site_fract_y
  _atom_site_fract_z
  _atom_site_occupancy
  As  As1       1.0  0.5034967064857483  0.5275533199310303  0.2248168587684631  1.0000
  As  As2       1.0  0.026685699820518494  0.10658897459506989  0.9459752440452577  1.0000
  Co  Co1       1.0  0.19486701488494873  0.5615898370742798  0.415157437324524  1.0000
  Co  Co2       1.0  0.20716671645641327  0.7934595346450806  0.9770209193229676  1.0000
  Co  Co3       1.0  0.7346512675285339  0.34317848086357117  0.6064997911453247  1.0000
  Co  Co4       1.0  0.6874991655349731  0.0407089963555336  0.3820651769638062  1.0000
  F   F1        1.0  0.195596843957901  0.8154484629631042  0.620452046394348  1.0000
  O   O1        1.0  0.46236860752105713  0.10002200305461884  0.6646260023117065  1.0000
  O   O2        1.0  0.851860523223877  0.790793776512146  0.15672512352466578  1.0000
  O   O3        1.0  0.641385555267334  0.4805448651313782  0.9769354462623597  1.0000
