data_image0
_chemical_formula_structural       AsCo2O4PbV2
_chemical_formula_sum              "As1 Co2 O4 Pb1 V2"
_cell_length_a       4.429584239482314
_cell_length_b       5.5089078724624985
_cell_length_c       5.86002254486084
_cell_angle_alpha    120.2704410501356
_cell_angle_beta     92.66174919660527
_cell_angle_gamma    96.98278349640096

_space_group_name_H-M_alt    "P 1"
_space_group_IT_number       1

loop_
  _space_group_symop_operation_xyz
  'x, y, z'

loop_
  _atom_site_type_symbol
  _atom_site_label
  _atom_site_symmetry_multiplicity
  _atom_site_fract_x
  _atom_site_fract_y
  _atom_site_fract_z
  _atom_site_occupancy
  As  As1       1.0  0.5989640355110168  0.9193821549415588  0.4996676445007325  1.0000
  Co  Co1       1.0  0.38311251997947693  0.3957357704639435  0.8500396609306335  1.0000
  Co  Co2       1.0  0.9121525287628174  0.27596473693847656  0.5594722032546997  1.0000
  O   O1        1.0  0.052373405545949936  0.9099103212356567  0.8494529724121094  1.0000
  O   O2        1.0  0.5890234708786011  0.9554964900016785  0.12456348538398743  1.0000
  O   O3        1.0  0.9144546389579773  0.6630404591560364  0.32609251141548157  1.0000
  O   O4        1.0  0.9344632625579833  0.43686461448669434  0.40652409195899963  1.0000
  Pb  Pb1       1.0  0.6040358543395996  0.40750834345817566  0.20492978394031525  1.0000
  V   V1        1.0  0.14450949430465698  0.9331093430519104  0.2218237966299057  1.0000
  V   V2        1.0  0.28173592686653137  0.9480555057525635  0.475096195936203  1.0000
