data_image0
_chemical_formula_structural       As3BaCo2GaO3
_chemical_formula_sum              "As3 Ba1 Co2 Ga1 O3"
_cell_length_a       4.272297932504398
_cell_length_b       6.319666309285089
_cell_length_c       6.4268622398376465
_cell_angle_alpha    123.68205823921619
_cell_angle_beta     93.18057302095643
_cell_angle_gamma    88.28814885164446

_space_group_name_H-M_alt    "P 1"
_space_group_IT_number       1

loop_
  _space_group_symop_operation_xyz
  'x, y, z'

loop_
  _atom_site_type_symbol
  _atom_site_label
  _atom_site_symmetry_multiplicity
  _atom_site_fract_x
  _atom_site_fract_y
  _atom_site_fract_z
  _atom_site_occupancy
  As  As1       1.0  0.8651596903800964  0.17310358583927155  0.3188636302947998  1.0000
  As  As2       1.0  0.3596353828907013  0.2522217929363251  0.09208308905363083  1.0000
  As  As3       1.0  0.3461313545703888  0.8110482692718506  0.5404025912284851  1.0000
  Ba  Ba1       1.0  0.8551737070083618  0.5424854159355164  0.24751585721969604  1.0000
  Co  Co1       1.0  0.8642354607582092  0.20036344230175018  0.5826742649078369  1.0000
  Co  Co2       1.0  0.38436886668205267  0.46955513954162603  0.5334808230400085  1.0000
  Ga  Ga1       1.0  0.855242133140564  0.545535683631897  0.6011393666267395  1.0000
  O   O1        1.0  0.3492349088191986  0.818439245223999  0.025650642812252114  1.0000
  O   O2        1.0  0.6050193309783936  0.2539762556552887  0.5998913049697876  1.0000
  O   O3        1.0  0.10752610862255096  0.16064748167991638  0.862104594707489  1.0000
