data_image0
_chemical_formula_structural       As3Co2CsGaO3
_chemical_formula_sum              "As3 Co2 Cs1 Ga1 O3"
_cell_length_a       4.014243582021627
_cell_length_b       6.671818553156427
_cell_length_c       6.785281181335449
_cell_angle_alpha    120.06814930503758
_cell_angle_beta     89.00830918141847
_cell_angle_gamma    89.55508386702648

_space_group_name_H-M_alt    "P 1"
_space_group_IT_number       1

loop_
  _space_group_symop_operation_xyz
  'x, y, z'

loop_
  _atom_site_type_symbol
  _atom_site_label
  _atom_site_symmetry_multiplicity
  _atom_site_fract_x
  _atom_site_fract_y
  _atom_site_fract_z
  _atom_site_occupancy
  As  As1       1.0  0.9436182379722595  0.9754711985588075  0.42361879348754894  1.0000
  As  As2       1.0  0.44477319717407227  0.29020440578460693  0.08267905563116076  1.0000
  As  As3       1.0  0.45400503277778625  0.9177361130714418  0.07612422108650208  1.0000
  Co  Co1       1.0  0.9463066458702087  0.6468393802642822  0.49972730875015264  1.0000
  Co  Co2       1.0  0.45597386360168457  0.7842647433280945  0.8084825277328492  1.0000
  Cs  Cs1       1.0  0.4467468559741974  0.3192897140979767  0.0995734035968781  1.0000
  Ga  Ga1       1.0  0.9418973326683044  0.35958895087242126  0.9229600429534913  1.0000
  O   O1        1.0  0.4470093548297882  0.6589959859848022  0.6075191497802734  1.0000
  O   O2        1.0  0.9511332511901855  0.9442102313041688  0.5882254242897034  1.0000
  O   O3        1.0  0.9410337805747986  0.6348625421524048  0.4681565761566163  1.0000
