data_image0
_chemical_formula_structural       As5O5
_chemical_formula_sum              "As5 O5"
_cell_length_a       4.438358436583615
_cell_length_b       6.085246561204181
_cell_length_c       6.031013488769531
_cell_angle_alpha    131.18624319220189
_cell_angle_beta     87.97508379262571
_cell_angle_gamma    89.97097012235126

_space_group_name_H-M_alt    "P 1"
_space_group_IT_number       1

loop_
  _space_group_symop_operation_xyz
  'x, y, z'

loop_
  _atom_site_type_symbol
  _atom_site_label
  _atom_site_symmetry_multiplicity
  _atom_site_fract_x
  _atom_site_fract_y
  _atom_site_fract_z
  _atom_site_occupancy
  As  As1       1.0  0.7871310114860535  0.7958325743675232  0.7094715237617493  1.0000
  As  As2       1.0  0.27812460064888  0.09557114541530609  0.346871018409729  1.0000
  As  As3       1.0  0.8029459714889526  0.5948358774185181  0.03966640681028359  1.0000
  As  As4       1.0  0.2835550606250763  0.09272796660661697  0.3811548054218292  1.0000
  As  As5       1.0  0.2844560742378235  0.3690131604671478  0.305877149105072  1.0000
  O   O1        1.0  0.2914513945579529  0.9132747054100037  0.6557636857032776  1.0000
  O   O2        1.0  0.2972338795661926  0.10296360403299332  0.9368425011634827  1.0000
  O   O3        1.0  0.7954169511795044  0.8786757588386536  0.9883692264556884  1.0000
  O   O4        1.0  0.7618832588195801  0.41196489334106445  0.8650228381156921  1.0000
  O   O5        1.0  0.052950795739889145  0.20860835909843445  0.35681474208831787  1.0000
