data_image0
_chemical_formula_structural       Al2As4O4
_chemical_formula_sum              "Al2 As4 O4"
_cell_length_a       4.7385777354664365
_cell_length_b       6.532122633195885
_cell_length_c       6.270999908447266
_cell_angle_alpha    122.76709734795105
_cell_angle_beta     88.8690766539375
_cell_angle_gamma    91.9872692962559

_space_group_name_H-M_alt    "P 1"
_space_group_IT_number       1

loop_
  _space_group_symop_operation_xyz
  'x, y, z'

loop_
  _atom_site_type_symbol
  _atom_site_label
  _atom_site_symmetry_multiplicity
  _atom_site_fract_x
  _atom_site_fract_y
  _atom_site_fract_z
  _atom_site_occupancy
  Al  Al1       1.0  0.6186826229095459  0.25024354457855225  0.7527021169662476  1.0000
  Al  Al2       1.0  0.9299187064170837  0.7500976324081421  0.8853886723518372  1.0000
  As  As1       1.0  0.40619269013404846  0.4298356771469116  0.030192617326974834  1.0000
  As  As2       1.0  0.14802823960781097  0.16214679181575775  0.662556529045105  1.0000
  As  As3       1.0  0.9056883454322815  0.42785805463790894  0.3029567301273346  1.0000
  As  As4       1.0  0.42320749163627625  0.9203615188598633  0.23921136558055878  1.0000
  O   O1        1.0  0.5710745453834534  0.8498549461364746  0.23042894899845123  1.0000
  O   O2        1.0  0.57414710521698  0.8093169331550598  0.7278679013252258  1.0000
  O   O3        1.0  0.10662421584129333  0.5638604760169983  0.8828778862953186  1.0000
  O   O4        1.0  0.11971031129360199  0.05265634134411812  0.18944476544857025  1.0000
