data_image0
_chemical_formula_structural       K2OV6
_chemical_formula_sum              "K2 O1 V6"
_cell_length_a       5.149630049774513
_cell_length_b       6.387285946927927
_cell_length_c       5.703084468841553
_cell_angle_alpha    122.40554698075145
_cell_angle_beta     103.39208830577209
_cell_angle_gamma    105.80790572989943

_space_group_name_H-M_alt    "P 1"
_space_group_IT_number       1

loop_
  _space_group_symop_operation_xyz
  'x, y, z'

loop_
  _atom_site_type_symbol
  _atom_site_label
  _atom_site_symmetry_multiplicity
  _atom_site_fract_x
  _atom_site_fract_y
  _atom_site_fract_z
  _atom_site_occupancy
  K   K1        1.0  0.7102100849151611  0.26858657598495483  0.22864148020744324  1.0000
  K   K2        1.0  0.7129423022270203  0.20834164321422577  0.8073174953460693  1.0000
  O   O1        1.0  0.15289650857448578  0.6883825063705444  0.5277270674705505  1.0000
  V   V1        1.0  0.7095465064048767  0.04734053090214729  0.7380251884460449  1.0000
  V   V2        1.0  0.19710057973861694  0.7146159410476685  0.8878507614135742  1.0000
  V   V3        1.0  0.21058127284049988  0.2518499195575714  0.560661256313324  1.0000
  V   V4        1.0  0.20620641112327587  0.930696189403534  0.4545747935771942  1.0000
  V   V5        1.0  0.7055712938308717  0.914797067642212  0.8954867124557495  1.0000
  V   V6        1.0  0.7081595063209534  0.8754065036773682  0.2448347508907318  1.0000
