data_image0
_chemical_formula_structural       KV7Zn
_chemical_formula_sum              "K1 V7 Zn1"
_cell_length_a       4.313058616347201
_cell_length_b       5.4472411081993934
_cell_length_c       6.13664436340332
_cell_angle_alpha    114.35017857548885
_cell_angle_beta     92.82000809951943
_cell_angle_gamma    103.71448353711176

_space_group_name_H-M_alt    "P 1"
_space_group_IT_number       1

loop_
  _space_group_symop_operation_xyz
  'x, y, z'

loop_
  _atom_site_type_symbol
  _atom_site_label
  _atom_site_symmetry_multiplicity
  _atom_site_fract_x
  _atom_site_fract_y
  _atom_site_fract_z
  _atom_site_occupancy
  K   K1        1.0  0.8232889175415039  0.27709582448005676  0.41283220052719116  1.0000
  V   V1        1.0  0.4018736183643341  0.6165334582328796  0.20607128739356995  1.0000
  V   V2        1.0  0.849277138710022  0.07070942223072052  0.4909049868583679  1.0000
  V   V3        1.0  0.8170777559280396  0.33160334825515747  0.18063150346279144  1.0000
  V   V4        1.0  0.010774774476885796  0.9606713652610779  0.9150893688201904  1.0000
  V   V5        1.0  0.5080168843269348  0.9309160709381104  0.3644824922084809  1.0000
  V   V6        1.0  0.3519626259803772  0.2683366537094116  0.8049178123474121  1.0000
  V   V7        1.0  0.8293843865394592  0.8224949836730957  0.44830444455146795  1.0000
  Zn  Zn1       1.0  0.33035099506378174  0.1623968780040741  0.3880137503147125  1.0000
