data_image0
_chemical_formula_structural       K2V7
_chemical_formula_sum              "K2 V7"
_cell_length_a       3.9398917882946543
_cell_length_b       6.072361599966453
_cell_length_c       4.889880180358887
_cell_angle_alpha    108.19265610787335
_cell_angle_beta     99.59338523705347
_cell_angle_gamma    105.00075095905896

_space_group_name_H-M_alt    "P 1"
_space_group_IT_number       1

loop_
  _space_group_symop_operation_xyz
  'x, y, z'

loop_
  _atom_site_type_symbol
  _atom_site_label
  _atom_site_symmetry_multiplicity
  _atom_site_fract_x
  _atom_site_fract_y
  _atom_site_fract_z
  _atom_site_occupancy
  K   K1        1.0  0.1505337357521057  0.8207846283912659  0.1476527601480484  1.0000
  K   K2        1.0  0.6525219678878784  0.28059643507003784  0.968022882938385  1.0000
  V   V1        1.0  0.18274694681167608  0.9815438389778138  0.9200968146324158  1.0000
  V   V2        1.0  0.6449743509292603  0.14196202158927917  0.667589545249939  1.0000
  V   V3        1.0  0.1282912790775299  0.6212260723114014  0.5512889623641968  1.0000
  V   V4        1.0  0.42653024196624756  0.18045781552791595  0.2305818647146225  1.0000
  V   V5        1.0  0.9732016324996948  0.2412446439266205  0.4087306559085846  1.0000
  V   V6        1.0  0.6512400507926941  0.1748877465724945  0.5073765516281128  1.0000
  V   V7        1.0  0.07156085222959518  0.01634599268436432  0.21642611920833588  1.0000
