data_image0
_chemical_formula_structural       IV8
_chemical_formula_sum              "I1 V8"
_cell_length_a       5.347220126633124
_cell_length_b       6.091257299596119
_cell_length_c       6.23473596572876
_cell_angle_alpha    90.22484349835878
_cell_angle_beta     87.53489135704963
_cell_angle_gamma    90.70042848812977

_space_group_name_H-M_alt    "P 1"
_space_group_IT_number       1

loop_
  _space_group_symop_operation_xyz
  'x, y, z'

loop_
  _atom_site_type_symbol
  _atom_site_label
  _atom_site_symmetry_multiplicity
  _atom_site_fract_x
  _atom_site_fract_y
  _atom_site_fract_z
  _atom_site_occupancy
  I   I1        1.0  0.14619149267673492  0.10275439918041228  0.823354959487915  1.0000
  V   V1        1.0  0.6686843633651733  0.28431063890457153  0.005293099675327535  1.0000
  V   V2        1.0  0.04263254627585411  0.4358580112457275  0.5785515904426574  1.0000
  V   V3        1.0  0.0875270813703537  0.44754990935325617  0.3162522912025451  1.0000
  V   V4        1.0  0.6741952896118164  0.37691891193389887  0.0065715443342924075  1.0000
  V   V5        1.0  0.6354463696479796  0.20844699442386624  0.21157900989055634  1.0000
  V   V6        1.0  0.6702196002006531  0.9829065799713134  0.9734305143356323  1.0000
  V   V7        1.0  0.14832249283790588  0.19794829189777371  0.4118076264858246  1.0000
  V   V8        1.0  0.3699586093425751  0.9198796153068541  0.1702471524477005  1.0000
