data_image0
_chemical_formula_structural       Co2HHoI2OPb6Pd
_chemical_formula_sum              "Co2 H1 Ho1 I2 O1 Pb6 Pd1"
_cell_length_a       8.477819020781713
_cell_length_b       8.288900190167727
_cell_length_c       8.543932914733887
_cell_angle_alpha    60.663895028570415
_cell_angle_beta     62.85668578541376
_cell_angle_gamma    61.63545836196057

_space_group_name_H-M_alt    "P 1"
_space_group_IT_number       1

loop_
  _space_group_symop_operation_xyz
  'x, y, z'

loop_
  _atom_site_type_symbol
  _atom_site_label
  _atom_site_symmetry_multiplicity
  _atom_site_fract_x
  _atom_site_fract_y
  _atom_site_fract_z
  _atom_site_occupancy
  Co  Co1       1.0  0.34795162081718445  0.2963405251502991  0.8274836540222168  1.0000
  Co  Co2       1.0  0.50713711977005  0.015934452414512634  0.990851879119873  1.0000
  H   H1        1.0  0.29099342226982117  0.19583968818187714  0.29215964674949646  1.0000
  Ho  Ho1       1.0  0.9665225744247437  0.5275346040725708  0.2491665482521057  1.0000
  I   I1        1.0  0.12630558013916016  0.09033132344484329  0.3141207695007324  1.0000
  I   I2        1.0  0.9978792667388916  0.347520112991333  0.8019226789474486  1.0000
  O   O1        1.0  0.3315236270427704  0.8433042168617249  0.8641246557235718  1.0000
  Pb  Pb1       1.0  0.1028343141078949  0.9245714545249939  0.525524377822876  1.0000
  Pb  Pb2       1.0  0.8231425285339355  0.8200253844261169  0.6090957522392272  1.0000
  Pb  Pb3       1.0  0.9117332696914673  0.5197067260742188  0.8750354051589965  1.0000
  Pb  Pb4       1.0  0.5374722480773926  0.32798388600349426  0.8152037262916565  1.0000
  Pb  Pb5       1.0  0.862727165222168  0.1811617612838745  0.9309237599372864  1.0000
  Pb  Pb6       1.0  0.2024458348751068  0.2738199234008789  0.9504706859588623  1.0000
  Pd  Pd1       1.0  0.8087055087089539  0.6048696041107178  0.4119459092617035  1.0000
