data_image0
_chemical_formula_structural       CoGa2HHoIO2Pb3TbZr2
_chemical_formula_sum              "Co1 Ga2 H1 Ho1 I1 O2 Pb3 Tb1 Zr2"
_cell_length_a       6.224616624872273
_cell_length_b       6.9784719369206885
_cell_length_c       8.86447811126709
_cell_angle_alpha    75.83736756082644
_cell_angle_beta     74.49854927647618
_cell_angle_gamma    69.11332331174785

_space_group_name_H-M_alt    "P 1"
_space_group_IT_number       1

loop_
  _space_group_symop_operation_xyz
  'x, y, z'

loop_
  _atom_site_type_symbol
  _atom_site_label
  _atom_site_symmetry_multiplicity
  _atom_site_fract_x
  _atom_site_fract_y
  _atom_site_fract_z
  _atom_site_occupancy
  Co  Co1       1.0  0.394233763217926  0.22774764895439148  0.5132645964622498  1.0000
  Ga  Ga1       1.0  0.6931606531143188  0.8085318803787231  0.2994711399078369  1.0000
  Ga  Ga2       1.0  0.8213028311729431  0.6514012813568115  0.68641197681427  1.0000
  H   H1        1.0  0.9081356525421143  0.9421705603599548  0.927222490310669  1.0000
  Ho  Ho1       1.0  0.39021506905555725  0.5778396129608154  0.5654093027114868  1.0000
  I   I1        1.0  0.34958794713020325  0.4717128276824951  0.9138373732566833  1.0000
  O   O1        1.0  0.8483852744102478  0.1456112116575241  0.9021866321563721  1.0000
  O   O2        1.0  0.3365902304649353  0.8353217840194702  0.5423069596290588  1.0000
  Pb  Pb1       1.0  0.9084211587905884  0.4981552064418793  0.07520696520805359  1.0000
  Pb  Pb2       1.0  0.880560576915741  0.34795722365379333  0.8500451445579529  1.0000
  Pb  Pb3       1.0  0.8956823348999023  0.7290288805961609  0.5065246820449829  1.0000
  Tb  Tb1       1.0  0.39760300517082214  0.2551928162574768  0.6026996970176697  1.0000
  Zr  Zr1       1.0  0.35422658920288086  0.014781199395656586  0.43870410323143005  1.0000
  Zr  Zr2       1.0  0.8906137347221375  0.7222046256065369  0.25892069935798645  1.0000
