data_image0
_chemical_formula_structural       GeHo4IMoO5Te2
_chemical_formula_sum              "Ge1 Ho4 I1 Mo1 O5 Te2"
_cell_length_a       5.896581092653789
_cell_length_b       8.2443912407554
_cell_length_c       8.830195426940918
_cell_angle_alpha    119.2134532663937
_cell_angle_beta     89.89483187464577
_cell_angle_gamma    89.18143308179873

_space_group_name_H-M_alt    "P 1"
_space_group_IT_number       1

loop_
  _space_group_symop_operation_xyz
  'x, y, z'

loop_
  _atom_site_type_symbol
  _atom_site_label
  _atom_site_symmetry_multiplicity
  _atom_site_fract_x
  _atom_site_fract_y
  _atom_site_fract_z
  _atom_site_occupancy
  Ge  Ge1       1.0  0.15980948507785797  0.1603914201259613  0.49104052782058716  1.0000
  Ho  Ho1       1.0  0.6564792394638062  0.4486783742904663  0.16936139762401575  1.0000
  Ho  Ho2       1.0  0.1557256132364273  0.7829619646072388  0.5293291211128235  1.0000
  Ho  Ho3       1.0  0.6537854075431824  0.8038351535797119  0.0649972259998321  1.0000
  Ho  Ho4       1.0  0.6599676609039307  0.9428843855857849  0.2419609278440475  1.0000
  I   I1        1.0  0.6572439670562744  0.07186119258403778  0.11430107802152634  1.0000
  Mo  Mo1       1.0  0.6557029485702515  0.29351791739463806  0.8432846069335936  1.0000
  O   O1        1.0  0.1654817759990692  0.11954604834318161  0.10838502645492554  1.0000
  O   O2        1.0  0.17825847864151  0.2332417219877243  0.6054149866104126  1.0000
  O   O3        1.0  0.8361490964889526  0.29800325632095337  0.6761966347694397  1.0000
  O   O4        1.0  0.6552169322967529  0.4947030246257782  0.14073285460472104  1.0000
  O   O5        1.0  0.1587275266647339  0.8067685961723328  0.9550818204879761  1.0000
  Te  Te1       1.0  0.15378500521183014  0.3669644892215729  0.9183110594749451  1.0000
  Te  Te2       1.0  0.15368299186229706  0.6595659255981445  0.25809273123741144  1.0000
