data_image0
_chemical_formula_structural       Ho8O5Te
_chemical_formula_sum              "Ho8 O5 Te1"
_cell_length_a       6.113381864903632
_cell_length_b       6.338012276455891
_cell_length_c       7.706512928009033
_cell_angle_alpha    89.09480635856457
_cell_angle_beta     84.44335507426611
_cell_angle_gamma    82.93289537491555

_space_group_name_H-M_alt    "P 1"
_space_group_IT_number       1

loop_
  _space_group_symop_operation_xyz
  'x, y, z'

loop_
  _atom_site_type_symbol
  _atom_site_label
  _atom_site_symmetry_multiplicity
  _atom_site_fract_x
  _atom_site_fract_y
  _atom_site_fract_z
  _atom_site_occupancy
  Ho  Ho1       1.0  0.3733499348163605  0.3059805929660797  0.11291281133890153  1.0000
  Ho  Ho2       1.0  0.3782583177089691  0.15718191862106323  0.22785863280296328  1.0000
  Ho  Ho3       1.0  0.8746644854545593  0.13297858834266663  0.5645607113838196  1.0000
  Ho  Ho4       1.0  0.8783458471298218  0.9089362025260926  0.30395638942718506  1.0000
  Ho  Ho5       1.0  0.8856168985366821  0.8566549420356752  0.7515032291412354  1.0000
  Ho  Ho6       1.0  0.37931910157203674  0.06138188764452935  0.1834116280078888  1.0000
  Ho  Ho7       1.0  0.3917100429534912  0.5898908972740173  0.6739808320999146  1.0000
  Ho  Ho8       1.0  0.37665843963623047  0.38318818807601934  0.538428008556366  1.0000
  O   O1        1.0  0.07857090234756468  0.9691798090934755  0.5181213021278382  1.0000
  O   O2        1.0  0.5112671256065369  0.5913779139518738  0.33889392018318176  1.0000
  O   O3        1.0  0.27336254715919495  0.5573515892028809  0.3228279650211334  1.0000
  O   O4        1.0  0.8965416550636292  0.1997061222791672  0.0326654054224491  1.0000
  O   O5        1.0  0.39672762155532837  0.5695809125900269  0.7686441540718079  1.0000
  Te  Te1       1.0  0.3794904947280884  0.4076852202415467  0.6797014474868774  1.0000
