data_image0
_chemical_formula_structural       CGa2HHo2O3Pb5
_chemical_formula_sum              "C1 Ga2 H1 Ho2 O3 Pb5"
_cell_length_a       8.040101000154886
_cell_length_b       8.484863099876163
_cell_length_c       8.938068389892578
_cell_angle_alpha    64.96859792245954
_cell_angle_beta     65.1879076006021
_cell_angle_gamma    61.00367015522312

_space_group_name_H-M_alt    "P 1"
_space_group_IT_number       1

loop_
  _space_group_symop_operation_xyz
  'x, y, z'

loop_
  _atom_site_type_symbol
  _atom_site_label
  _atom_site_symmetry_multiplicity
  _atom_site_fract_x
  _atom_site_fract_y
  _atom_site_fract_z
  _atom_site_occupancy
  C   C1        1.0  0.3951653838157654  0.17087432742118835  0.5564885139465332  1.0000
  Ga  Ga1       1.0  0.43039730191230774  0.33942893147468567  0.7236634492874146  1.0000
  Ga  Ga2       1.0  0.9629400968551636  0.4615837633609772  0.9464799761772156  1.0000
  H   H1        1.0  0.4321698546409607  0.08385276794433594  0.6304923892021179  1.0000
  Ho  Ho1       1.0  0.8921424150466919  0.32763174176216125  0.6525520086288452  1.0000
  Ho  Ho2       1.0  0.8996630907058716  0.34170132875442505  0.04559125006198883  1.0000
  O   O1        1.0  0.27675679326057434  0.009061887860298157  0.7778968214988708  1.0000
  O   O2        1.0  0.9149097204208374  0.8431553840637207  0.3294081389904022  1.0000
  O   O3        1.0  0.42577892541885376  0.8666989207267761  0.9528892636299133  1.0000
  Pb  Pb1       1.0  0.4001455307006836  0.3522559106349945  0.003407855285331607  1.0000
  Pb  Pb2       1.0  0.38612908124923706  0.1991312950849533  0.3617880642414093  1.0000
  Pb  Pb3       1.0  0.9432955980300903  0.7202711701393127  0.32334619760513306  1.0000
  Pb  Pb4       1.0  0.7059198617935181  0.6524324417114258  0.4424290657043457  1.0000
  Pb  Pb5       1.0  0.9198741316795349  0.26839813590049744  0.10334128141403198  1.0000
