data_image0
_chemical_formula_structural       HI4MoO5Pb3
_chemical_formula_sum              "H1 I4 Mo1 O5 Pb3"
_cell_length_a       6.487521468055484
_cell_length_b       6.90356213341803
_cell_length_c       8.268054962158203
_cell_angle_alpha    90.07794479222977
_cell_angle_beta     89.94791411643625
_cell_angle_gamma    100.75224282168412

_space_group_name_H-M_alt    "P 1"
_space_group_IT_number       1

loop_
  _space_group_symop_operation_xyz
  'x, y, z'

loop_
  _atom_site_type_symbol
  _atom_site_label
  _atom_site_symmetry_multiplicity
  _atom_site_fract_x
  _atom_site_fract_y
  _atom_site_fract_z
  _atom_site_occupancy
  H   H1        1.0  0.7753785848617554  0.5700226426124573  0.8011671304702759  1.0000
  I   I1        1.0  0.7827455401420593  0.5315253734588623  0.5180813074111938  1.0000
  I   I2        1.0  0.5094351768493652  0.8426837921142578  0.32060617208480835  1.0000
  I   I3        1.0  0.2766466438770294  0.9402115345001221  0.17882898449897766  1.0000
  I   I4        1.0  0.2772076725959778  0.37823519110679626  0.6047810912132263  1.0000
  Mo  Mo1       1.0  0.020281774923205376  0.7493420243263245  0.035512521862983704  1.0000
  O   O1        1.0  0.12729017436504364  0.823646068572998  0.8063636422157288  1.0000
  O   O2        1.0  0.7539803385734558  0.6250597238540649  0.2824101746082306  1.0000
  O   O3        1.0  0.31579744815826416  0.6934533715248108  0.8512241244316101  1.0000
  O   O4        1.0  0.8009700775146484  0.7169284224510193  0.8181341290473938  1.0000
  O   O5        1.0  0.8283053040504456  0.868613064289093  0.44803741574287415  1.0000
  Pb  Pb1       1.0  0.2607893645763397  0.5706486105918884  0.9082077145576477  1.0000
  Pb  Pb2       1.0  0.7730394005775452  0.9340479373931885  0.2318723201751709  1.0000
  Pb  Pb3       1.0  0.28193455934524536  0.5505958795547485  0.8498650193214417  1.0000
