data_image0
_chemical_formula_structural       OsP2U6
_chemical_formula_sum              "Os1 P2 U6"
_cell_length_a       4.388335617557255
_cell_length_b       5.266632992674566
_cell_length_c       5.480151176452637
_cell_angle_alpha    88.16193105384166
_cell_angle_beta     92.50948689629988
_cell_angle_gamma    93.71729679983025

_space_group_name_H-M_alt    "P 1"
_space_group_IT_number       1

loop_
  _space_group_symop_operation_xyz
  'x, y, z'

loop_
  _atom_site_type_symbol
  _atom_site_label
  _atom_site_symmetry_multiplicity
  _atom_site_fract_x
  _atom_site_fract_y
  _atom_site_fract_z
  _atom_site_occupancy
  Os  Os1       1.0  0.2939217686653137  0.43547749519348145  0.31720268726348877  1.0000
  P   P1        1.0  0.4432538151741028  0.13812626898288727  0.15668275952339172  1.0000
  P   P2        1.0  0.060723703354597085  0.2618349492549896  0.14051860570907593  1.0000
  U   U1        1.0  0.2970733940601349  0.48404112458229065  0.048209596425294876  1.0000
  U   U2        1.0  0.8309834003448486  0.07548115402460098  0.7683401107788086  1.0000
  U   U3        1.0  0.7928562760353088  0.3563404381275177  0.804486095905304  1.0000
  U   U4        1.0  0.7812609076499939  0.7629417777061462  0.387190580368042  1.0000
  U   U5        1.0  0.30455970764160156  0.2598368227481842  0.9375180602073669  1.0000
  U   U6        1.0  0.8096098899841309  0.8048354387283325  0.5908495783805847  1.0000
