data_image0
_chemical_formula_structural       BPrS4U3
_chemical_formula_sum              "B1 Pr1 S4 U3"
_cell_length_a       5.27332923029346
_cell_length_b       5.28053711402731
_cell_length_c       5.652055740356445
_cell_angle_alpha    119.35724251842669
_cell_angle_beta     123.04872128804325
_cell_angle_gamma    91.7881499239727

_space_group_name_H-M_alt    "P 1"
_space_group_IT_number       1

loop_
  _space_group_symop_operation_xyz
  'x, y, z'

loop_
  _atom_site_type_symbol
  _atom_site_label
  _atom_site_symmetry_multiplicity
  _atom_site_fract_x
  _atom_site_fract_y
  _atom_site_fract_z
  _atom_site_occupancy
  B   B1        1.0  0.3161814510822296  0.7638086676597595  0.25461149215698237  1.0000
  Pr  Pr1       1.0  0.48709315061569214  0.7978469729423523  0.6885499358177185  1.0000
  S   S1        1.0  0.2262442409992218  0.05664072558283806  0.637367308139801  1.0000
  S   S2        1.0  0.8260745406150818  0.6662468314170837  0.2577482759952545  1.0000
  S   S3        1.0  0.22412170469760895  0.007515875156968832  0.013948962092399599  1.0000
  S   S4        1.0  0.22273209691047668  0.8570346832275391  0.9714178442955018  1.0000
  U   U1        1.0  0.9844744801521301  0.4647783935070038  0.626282811164856  1.0000
  U   U2        1.0  0.5610538721084595  0.7559889554977417  0.38274702429771423  1.0000
  U   U3        1.0  0.885613203048706  0.19579671323299408  0.3516760468482971  1.0000
