data_image0
_chemical_formula_structural       CoS3U5
_chemical_formula_sum              "Co1 S3 U5"
_cell_length_a       5.533855609568712
_cell_length_b       5.535364705329631
_cell_length_c       6.412622928619385
_cell_angle_alpha    117.98914375366415
_cell_angle_beta     122.824536823678
_cell_angle_gamma    89.9288085667648

_space_group_name_H-M_alt    "P 1"
_space_group_IT_number       1

loop_
  _space_group_symop_operation_xyz
  'x, y, z'

loop_
  _atom_site_type_symbol
  _atom_site_label
  _atom_site_symmetry_multiplicity
  _atom_site_fract_x
  _atom_site_fract_y
  _atom_site_fract_z
  _atom_site_occupancy
  Co  Co1       1.0  0.6324496865272522  0.9911865592002869  0.497691035270691  1.0000
  S   S1        1.0  0.12487754225730896  0.1834719032049179  0.21589699387550354  1.0000
  S   S2        1.0  0.4498186409473419  0.07285962998867035  0.575068473815918  1.0000
  S   S3        1.0  0.6130656003952026  0.6374935507774353  0.6876756548881531  1.0000
  U   U1        1.0  0.35851263999938965  0.7820927500724792  0.9358901977539062  1.0000
  U   U2        1.0  0.8752679824829102  0.6520312428474426  0.3412676155567169  1.0000
  U   U3        1.0  0.11611253768205643  0.19195739924907684  0.48660808801651007  1.0000
  U   U4        1.0  0.868789792060852  0.10557711124420166  0.189921572804451  1.0000
  U   U5        1.0  0.609685480594635  0.9306053519248962  0.4367083013057709  1.0000
