data_image0
_chemical_formula_structural       BLa6O2
_chemical_formula_sum              "B1 La6 O2"
_cell_length_a       4.71706267436299
_cell_length_b       5.5632969665985295
_cell_length_c       7.58064079284668
_cell_angle_alpha    112.32446809761822
_cell_angle_beta     107.9866320092225
_cell_angle_gamma    86.69126718619721

_space_group_name_H-M_alt    "P 1"
_space_group_IT_number       1

loop_
  _space_group_symop_operation_xyz
  'x, y, z'

loop_
  _atom_site_type_symbol
  _atom_site_label
  _atom_site_symmetry_multiplicity
  _atom_site_fract_x
  _atom_site_fract_y
  _atom_site_fract_z
  _atom_site_occupancy
  B   B1        1.0  0.4241078197956085  0.12274400889873505  0.29091712832450867  1.0000
  La  La1       1.0  0.45337826013565063  0.632712185382843  0.08097295463085172  1.0000
  La  La2       1.0  0.7718070149421692  0.04953194409608841  0.02871314994990823  1.0000
  La  La3       1.0  0.23367592692375183  0.9348798990249634  0.8691787123680115  1.0000
  La  La4       1.0  0.7545594573020935  0.25388094782829285  0.6561785340309143  1.0000
  La  La5       1.0  0.22716794908046722  0.5686365365982056  0.5578635931015015  1.0000
  La  La6       1.0  0.7585250735282898  0.3482966721057892  0.6879459619522095  1.0000
  O   O1        1.0  0.907069981098175  0.547539472579956  0.17811235785484314  1.0000
  O   O2        1.0  0.6203656792640686  0.8616169691085815  0.6873865723609924  1.0000
