data_image0
_chemical_formula_structural       La4O3Zn2
_chemical_formula_sum              "La4 O3 Zn2"
_cell_length_a       5.228717185135651
_cell_length_b       5.761764546390727
_cell_length_c       6.758028507232666
_cell_angle_alpha    116.02860895724692
_cell_angle_beta     114.57554993244499
_cell_angle_gamma    90.68284759346297

_space_group_name_H-M_alt    "P 1"
_space_group_IT_number       1

loop_
  _space_group_symop_operation_xyz
  'x, y, z'

loop_
  _atom_site_type_symbol
  _atom_site_label
  _atom_site_symmetry_multiplicity
  _atom_site_fract_x
  _atom_site_fract_y
  _atom_site_fract_z
  _atom_site_occupancy
  La  La1       1.0  0.40464213490486145  0.5912644267082214  0.3414554297924042  1.0000
  La  La2       1.0  0.8370513319969177  0.36796605587005615  0.4446198344230652  1.0000
  La  La3       1.0  0.09587926417589188  0.8129947781562805  0.6767555475234985  1.0000
  La  La4       1.0  0.1202121078968048  0.13692602515220642  0.24034033715724945  1.0000
  O   O1        1.0  0.9660274386405944  0.2362722158432007  0.5885750651359558  1.0000
  O   O2        1.0  0.4580298364162445  0.3648024797439575  0.9558106660842896  1.0000
  O   O3        1.0  0.6062827706336975  0.5538573265075684  0.20285764336585999  1.0000
  Zn  Zn1       1.0  0.6573911309242249  0.8321834206581117  0.932633638381958  1.0000
  Zn  Zn2       1.0  0.6273106336593628  0.7902910709381104  0.7021648287773132  1.0000
