data_image0
_chemical_formula_structural       La3N2NpO3
_chemical_formula_sum              "La3 N2 Np1 O3"
_cell_length_a       5.373943906683713
_cell_length_b       5.7578985209784115
_cell_length_c       6.119707107543945
_cell_angle_alpha    108.03815616591763
_cell_angle_beta     109.06007220322894
_cell_angle_gamma    102.35723386210509

_space_group_name_H-M_alt    "P 1"
_space_group_IT_number       1

loop_
  _space_group_symop_operation_xyz
  'x, y, z'

loop_
  _atom_site_type_symbol
  _atom_site_label
  _atom_site_symmetry_multiplicity
  _atom_site_fract_x
  _atom_site_fract_y
  _atom_site_fract_z
  _atom_site_occupancy
  La  La1       1.0  0.2441332787275314  0.17625902593135834  0.7424435019493103  1.0000
  La  La2       1.0  0.7259746789932251  0.5518839359283447  0.6285964250564575  1.0000
  La  La3       1.0  0.24269586801528928  0.5347260236740112  0.8997202515602112  1.0000
  N   N1        1.0  0.7648724913597107  0.24794656038284302  0.3965122103691101  1.0000
  N   N2        1.0  0.7556644082069397  0.4144056737422943  0.6370950937271118  1.0000
  Np  Np1       1.0  0.719057559967041  0.6216728091239929  0.633966863155365  1.0000
  O   O1        1.0  0.19411903619766235  0.8544878363609314  0.1391797214746475  1.0000
  O   O2        1.0  0.7510079145431519  0.0581345371901989  0.6390058398246765  1.0000
  O   O3        1.0  0.22756379842758176  0.4093530774116516  0.14131881296634674  1.0000
