data_image0
_chemical_formula_structural       La4NO4
_chemical_formula_sum              "La4 N1 O4"
_cell_length_a       4.876161071031709
_cell_length_b       5.314265112081854
_cell_length_c       6.096268653869629
_cell_angle_alpha    92.54559325729176
_cell_angle_beta     94.95185822418475
_cell_angle_gamma    91.9312404282537

_space_group_name_H-M_alt    "P 1"
_space_group_IT_number       1

loop_
  _space_group_symop_operation_xyz
  'x, y, z'

loop_
  _atom_site_type_symbol
  _atom_site_label
  _atom_site_symmetry_multiplicity
  _atom_site_fract_x
  _atom_site_fract_y
  _atom_site_fract_z
  _atom_site_occupancy
  La  La1       1.0  0.20892217755317688  0.18222911655902863  0.008498841896653175  1.0000
  La  La2       1.0  0.7424193024635315  0.21202300488948822  0.1657170057296753  1.0000
  La  La3       1.0  0.2501504123210907  0.9019675850868226  0.2588832378387451  1.0000
  La  La4       1.0  0.21668656170368195  0.6982300877571106  0.6453987956047058  1.0000
  N   N1        1.0  0.7123869061470032  0.6408320069313049  0.3213939070701599  1.0000
  O   O1        1.0  0.9672554731369019  0.5358291268348694  0.701575756072998  1.0000
  O   O2        1.0  0.22433602809906006  0.16822578012943268  0.1213446408510208  1.0000
  O   O3        1.0  0.6320846080780029  0.14755316078662872  0.6558127403259277  1.0000
  O   O4        1.0  0.1612464040517807  0.9966012239456178  0.9882587194442748  1.0000
