data_image0
_chemical_formula_structural       La7O2
_chemical_formula_sum              "La7 O2"
_cell_length_a       4.837108533314313
_cell_length_b       6.222576841302132
_cell_length_c       7.424225807189941
_cell_angle_alpha    109.79593010172641
_cell_angle_beta     108.90905694803003
_cell_angle_gamma    86.8531277527025

_space_group_name_H-M_alt    "P 1"
_space_group_IT_number       1

loop_
  _space_group_symop_operation_xyz
  'x, y, z'

loop_
  _atom_site_type_symbol
  _atom_site_label
  _atom_site_symmetry_multiplicity
  _atom_site_fract_x
  _atom_site_fract_y
  _atom_site_fract_z
  _atom_site_occupancy
  La  La1       1.0  0.4305226802825928  0.7363733053207397  0.9283880591392517  1.0000
  La  La2       1.0  0.966395378112793  0.9807575345039368  0.3195033371448517  1.0000
  La  La3       1.0  0.48463407158851624  0.499341756105423  0.48955321311950684  1.0000
  La  La4       1.0  0.9525936245918274  0.4780411720275879  0.43458136916160583  1.0000
  La  La5       1.0  0.9955927729606628  0.9925442934036255  0.8321632742881775  1.0000
  La  La6       1.0  0.9237809777259827  0.26799243688583374  0.042900558561086655  1.0000
  La  La7       1.0  0.4596768319606781  0.7559153437614441  0.06810907274484634  1.0000
  O   O1        1.0  0.09210395067930222  0.4711817502975464  0.5646467208862305  1.0000
  O   O2        1.0  0.24988627433776855  0.5832540392875671  0.17466434836387637  1.0000
