data_image0
_chemical_formula_structural       CoFe2GaI3Ta2V
_chemical_formula_sum              "Co1 Fe2 Ga1 I3 Ta2 V1"
_cell_length_a       4.643308120681953
_cell_length_b       4.944651797069623
_cell_length_c       6.5636820793151855
_cell_angle_alpha    89.57855624004104
_cell_angle_beta     91.69601903130715
_cell_angle_gamma    92.22605137803112

_space_group_name_H-M_alt    "P 1"
_space_group_IT_number       1

loop_
  _space_group_symop_operation_xyz
  'x, y, z'

loop_
  _atom_site_type_symbol
  _atom_site_label
  _atom_site_symmetry_multiplicity
  _atom_site_fract_x
  _atom_site_fract_y
  _atom_site_fract_z
  _atom_site_occupancy
  Co  Co1       1.0  0.9575470685958862  0.9597625136375428  0.2592182159423828  1.0000
  Fe  Fe1       1.0  0.3834649920463562  0.21196101605892184  0.6254785656929017  1.0000
  Fe  Fe2       1.0  0.9269309043884277  0.11181059479713441  0.26086190342903137  1.0000
  Ga  Ga1       1.0  0.3537651598453522  0.6951992511749268  0.7367412447929383  1.0000
  I   I1        1.0  0.8904755115509033  0.9521008133888246  0.4823220074176789  1.0000
  I   I2        1.0  0.3917081654071808  0.7592964768409729  0.11512156575918199  1.0000
  I   I3        1.0  0.8745197057723999  0.30022725462913513  0.129533588886261  1.0000
  Ta  Ta1       1.0  0.43391433358192444  0.7718741297721863  0.1622823923826218  1.0000
  Ta  Ta2       1.0  0.4249057173728943  0.43967843055725103  0.17856097221374514  1.0000
  V   V1        1.0  0.9659312963485718  0.3506675958633423  0.3578926622867585  1.0000
