data_image0
_chemical_formula_structural       GaIIr2LiP2Ta2Zr
_chemical_formula_sum              "Ga1 I1 Ir2 Li1 P2 Ta2 Zr1"
_cell_length_a       5.67200503246324
_cell_length_b       6.2618240871393605
_cell_length_c       7.240959644317627
_cell_angle_alpha    90.53804838497949
_cell_angle_beta     87.40759603522186
_cell_angle_gamma    70.24338135366209

_space_group_name_H-M_alt    "P 1"
_space_group_IT_number       1

loop_
  _space_group_symop_operation_xyz
  'x, y, z'

loop_
  _atom_site_type_symbol
  _atom_site_label
  _atom_site_symmetry_multiplicity
  _atom_site_fract_x
  _atom_site_fract_y
  _atom_site_fract_z
  _atom_site_occupancy
  Ga  Ga1       1.0  0.3981931507587433  0.552453339099884  0.36714407801628124  1.0000
  I   I1        1.0  0.6051583886146545  0.058525800704956055  0.5453482866287231  1.0000
  Ir  Ir1       1.0  0.8005383610725403  0.23428675532341003  0.6900714635849  1.0000
  Ir  Ir2       1.0  0.11447276175022125  0.053687263280153275  0.3479836285114289  1.0000
  Li  Li1       1.0  0.775301992893219  0.017270604148507118  0.9126925468444825  1.0000
  P   P1        1.0  0.175831139087677  0.35585108399391174  0.24706026911735537  1.0000
  P   P2        1.0  0.41003599762916565  0.5554417967796326  0.25190046429634094  1.0000
  Ta  Ta1       1.0  0.12434852868318558  0.15419985353946686  0.6883193850517274  1.0000
  Ta  Ta2       1.0  0.2989538013935089  0.7372907996177673  0.02832305617630482  1.0000
  Zr  Zr1       1.0  0.6641994714736938  0.660915195941925  0.7341029644012452  1.0000
