data_image0
_chemical_formula_structural       Fe2Ta8
_chemical_formula_sum              "Fe2 Ta8"
_cell_length_a       3.9794676456515563
_cell_length_b       3.580397260055265
_cell_length_c       6.300067901611328
_cell_angle_alpha    90.81527668850559
_cell_angle_beta     92.58563899323758
_cell_angle_gamma    89.44385352379845

_space_group_name_H-M_alt    "P 1"
_space_group_IT_number       1

loop_
  _space_group_symop_operation_xyz
  'x, y, z'

loop_
  _atom_site_type_symbol
  _atom_site_label
  _atom_site_symmetry_multiplicity
  _atom_site_fract_x
  _atom_site_fract_y
  _atom_site_fract_z
  _atom_site_occupancy
  Fe  Fe1       1.0  0.3147933483123779  0.5170592069625854  0.1643206924200058  1.0000
  Fe  Fe2       1.0  0.3411512672901153  0.6704877018928528  0.37812408804893494  1.0000
  Ta  Ta1       1.0  0.7512483000755309  0.6672903895378113  0.7946462035179137  1.0000
  Ta  Ta2       1.0  0.8448857069015502  0.3116825520992279  0.6456837058067322  1.0000
  Ta  Ta3       1.0  0.3377487361431121  0.8416654467582703  0.5736044049263  1.0000
  Ta  Ta4       1.0  0.8381114006042479  0.3747890293598175  0.08510024845600128  1.0000
  Ta  Ta5       1.0  0.3266984820365905  0.03446662798523903  0.35208621621131897  1.0000
  Ta  Ta6       1.0  0.8189588785171508  0.1796979010105133  0.15823891758918762  1.0000
  Ta  Ta7       1.0  0.900925576686859  0.4411947429180145  0.0411202535033226  1.0000
  Ta  Ta8       1.0  0.4117602407932281  0.9307855367660522  0.5337930917739868  1.0000
