data_image0
_chemical_formula_structural       Fe3Ga3IrNpTaZn
_chemical_formula_sum              "Fe3 Ga3 Ir1 Np1 Ta1 Zn1"
_cell_length_a       5.197365296647435
_cell_length_b       5.474446404797606
_cell_length_c       5.652217388153076
_cell_angle_alpha    71.09526919340402
_cell_angle_beta     69.05445866582765
_cell_angle_gamma    66.61562280241424

_space_group_name_H-M_alt    "P 1"
_space_group_IT_number       1

loop_
  _space_group_symop_operation_xyz
  'x, y, z'

loop_
  _atom_site_type_symbol
  _atom_site_label
  _atom_site_symmetry_multiplicity
  _atom_site_fract_x
  _atom_site_fract_y
  _atom_site_fract_z
  _atom_site_occupancy
  Fe  Fe1       1.0  0.4709210693836212  0.3836587071418762  0.5443331599235535  1.0000
  Fe  Fe2       1.0  0.9839063882827759  0.35362765192985535  0.5777445435523987  1.0000
  Fe  Fe3       1.0  0.9787735342979431  0.20574207603931427  0.6093317270278931  1.0000
  Ga  Ga1       1.0  0.4525333642959595  0.6735275387763977  0.9365909695625304  1.0000
  Ga  Ga2       1.0  0.7807221412658691  0.948900580406189  0.8947134017944335  1.0000
  Ga  Ga3       1.0  0.4151214063167572  0.9380678534507751  0.9637222886085509  1.0000
  Ir  Ir1       1.0  0.46743863821029663  0.35099443793296814  0.7456295490264893  1.0000
  Np  Np1       1.0  0.9734217524528503  0.5353450775146484  0.5198702216148376  1.0000
  Ta  Ta1       1.0  0.45701202750205994  0.9656065702438354  0.20642852783203122  1.0000
  Zn  Zn1       1.0  0.9702309370040894  0.2626805305480957  0.6822205185890198  1.0000
