data_image0
_chemical_formula_structural       FeNTa8
_chemical_formula_sum              "Fe1 N1 Ta8"
_cell_length_a       4.833138237004634
_cell_length_b       5.411417880857543
_cell_length_c       6.101620197296143
_cell_angle_alpha    79.73798025266255
_cell_angle_beta     69.83849778881739
_cell_angle_gamma    71.52091195418782

_space_group_name_H-M_alt    "P 1"
_space_group_IT_number       1

loop_
  _space_group_symop_operation_xyz
  'x, y, z'

loop_
  _atom_site_type_symbol
  _atom_site_label
  _atom_site_symmetry_multiplicity
  _atom_site_fract_x
  _atom_site_fract_y
  _atom_site_fract_z
  _atom_site_occupancy
  Fe  Fe1       1.0  0.6046204566955566  0.9992966055870056  0.10743054747581483  1.0000
  N   N1        1.0  0.08221058547496796  0.07106254249811172  0.1398836225271225  1.0000
  Ta  Ta1       1.0  0.5972031950950623  0.8869693875312805  0.8918022513389589  1.0000
  Ta  Ta2       1.0  0.10275793075561523  0.954005777835846  0.6388543248176575  1.0000
  Ta  Ta3       1.0  0.08103269338607788  0.19511669874191284  0.3874844312667847  1.0000
  Ta  Ta4       1.0  0.59562748670578  0.6084529161453247  0.3686677813529968  1.0000
  Ta  Ta5       1.0  0.5841450095176697  0.533589243888855  0.21440728008747104  1.0000
  Ta  Ta6       1.0  0.5868842601776123  0.5402464270591736  0.25073158740997314  1.0000
  Ta  Ta7       1.0  0.0869174599647522  0.4564046859741211  0.4363296031951905  1.0000
  Ta  Ta8       1.0  0.08825428038835526  0.7775094509124756  0.8551263809204103  1.0000
