data_image0
_chemical_formula_structural       AlCs2CuLuZn2
_chemical_formula_sum              "Al1 Cs2 Cu1 Lu1 Zn2"
_cell_length_a       4.928499109945278
_cell_length_b       6.657436462338144
_cell_length_c       6.697975158691406
_cell_angle_alpha    123.60563148798171
_cell_angle_beta     89.36150759155656
_cell_angle_gamma    90.41763942022821

_space_group_name_H-M_alt    "P 1"
_space_group_IT_number       1

loop_
  _space_group_symop_operation_xyz
  'x, y, z'

loop_
  _atom_site_type_symbol
  _atom_site_label
  _atom_site_symmetry_multiplicity
  _atom_site_fract_x
  _atom_site_fract_y
  _atom_site_fract_z
  _atom_site_occupancy
  Al  Al1       1.0  0.6348514556884766  0.9442757964134216  0.2263638824224473  1.0000
  Cs  Cs1       1.0  0.5712598562240601  0.8115563988685608  0.8744608759880066  1.0000
  Cs  Cs2       1.0  0.06682546436786652  0.9220998883247375  0.03943878784775734  1.0000
  Cu  Cu1       1.0  0.07295943796634674  0.6988694071769714  0.8210968375205994  1.0000
  Lu  Lu1       1.0  0.09187769889831543  0.44043266773223877  0.2445945888757706  1.0000
  Zn  Zn1       1.0  0.5638506412506104  0.21078671514987946  0.4100281000137329  1.0000
  Zn  Zn2       1.0  0.5741048455238342  0.043595992028713226  0.5762664079666138  1.0000
