data_image0
_chemical_formula_structural       Cr2Ga2LiSeV2
_chemical_formula_sum              "Cr2 Ga2 Li1 Se1 V2"
_cell_length_a       6.197499910890518
_cell_length_b       5.907706102263983
_cell_length_c       5.565113544464111
_cell_angle_alpha    53.63499334887606
_cell_angle_beta     58.52984687494261
_cell_angle_gamma    56.920842880955206

_space_group_name_H-M_alt    "P 1"
_space_group_IT_number       1

loop_
  _space_group_symop_operation_xyz
  'x, y, z'

loop_
  _atom_site_type_symbol
  _atom_site_label
  _atom_site_symmetry_multiplicity
  _atom_site_fract_x
  _atom_site_fract_y
  _atom_site_fract_z
  _atom_site_occupancy
  Cr  Cr1       1.0  0.7942342758178711  0.5404124855995178  0.5969706773757935  1.0000
  Cr  Cr2       1.0  0.3775852620601654  0.2596035599708557  0.07459671795368195  1.0000
  Ga  Ga1       1.0  0.008150015957653522  0.515091598033905  0.8132058382034302  1.0000
  Ga  Ga2       1.0  0.10073921829462051  0.17642852663993835  0.21128466725349426  1.0000
  Li  Li1       1.0  0.24290044605731964  0.10919179767370224  0.8501154780387878  1.0000
  Se  Se1       1.0  0.39550042152404785  0.6897653341293335  0.8965343832969666  1.0000
  V   V1        1.0  0.6330991983413696  0.12818671762943268  0.3452320396900177  1.0000
  V   V2        1.0  0.6197730898857117  0.46899089217185974  0.7075636386871339  1.0000
