data_image0
_chemical_formula_structural       Cr7Se
_chemical_formula_sum              "Cr7 Se1"
_cell_length_a       5.368448295194627
_cell_length_b       5.377312495365108
_cell_length_c       5.233986854553223
_cell_angle_alpha    54.73381840001486
_cell_angle_beta     55.87319833632564
_cell_angle_gamma    57.73756660858029

_space_group_name_H-M_alt    "P 1"
_space_group_IT_number       1

loop_
  _space_group_symop_operation_xyz
  'x, y, z'

loop_
  _atom_site_type_symbol
  _atom_site_label
  _atom_site_symmetry_multiplicity
  _atom_site_fract_x
  _atom_site_fract_y
  _atom_site_fract_z
  _atom_site_occupancy
  Cr  Cr1       1.0  0.03352721035480499  0.4572094678878784  0.6090095043182373  1.0000
  Cr  Cr2       1.0  0.9892858862876892  0.2452206164598465  0.19492675364017487  1.0000
  Cr  Cr3       1.0  0.6961912512779236  0.8974725604057312  0.11631567776203156  1.0000
  Cr  Cr4       1.0  0.17345181107521057  0.35164493322372437  0.9826551079750061  1.0000
  Cr  Cr5       1.0  0.5401837229728699  0.3268040120601654  0.306796669960022  1.0000
  Cr  Cr6       1.0  0.5180231928825378  0.22706888616085052  0.5329086184501648  1.0000
  Cr  Cr7       1.0  0.6919938325881958  0.12453540414571762  0.9484643340110779  1.0000
  Se  Se1       1.0  0.2379506528377533  0.6449363827705383  0.624817967414856  1.0000
