data_image0
_chemical_formula_structural       Cr2GaPbSbV2Zr
_chemical_formula_sum              "Cr2 Ga1 Pb1 Sb1 V2 Zr1"
_cell_length_a       5.86402555623325
_cell_length_b       5.781627636143935
_cell_length_c       5.849841117858887
_cell_angle_alpha    58.59646094409923
_cell_angle_beta     59.891849830667894
_cell_angle_gamma    56.75842326625824

_space_group_name_H-M_alt    "P 1"
_space_group_IT_number       1

loop_
  _space_group_symop_operation_xyz
  'x, y, z'

loop_
  _atom_site_type_symbol
  _atom_site_label
  _atom_site_symmetry_multiplicity
  _atom_site_fract_x
  _atom_site_fract_y
  _atom_site_fract_z
  _atom_site_occupancy
  Cr  Cr1       1.0  0.8075955510139465  0.5928088426589966  0.25034937262535095  1.0000
  Cr  Cr2       1.0  0.3209361433982849  0.3301635682582855  0.014365218579769133  1.0000
  Ga  Ga1       1.0  0.8146659731864929  0.9451051950454712  0.9240058064460753  1.0000
  Pb  Pb1       1.0  0.3016287088394165  0.0683373212814331  0.5314475297927856  1.0000
  Sb  Sb1       1.0  0.8509684801101685  0.9708569645881653  0.08527133613824844  1.0000
  V   V1        1.0  0.8200237154960632  0.43647950887680054  0.9999899268150328  1.0000
  V   V2        1.0  0.3223704397678375  0.659866988658905  0.9147385954856871  1.0000
  Zr  Zr1       1.0  0.8436685800552368  0.664119303226471  0.849142551422119  1.0000
