data_image0
_chemical_formula_structural       As2CoCr3GaSb
_chemical_formula_sum              "As2 Co1 Cr3 Ga1 Sb1"
_cell_length_a       6.223317707476201
_cell_length_b       6.265919809190343
_cell_length_c       6.463902950286865
_cell_angle_alpha    60.24768612344622
_cell_angle_beta     63.460642476568644
_cell_angle_gamma    61.55531421853175

_space_group_name_H-M_alt    "P 1"
_space_group_IT_number       1

loop_
  _space_group_symop_operation_xyz
  'x, y, z'

loop_
  _atom_site_type_symbol
  _atom_site_label
  _atom_site_symmetry_multiplicity
  _atom_site_fract_x
  _atom_site_fract_y
  _atom_site_fract_z
  _atom_site_occupancy
  As  As1       1.0  0.7037318348884583  0.732680082321167  0.40375301241874695  1.0000
  As  As2       1.0  0.23925556242465973  0.17556782066822052  0.09102614223957062  1.0000
  Co  Co1       1.0  0.7233284115791321  0.86502206325531  0.3478146493434906  1.0000
  Cr  Cr1       1.0  0.054383397102356  0.9317976236343383  0.0752711147069931  1.0000
  Cr  Cr2       1.0  0.507006824016571  0.2602023482322693  0.5434275269508362  1.0000
  Cr  Cr3       1.0  0.6778709292411804  0.6705866456031799  0.8546368479728699  1.0000
  Ga  Ga1       1.0  0.9999276399612427  0.5687926411628723  0.0418357327580452  1.0000
  Sb  Sb1       1.0  0.03951307758688927  0.034179482609033585  0.8046377897262573  1.0000
