data_image0
_chemical_formula_structural       Mo2Ni2Se6Si
_chemical_formula_sum              "Mo2 Ni2 Se6 Si1"
_cell_length_a       6.287376653526117
_cell_length_b       7.08267042189916
_cell_length_c       6.923865795135498
_cell_angle_alpha    118.9252186204538
_cell_angle_beta     88.92876475946747
_cell_angle_gamma    90.13630758988904

_space_group_name_H-M_alt    "P 1"
_space_group_IT_number       1

loop_
  _space_group_symop_operation_xyz
  'x, y, z'

loop_
  _atom_site_type_symbol
  _atom_site_label
  _atom_site_symmetry_multiplicity
  _atom_site_fract_x
  _atom_site_fract_y
  _atom_site_fract_z
  _atom_site_occupancy
  Mo  Mo1       1.0  0.6482455134391785  0.9427685737609863  0.3661896884441376  1.0000
  Mo  Mo2       1.0  0.1785772144794464  0.5409330725669861  0.07022348046302795  1.0000
  Ni  Ni1       1.0  0.89962238073349  0.5810655355453491  0.8632975816726685  1.0000
  Ni  Ni2       1.0  0.37178367376327515  0.37193915247917175  0.4910629987716675  1.0000
  Se  Se1       1.0  0.3797968029975891  0.812079668045044  0.6422841548919678  1.0000
  Se  Se2       1.0  0.8762281537055969  0.9553266763687134  0.7746028900146484  1.0000
  Se  Se3       1.0  0.9022698402404785  0.5865971446037292  0.4952121376991272  1.0000
  Se  Se4       1.0  0.9136054515838623  0.3120395541191101  0.37606722116470337  1.0000
  Se  Se5       1.0  0.8349435329437256  0.3868162930011749  0.8767794966697693  1.0000
  Se  Se6       1.0  0.3844415545463562  0.8276320695877075  0.556038796901703  1.0000
  Si  Si1       1.0  0.35251760482788086  0.8265075087547302  0.8664674758911133  1.0000
