data_image0
_chemical_formula_structural       Mo3Ni2Se5Si
_chemical_formula_sum              "Mo3 Ni2 Se5 Si1"
_cell_length_a       6.305319301085167
_cell_length_b       6.142279582184665
_cell_length_c       6.960838794708252
_cell_angle_alpha    91.18370143967525
_cell_angle_beta     89.32120026745052
_cell_angle_gamma    114.8999217332207

_space_group_name_H-M_alt    "P 1"
_space_group_IT_number       1

loop_
  _space_group_symop_operation_xyz
  'x, y, z'

loop_
  _atom_site_type_symbol
  _atom_site_label
  _atom_site_symmetry_multiplicity
  _atom_site_fract_x
  _atom_site_fract_y
  _atom_site_fract_z
  _atom_site_occupancy
  Mo  Mo1       1.0  0.5609686970710754  0.38145536184310913  0.161410927772522  1.0000
  Mo  Mo2       1.0  0.27163583040237427  0.6644969582557678  0.9108298420906068  1.0000
  Mo  Mo3       1.0  0.5633182525634766  0.9430237412452698  0.22689937055110934  1.0000
  Ni  Ni1       1.0  0.10727155953645708  0.34559425711631775  0.4023361802101136  1.0000
  Ni  Ni2       1.0  0.8977267146110536  0.9700586199760437  0.37576824426651007  1.0000
  Se  Se1       1.0  0.5034485459327698  0.37464410066604614  0.6512610316276551  1.0000
  Se  Se2       1.0  0.2127873003482819  0.022448934614658356  0.6351558566093446  1.0000
  Se  Se3       1.0  0.6812290549278259  0.5687841176986694  0.08306391537189485  1.0000
  Se  Se4       1.0  0.23019215464591983  0.1084975004196167  0.7085682749748231  1.0000
  Se  Se5       1.0  0.967228651046753  0.5873453617095947  0.0070594442076981085  1.0000
  Si  Si1       1.0  0.6165584921836853  0.5525310039520264  0.6705970168113711  1.0000
