data_image0
_chemical_formula_structural       Mo9Se2
_chemical_formula_sum              "Mo9 Se2"
_cell_length_a       7.702346862847317
_cell_length_b       6.473961629557232
_cell_length_c       6.764201641082764
_cell_angle_alpha    99.79230549927257
_cell_angle_beta     88.36714021404592
_cell_angle_gamma    90.02360626616846

_space_group_name_H-M_alt    "P 1"
_space_group_IT_number       1

loop_
  _space_group_symop_operation_xyz
  'x, y, z'

loop_
  _atom_site_type_symbol
  _atom_site_label
  _atom_site_symmetry_multiplicity
  _atom_site_fract_x
  _atom_site_fract_y
  _atom_site_fract_z
  _atom_site_occupancy
  Mo  Mo1       1.0  0.10349920392036438  0.22236160933971405  0.4768203794956207  1.0000
  Mo  Mo2       1.0  0.8906463384628296  0.42492642998695374  0.48757877945899963  1.0000
  Mo  Mo3       1.0  0.9211873412132263  0.7061915993690491  0.24597050249576569  1.0000
  Mo  Mo4       1.0  0.8366695046424866  0.06778658926486969  0.9876425266265869  1.0000
  Mo  Mo5       1.0  0.28671994805336  0.016887791454792023  0.15516789257526398  1.0000
  Mo  Mo6       1.0  0.413934588432312  0.3684109151363373  0.059641387313604355  1.0000
  Mo  Mo7       1.0  0.4987342059612274  0.5830197930335999  0.5017882585525513  1.0000
  Mo  Mo8       1.0  0.7353219389915466  0.7373058199882507  0.041907764971256256  1.0000
  Mo  Mo9       1.0  0.8369487524032593  0.0891851931810379  0.6314054131507874  1.0000
  Se  Se1       1.0  0.3521251976490021  0.605857789516449  0.6193009614944458  1.0000
  Se  Se2       1.0  0.29627957940101624  0.6259661316871643  0.008476615883409961  1.0000
