data_image0
_chemical_formula_structural       Mo4NaNi2Se4
_chemical_formula_sum              "Mo4 Na1 Ni2 Se4"
_cell_length_a       6.525318409111678
_cell_length_b       7.445416132920527
_cell_length_c       7.389327526092529
_cell_angle_alpha    118.26298953691646
_cell_angle_beta     89.0028050905229
_cell_angle_gamma    89.13729125820053

_space_group_name_H-M_alt    "P 1"
_space_group_IT_number       1

loop_
  _space_group_symop_operation_xyz
  'x, y, z'

loop_
  _atom_site_type_symbol
  _atom_site_label
  _atom_site_symmetry_multiplicity
  _atom_site_fract_x
  _atom_site_fract_y
  _atom_site_fract_z
  _atom_site_occupancy
  Mo  Mo1       1.0  0.3108363151550293  0.40409719944000244  0.253409057855606  1.0000
  Mo  Mo2       1.0  0.30833742022514343  0.9139702320098876  0.38950398564338673  1.0000
  Mo  Mo3       1.0  0.30946066975593567  0.9071843028068541  0.0657702907919883  1.0000
  Mo  Mo4       1.0  0.81086266040802  0.41941472887992853  0.7019434571266174  1.0000
  Na  Na1       1.0  0.8077313303947449  0.8983168005943297  0.09172294288873666  1.0000
  Ni  Ni1       1.0  0.8178837895393372  0.8788424730300902  0.7425251603126526  1.0000
  Ni  Ni2       1.0  0.802978515625  0.4099556803703308  0.3512108325958252  1.0000
  Se  Se1       1.0  0.2965181767940521  0.6800479888916016  0.37198665738105763  1.0000
  Se  Se2       1.0  0.5717673897743225  0.5715817809104919  0.11482329666614526  1.0000
  Se  Se3       1.0  0.8133335113525391  0.3382168114185333  0.9410504102706908  1.0000
  Se  Se4       1.0  0.34242507815361023  0.16606071591377258  0.631910502910614  1.0000
