data_image0
_chemical_formula_structural       Mo6Se5
_chemical_formula_sum              "Mo6 Se5"
_cell_length_a       6.407734725312589
_cell_length_b       5.661619824191741
_cell_length_c       5.816348552703857
_cell_angle_alpha    90.23164354623867
_cell_angle_beta     86.53099808451721
_cell_angle_gamma    102.31243696177283

_space_group_name_H-M_alt    "P 1"
_space_group_IT_number       1

loop_
  _space_group_symop_operation_xyz
  'x, y, z'

loop_
  _atom_site_type_symbol
  _atom_site_label
  _atom_site_symmetry_multiplicity
  _atom_site_fract_x
  _atom_site_fract_y
  _atom_site_fract_z
  _atom_site_occupancy
  Mo  Mo1       1.0  0.9008150100708008  0.8451902270317078  0.912277340888977  1.0000
  Mo  Mo2       1.0  0.7011095285415649  0.255584716796875  0.04737184941768646  1.0000
  Mo  Mo3       1.0  0.0700274109840393  0.0959048718214035  0.8631515502929688  1.0000
  Mo  Mo4       1.0  0.8543973565101624  0.3603188097476959  0.7134502530097961  1.0000
  Mo  Mo5       1.0  0.23896963894367218  0.7695032358169556  0.2170221358537674  1.0000
  Mo  Mo6       1.0  0.3571169078350067  0.0036369757726788525  0.48707905411720276  1.0000
  Se  Se1       1.0  0.40094342827796936  0.6147804260253906  0.3735564947128296  1.0000
  Se  Se2       1.0  0.6940856575965881  0.9147229790687562  0.7376039028167725  1.0000
  Se  Se3       1.0  0.6143273711204529  0.6470869779586792  0.3458593785762787  1.0000
  Se  Se4       1.0  0.08089840412139893  0.37483087182044983  0.8179500102996826  1.0000
  Se  Se5       1.0  0.14193499088287354  0.763176441192627  0.923092782497406  1.0000
