data_image0
_chemical_formula_structural       MoNaNi2Se7
_chemical_formula_sum              "Mo1 Na1 Ni2 Se7"
_cell_length_a       6.111314862377608
_cell_length_b       7.139639415965983
_cell_length_c       7.113398551940918
_cell_angle_alpha    120.1431756826501
_cell_angle_beta     90.74903555450918
_cell_angle_gamma    89.34550543397256

_space_group_name_H-M_alt    "P 1"
_space_group_IT_number       1

loop_
  _space_group_symop_operation_xyz
  'x, y, z'

loop_
  _atom_site_type_symbol
  _atom_site_label
  _atom_site_symmetry_multiplicity
  _atom_site_fract_x
  _atom_site_fract_y
  _atom_site_fract_z
  _atom_site_occupancy
  Mo  Mo1       1.0  0.6472952961921692  0.25997114181518555  0.932432770729065  1.0000
  Na  Na1       1.0  0.12568901479244232  0.2486047148704529  0.6038121581077576  1.0000
  Ni  Ni1       1.0  0.6167434453964233  0.1953035295009613  0.18032842874526978  1.0000
  Ni  Ni2       1.0  0.018869547173380852  0.29040488600730896  0.9112816452980043  1.0000
  Se  Se1       1.0  0.14218011498451233  0.2894309461116791  0.4172798693180085  1.0000
  Se  Se2       1.0  0.643508791923523  0.8806529641151429  0.25878018140792847  1.0000
  Se  Se3       1.0  0.6251840591430664  0.2054947912693024  0.6338144540786743  1.0000
  Se  Se4       1.0  0.15609388053417206  0.6221848726272583  0.18145456910133362  1.0000
  Se  Se5       1.0  0.6404998302459717  0.5040623545646667  0.9183021187782289  1.0000
  Se  Se6       1.0  0.1385331153869629  0.8300498127937318  0.7551383376121521  1.0000
  Se  Se7       1.0  0.12735052406787872  0.8562544584274293  0.7477047443389893  1.0000
