data_image0
_chemical_formula_structural       Al3B2Sc3
_chemical_formula_sum              "Al3 B2 Sc3"
_cell_length_a       5.1777460871414505
_cell_length_b       5.601870843678055
_cell_length_c       6.011218070983887
_cell_angle_alpha    69.07113255133739
_cell_angle_beta     63.28593954609715
_cell_angle_gamma    61.66692159374027

_space_group_name_H-M_alt    "P 1"
_space_group_IT_number       1

loop_
  _space_group_symop_operation_xyz
  'x, y, z'

loop_
  _atom_site_type_symbol
  _atom_site_label
  _atom_site_symmetry_multiplicity
  _atom_site_fract_x
  _atom_site_fract_y
  _atom_site_fract_z
  _atom_site_occupancy
  Al  Al1       1.0  0.5622420907020569  0.735881507396698  0.03274596855044365  1.0000
  Al  Al2       1.0  0.11927251517772675  0.1723669469356537  0.2869534492492676  1.0000
  Al  Al3       1.0  0.7979602813720703  0.27854636311531067  0.854296088218689  1.0000
  B   B1        1.0  0.8032495379447937  0.7821522355079651  0.5213596224784851  1.0000
  B   B2        1.0  0.4260619282722473  0.4869239926338196  0.013127985410392284  1.0000
  Sc  Sc1       1.0  0.8887032866477966  0.09302913397550583  0.015288938768208027  1.0000
  Sc  Sc2       1.0  0.9110497236251831  0.5090547800064087  0.11707735806703568  1.0000
  Sc  Sc3       1.0  0.2389795035123825  0.7540380358695984  0.01167791336774826  1.0000
