data_image0
_chemical_formula_structural       Al4B3Sc
_chemical_formula_sum              "Al4 B3 Sc1"
_cell_length_a       4.7210670782714015
_cell_length_b       5.286965301342231
_cell_length_c       6.2065606117248535
_cell_angle_alpha    78.58544913779512
_cell_angle_beta     68.30744548167874
_cell_angle_gamma    60.498991816788305

_space_group_name_H-M_alt    "P 1"
_space_group_IT_number       1

loop_
  _space_group_symop_operation_xyz
  'x, y, z'

loop_
  _atom_site_type_symbol
  _atom_site_label
  _atom_site_symmetry_multiplicity
  _atom_site_fract_x
  _atom_site_fract_y
  _atom_site_fract_z
  _atom_site_occupancy
  Al  Al1       1.0  0.22901788353919983  0.02475125715136528  0.02749697118997574  1.0000
  Al  Al2       1.0  0.4036644995212555  0.7704668641090393  0.8298017978668213  1.0000
  Al  Al3       1.0  0.5968849062919617  0.03665557876229286  0.5084932446479798  1.0000
  Al  Al4       1.0  0.6060839295387268  0.004303097724914551  0.002709031105041504  1.0000
  B   B1        1.0  0.1956145316362381  0.5430828332901001  0.6759783029556274  1.0000
  B   B2        1.0  0.6641345024108887  0.42686891555786133  0.848461925983429  1.0000
  B   B3        1.0  0.6749494075775146  0.349090576171875  0.683699905872345  1.0000
  Sc  Sc1       1.0  0.6098753809928894  0.009949996136128902  0.05357964709401127  1.0000
