data_image0
_chemical_formula_structural       Al2B2Sc4
_chemical_formula_sum              "Al2 B2 Sc4"
_cell_length_a       4.299479930598353
_cell_length_b       4.91012164727141
_cell_length_c       8.227044105529785
_cell_angle_alpha    99.76377480124447
_cell_angle_beta     93.36110423479228
_cell_angle_gamma    106.56168471129317

_space_group_name_H-M_alt    "P 1"
_space_group_IT_number       1

loop_
  _space_group_symop_operation_xyz
  'x, y, z'

loop_
  _atom_site_type_symbol
  _atom_site_label
  _atom_site_symmetry_multiplicity
  _atom_site_fract_x
  _atom_site_fract_y
  _atom_site_fract_z
  _atom_site_occupancy
  Al  Al1       1.0  0.8501221537590027  0.6559818983078003  0.4261249005794525  1.0000
  Al  Al2       1.0  0.528691291809082  0.3499228358268738  0.8640291094779968  1.0000
  B   B1        1.0  0.22422318160533905  0.7177817225456238  0.5297018885612488  1.0000
  B   B2        1.0  0.16912201046943665  0.5105811357498169  0.8478251099586487  1.0000
  Sc  Sc1       1.0  0.8614619374275208  0.040802426636219025  0.04279027506709099  1.0000
  Sc  Sc2       1.0  0.4884905517101288  0.2325371652841568  0.7717857360839844  1.0000
  Sc  Sc3       1.0  0.890515923500061  0.08281628787517548  0.6670225262641907  1.0000
  Sc  Sc4       1.0  0.16177229583263397  0.734997570514679  0.7970849871635437  1.0000
