data_image0
_chemical_formula_structural       La4Ni3O3
_chemical_formula_sum              "La4 Ni3 O3"
_cell_length_a       5.196209321190968
_cell_length_b       5.296401366298642
_cell_length_c       6.603896617889404
_cell_angle_alpha    106.7356399157118
_cell_angle_beta     105.21495452459686
_cell_angle_gamma    113.17912798346194

_space_group_name_H-M_alt    "P 1"
_space_group_IT_number       1

loop_
  _space_group_symop_operation_xyz
  'x, y, z'

loop_
  _atom_site_type_symbol
  _atom_site_label
  _atom_site_symmetry_multiplicity
  _atom_site_fract_x
  _atom_site_fract_y
  _atom_site_fract_z
  _atom_site_occupancy
  La  La1       1.0  0.2954321801662445  0.8216837644577026  0.5933499336242676  1.0000
  La  La2       1.0  0.6708804368972778  0.5465865731239319  0.2474124580621719  1.0000
  La  La3       1.0  0.7320707440376282  0.6777012944221497  0.15667986869812012  1.0000
  La  La4       1.0  0.28654617071151733  0.6732755303382874  0.9318963885307311  1.0000
  Ni  Ni1       1.0  0.5982933044433594  0.02202606201171875  0.22912316024303434  1.0000
  Ni  Ni2       1.0  0.9007766246795655  0.14232918620109558  0.7397519946098328  1.0000
  Ni  Ni3       1.0  0.6233905553817749  0.3249500095844269  0.0017981883138418195  1.0000
  O   O1        1.0  0.11075504124164583  0.5413512587547302  0.4286811649799347  1.0000
  O   O2        1.0  0.0013812892138957977  0.21825963258743286  0.6705934405326843  1.0000
  O   O3        1.0  0.48598417639732366  0.12137774378061295  0.4360171258449554  1.0000
