data_image0
_chemical_formula_structural       La5NiO3Zn
_chemical_formula_sum              "La5 Ni1 O3 Zn1"
_cell_length_a       5.776854173175399
_cell_length_b       6.647770475320848
_cell_length_c       7.098477363586426
_cell_angle_alpha    113.07537084238841
_cell_angle_beta     115.16828730545681
_cell_angle_gamma    88.24713874433216

_space_group_name_H-M_alt    "P 1"
_space_group_IT_number       1

loop_
  _space_group_symop_operation_xyz
  'x, y, z'

loop_
  _atom_site_type_symbol
  _atom_site_label
  _atom_site_symmetry_multiplicity
  _atom_site_fract_x
  _atom_site_fract_y
  _atom_site_fract_z
  _atom_site_occupancy
  La  La1       1.0  0.29391464591026306  0.09249444305896759  0.2455556094646454  1.0000
  La  La2       1.0  0.6591193079948425  0.08515748381614685  0.5044960975646973  1.0000
  La  La3       1.0  0.38284188508987427  0.4191260039806366  0.40271559357643133  1.0000
  La  La4       1.0  0.18580222129821777  0.5652070641517639  0.30222633481025696  1.0000
  La  La5       1.0  0.7840546369552612  0.02338203229010105  0.15899331867694852  1.0000
  Ni  Ni1       1.0  0.5185507535934448  0.7507806420326233  0.3405084609985352  1.0000
  O   O1        1.0  0.30229613184928894  0.7647010087966919  0.9020666480064393  1.0000
  O   O2        1.0  0.8167767524719238  0.6131965517997742  0.47037473320961004  1.0000
  O   O3        1.0  0.6564511060714722  0.0741642415523529  0.862915337085724  1.0000
  Zn  Zn1       1.0  0.0265900157392025  0.2276357263326645  0.9671760797500611  1.0000
