data_image0
_chemical_formula_structural       La4Ni2O4
_chemical_formula_sum              "La4 Ni2 O4"
_cell_length_a       4.904911781038577
_cell_length_b       5.888847845416529
_cell_length_c       6.958873271942139
_cell_angle_alpha    121.59498678977144
_cell_angle_beta     113.64990770349006
_cell_angle_gamma    90.03822141738898

_space_group_name_H-M_alt    "P 1"
_space_group_IT_number       1

loop_
  _space_group_symop_operation_xyz
  'x, y, z'

loop_
  _atom_site_type_symbol
  _atom_site_label
  _atom_site_symmetry_multiplicity
  _atom_site_fract_x
  _atom_site_fract_y
  _atom_site_fract_z
  _atom_site_occupancy
  La  La1       1.0  0.7706902027130127  0.1972537487745285  0.7060986757278442  1.0000
  La  La2       1.0  0.040103938430547714  0.647574782371521  0.5701330304145813  1.0000
  La  La3       1.0  0.31962037086486816  0.9092414379119873  0.8310862183570862  1.0000
  La  La4       1.0  0.8021916151046753  0.05315136909484863  0.8858545422554016  1.0000
  Ni  Ni1       1.0  0.41944047808647156  0.6630617380142212  0.7710237503051758  1.0000
  Ni  Ni2       1.0  0.42998936772346497  0.39757224917411804  0.8433295488357544  1.0000
  O   O1        1.0  0.8620625138282776  0.9180659651756287  0.06319520622491837  1.0000
  O   O2        1.0  0.26362285017967224  0.8645851612091064  0.7243778705596924  1.0000
  O   O3        1.0  6.079673767089844e-06  0.5300564765930176  0.36434057354927063  1.0000
  O   O4        1.0  0.35594940185546875  0.41142556071281433  0.09481564164161682  1.0000
