data_image0
_chemical_formula_structural       La4NiO4Te
_chemical_formula_sum              "La4 Ni1 O4 Te1"
_cell_length_a       4.5030825336677
_cell_length_b       5.7277970719960996
_cell_length_c       7.2758660316467285
_cell_angle_alpha    115.30085860276347
_cell_angle_beta     110.77911400909133
_cell_angle_gamma    86.83738852630644

_space_group_name_H-M_alt    "P 1"
_space_group_IT_number       1

loop_
  _space_group_symop_operation_xyz
  'x, y, z'

loop_
  _atom_site_type_symbol
  _atom_site_label
  _atom_site_symmetry_multiplicity
  _atom_site_fract_x
  _atom_site_fract_y
  _atom_site_fract_z
  _atom_site_occupancy
  La  La1       1.0  0.7128737568855286  0.871163547039032  0.5583921670913696  1.0000
  La  La2       1.0  0.3150726854801178  0.18453364074230194  0.28564825654029846  1.0000
  La  La3       1.0  0.25337091088294983  0.8707378506660461  0.5966765284538269  1.0000
  La  La4       1.0  0.5114179849624634  0.4962409436702728  0.8361359238624573  1.0000
  Ni  Ni1       1.0  0.8454997539520264  0.17851951718330383  0.31403788924217224  1.0000
  O   O1        1.0  0.9114623069763184  0.9978712201118469  0.9466410279273987  1.0000
  O   O2        1.0  0.03480091691017151  0.9171866178512573  0.70147305727005  1.0000
  O   O3        1.0  0.7324511408805847  0.3902449607849121  0.6201393008232117  1.0000
  O   O4        1.0  0.6140793561935425  0.6538376212120056  0.13562873005867004  1.0000
  Te  Te1       1.0  0.15304985642433167  0.857717752456665  0.13211257755756378  1.0000
