data_image0
_chemical_formula_structural       La3Ni2O2SiTiTl
_chemical_formula_sum              "La3 Ni2 O2 Si1 Ti1 Tl1"
_cell_length_a       4.93818520819859
_cell_length_b       5.972270750128056
_cell_length_c       6.277623653411865
_cell_angle_alpha    120.62254854949677
_cell_angle_beta     122.58206948606608
_cell_angle_gamma    90.06268497446689

_space_group_name_H-M_alt    "P 1"
_space_group_IT_number       1

loop_
  _space_group_symop_operation_xyz
  'x, y, z'

loop_
  _atom_site_type_symbol
  _atom_site_label
  _atom_site_symmetry_multiplicity
  _atom_site_fract_x
  _atom_site_fract_y
  _atom_site_fract_z
  _atom_site_occupancy
  La  La1       1.0  0.6144233345985413  0.6731192469596863  0.3918893337249756  1.0000
  La  La2       1.0  0.38507136702537537  0.4468590021133423  0.6706044673919678  1.0000
  La  La3       1.0  0.6066901087760925  0.12886807322502136  0.2942083477973938  1.0000
  Ni  Ni1       1.0  0.371122270822525  0.8346596360206604  0.5585917234420776  1.0000
  Ni  Ni2       1.0  0.3575865924358368  0.4139232039451599  0.4725569784641266  1.0000
  O   O1        1.0  0.6985526084899902  0.9341385364532471  0.6560195088386536  1.0000
  O   O2        1.0  0.1077764630317688  0.16846540570259094  0.3982110917568207  1.0000
  Si  Si1       1.0  0.10393956303596497  0.8331535458564758  0.4045021831989288  1.0000
  Ti  Ti1       1.0  0.11046363413333893  0.31481558084487915  0.37039753794670105  1.0000
  Tl  Tl1       1.0  0.8718705773353577  0.17938366532325745  0.765102207660675  1.0000
