data_image0
_chemical_formula_structural       La3Ni3O3Tl
_chemical_formula_sum              "La3 Ni3 O3 Tl1"
_cell_length_a       5.843544067040814
_cell_length_b       6.843803978976142
_cell_length_c       7.239106178283691
_cell_angle_alpha    117.00012824047718
_cell_angle_beta     111.72854618109163
_cell_angle_gamma    89.43595837094706

_space_group_name_H-M_alt    "P 1"
_space_group_IT_number       1

loop_
  _space_group_symop_operation_xyz
  'x, y, z'

loop_
  _atom_site_type_symbol
  _atom_site_label
  _atom_site_symmetry_multiplicity
  _atom_site_fract_x
  _atom_site_fract_y
  _atom_site_fract_z
  _atom_site_occupancy
  La  La1       1.0  0.3090132772922516  0.6556931138038635  0.7326754927635193  1.0000
  La  La2       1.0  0.8220409154891968  0.15476544201374054  0.7800017595291138  1.0000
  La  La3       1.0  0.059462666511535645  0.7443587183952332  0.4437072277069092  1.0000
  Ni  Ni1       1.0  0.05482833459973335  0.351943701505661  0.431938111782074  1.0000
  Ni  Ni2       1.0  0.6716415286064148  0.851856529712677  0.9098654389381409  1.0000
  Ni  Ni3       1.0  0.557985246181488  0.04740827530622482  0.452500581741333  1.0000
  O   O1        1.0  0.9175990223884583  0.4016384780406952  0.5058001279830933  1.0000
  O   O2        1.0  0.034644551575183875  0.12185234576463701  0.18873168528079987  1.0000
  O   O3        1.0  0.4611370265483856  0.6726422309875488  0.4524381160736084  1.0000
  Tl  Tl1       1.0  0.5477138757705688  0.1943940818309784  0.11297237873077393  1.0000
