data_image0
_chemical_formula_structural       PPb6Pt
_chemical_formula_sum              "P1 Pb6 Pt1"
_cell_length_a       6.273511728633562
_cell_length_b       6.577354795983816
_cell_length_c       8.710803985595703
_cell_angle_alpha    108.97097462729668
_cell_angle_beta     91.73673785574016
_cell_angle_gamma    105.2425883308316

_space_group_name_H-M_alt    "P 1"
_space_group_IT_number       1

loop_
  _space_group_symop_operation_xyz
  'x, y, z'

loop_
  _atom_site_type_symbol
  _atom_site_label
  _atom_site_symmetry_multiplicity
  _atom_site_fract_x
  _atom_site_fract_y
  _atom_site_fract_z
  _atom_site_occupancy
  P   P1        1.0  0.5876666903495789  0.4876792132854461  0.07503608614206311  1.0000
  Pb  Pb1       1.0  0.615689218044281  0.28975358605384827  0.06193294003605841  1.0000
  Pb  Pb2       1.0  0.9361545443534852  0.8484930992126465  0.029707478359341594  1.0000
  Pb  Pb3       1.0  0.08622918277978896  0.4969255626201629  0.938542902469635  1.0000
  Pb  Pb4       1.0  0.5500735640525818  0.5124958157539368  0.09580455720424652  1.0000
  Pb  Pb5       1.0  0.6092631816864014  0.2851588726043701  0.44052669405937195  1.0000
  Pb  Pb6       1.0  0.580675482749939  0.37452948093414307  0.757997453212738  1.0000
  Pt  Pt1       1.0  0.03503143414855  0.9417279958724974  0.37202343344688416  1.0000
