data_image0
_chemical_formula_structural       PPb6Pt
_chemical_formula_sum              "P1 Pb6 Pt1"
_cell_length_a       5.622772825548213
_cell_length_b       5.735196690824471
_cell_length_c       11.246728897094727
_cell_angle_alpha    100.55816294200456
_cell_angle_beta     91.18061830944993
_cell_angle_gamma    93.6326441912966

_space_group_name_H-M_alt    "P 1"
_space_group_IT_number       1

loop_
  _space_group_symop_operation_xyz
  'x, y, z'

loop_
  _atom_site_type_symbol
  _atom_site_label
  _atom_site_symmetry_multiplicity
  _atom_site_fract_x
  _atom_site_fract_y
  _atom_site_fract_z
  _atom_site_occupancy
  P   P1        1.0  0.17371030151844025  0.47704312205314636  0.8268934488296509  1.0000
  Pb  Pb1       1.0  0.38006097078323364  0.09518155455589294  0.7015851140022278  1.0000
  Pb  Pb2       1.0  0.3802439868450165  0.9439364075660706  0.617965817451477  1.0000
  Pb  Pb3       1.0  0.38003575801849365  0.025969337671995163  0.23243215680122375  1.0000
  Pb  Pb4       1.0  0.8837593793869019  0.9172271490097046  0.2963755428791046  1.0000
  Pb  Pb5       1.0  0.37930142879486084  0.6838608980178833  0.2522657811641693  1.0000
  Pb  Pb6       1.0  0.18389976024627686  0.29061755537986755  0.6214616298675537  1.0000
  Pt  Pt1       1.0  0.6850821375846863  0.5190293192863464  0.4066750407218933  1.0000
