data_image0
_chemical_formula_structural       P2Pb6
_chemical_formula_sum              "P2 Pb6"
_cell_length_a       3.540067791033365
_cell_length_b       5.990352922779017
_cell_length_c       8.930816650390625
_cell_angle_alpha    115.8502943845279
_cell_angle_beta     87.99929001223926
_cell_angle_gamma    123.292141219563

_space_group_name_H-M_alt    "P 1"
_space_group_IT_number       1

loop_
  _space_group_symop_operation_xyz
  'x, y, z'

loop_
  _atom_site_type_symbol
  _atom_site_label
  _atom_site_symmetry_multiplicity
  _atom_site_fract_x
  _atom_site_fract_y
  _atom_site_fract_z
  _atom_site_occupancy
  P   P1        1.0  0.25286558270454407  0.37192967534065247  0.23913834989070892  1.0000
  P   P2        1.0  0.9079660177230835  0.3825089633464813  0.859703540802002  1.0000
  Pb  Pb1       1.0  0.7507422566413879  0.06418531388044357  0.18970155715942383  1.0000
  Pb  Pb2       1.0  0.19860543310642242  0.22900818288326263  0.2952921688556671  1.0000
  Pb  Pb3       1.0  0.29334068298339844  0.31513550877571106  0.12506221234798431  1.0000
  Pb  Pb4       1.0  0.7436485290527344  0.4168972671031952  0.0633651614189148  1.0000
  Pb  Pb5       1.0  0.3884645700454712  0.6065868139266968  0.17490045726299286  1.0000
  Pb  Pb6       1.0  0.7013257741928101  0.6443204879760742  0.9105425477027893  1.0000
