data_image0
_chemical_formula_structural       Hg4Pb4
_chemical_formula_sum              "Hg4 Pb4"
_cell_length_a       4.717391572067468
_cell_length_b       4.289599879601059
_cell_length_c       10.13011360168457
_cell_angle_alpha    104.416161629948
_cell_angle_beta     92.65744642485217
_cell_angle_gamma    131.27857453254416

_space_group_name_H-M_alt    "P 1"
_space_group_IT_number       1

loop_
  _space_group_symop_operation_xyz
  'x, y, z'

loop_
  _atom_site_type_symbol
  _atom_site_label
  _atom_site_symmetry_multiplicity
  _atom_site_fract_x
  _atom_site_fract_y
  _atom_site_fract_z
  _atom_site_occupancy
  Hg  Hg1       1.0  0.9659546613693237  0.6083892583847046  0.19256076216697693  1.0000
  Hg  Hg2       1.0  0.36381402611732483  0.7358104586601257  0.1012188270688057  1.0000
  Hg  Hg3       1.0  0.4181860685348511  0.5918917059898376  0.7592031359672546  1.0000
  Hg  Hg4       1.0  0.8385918736457825  0.09807060658931732  0.08940502256155014  1.0000
  Pb  Pb1       1.0  0.6348028182983398  0.7286638617515564  0.9264265894889832  1.0000
  Pb  Pb2       1.0  0.4715505540370941  0.20176100730895996  0.3622324466705322  1.0000
  Pb  Pb3       1.0  0.8447985053062439  0.5291231274604797  0.319953590631485  1.0000
  Pb  Pb4       1.0  0.039361622184515  0.6862274408340454  0.7855731248855591  1.0000
