data_image0
_chemical_formula_structural       IIn2LiMg2MnSbZr
_chemical_formula_sum              "I1 In2 Li1 Mg2 Mn1 Sb1 Zr1"
_cell_length_a       4.9165619917507435
_cell_length_b       5.38777967735372
_cell_length_c       6.4416399002075195
_cell_angle_alpha    89.65727035792969
_cell_angle_beta     88.9812522197371
_cell_angle_gamma    89.759266294513

_space_group_name_H-M_alt    "P 1"
_space_group_IT_number       1

loop_
  _space_group_symop_operation_xyz
  'x, y, z'

loop_
  _atom_site_type_symbol
  _atom_site_label
  _atom_site_symmetry_multiplicity
  _atom_site_fract_x
  _atom_site_fract_y
  _atom_site_fract_z
  _atom_site_occupancy
  I   I1        1.0  0.5194072723388672  0.7124969363212585  0.21905896067619327  1.0000
  In  In1       1.0  0.004168033599853516  0.5768303275108337  0.8107644319534303  1.0000
  In  In2       1.0  0.0214442927390337  0.6980354189872742  0.9256432056427003  1.0000
  Li  Li1       1.0  0.5032638311386108  0.4116404354572296  0.8493175506591798  1.0000
  Mg  Mg1       1.0  0.5083187818527222  0.40354183316230774  0.6867959499359131  1.0000
  Mg  Mg2       1.0  0.5152249336242676  0.13907299935817719  0.015841765329241753  1.0000
  Mn  Mn1       1.0  0.016811015084385872  0.02259174734354019  0.5406737327575684  1.0000
  Sb  Sb1       1.0  0.5184698104858398  0.5383832454681396  0.9878222942352296  1.0000
  Zr  Zr1       1.0  0.02183908224105835  0.20858509838581085  0.6238133311271667  1.0000
