data_image0
_chemical_formula_structural       AsCoGaLiPbPtTbZnZr
_chemical_formula_sum              "As1 Co1 Ga1 Li1 Pb1 Pt1 Tb1 Zn1 Zr1"
_cell_length_a       5.203230022063582
_cell_length_b       5.003355097144298
_cell_length_c       5.611712455749512
_cell_angle_alpha    110.50358288941923
_cell_angle_beta     90.40473317265625
_cell_angle_gamma    89.33927521696366

_space_group_name_H-M_alt    "P 1"
_space_group_IT_number       1

loop_
  _space_group_symop_operation_xyz
  'x, y, z'

loop_
  _atom_site_type_symbol
  _atom_site_label
  _atom_site_symmetry_multiplicity
  _atom_site_fract_x
  _atom_site_fract_y
  _atom_site_fract_z
  _atom_site_occupancy
  As  As1       1.0  0.42056718468666077  0.2820504605770111  0.14756985008716583  1.0000
  Co  Co1       1.0  0.9332506060600281  0.7354905605316162  0.7387174963951111  1.0000
  Ga  Ga1       1.0  0.4433557689189911  0.4635362923145294  0.6021693348884583  1.0000
  Li  Li1       1.0  0.9261245727539062  0.5402570962905884  0.3261024057865143  1.0000
  Pb  Pb1       1.0  0.40280869603157043  0.8996269106864929  0.919101357460022  1.0000
  Pt  Pt1       1.0  0.9194386005401611  0.5400626063346863  0.2799154222011566  1.0000
  Tb  Tb1       1.0  0.4312819540500641  0.8748577237129211  0.6979219317436218  1.0000
  Zn  Zn1       1.0  0.9444014430046082  0.15578964352607727  0.07147187739610672  1.0000
  Zr  Zr1       1.0  0.9468534588813782  0.6725478172302246  0.654263973236084  1.0000
