data_image0
_chemical_formula_structural       GeI2IrMn2PtRbSc
_chemical_formula_sum              "Ge1 I2 Ir1 Mn2 Pt1 Rb1 Sc1"
_cell_length_a       6.705016268252928
_cell_length_b       6.977529164375639
_cell_length_c       7.556356430053711
_cell_angle_alpha    75.29553228005616
_cell_angle_beta     64.17041441744006
_cell_angle_gamma    61.462678917228736

_space_group_name_H-M_alt    "P 1"
_space_group_IT_number       1

loop_
  _space_group_symop_operation_xyz
  'x, y, z'

loop_
  _atom_site_type_symbol
  _atom_site_label
  _atom_site_symmetry_multiplicity
  _atom_site_fract_x
  _atom_site_fract_y
  _atom_site_fract_z
  _atom_site_occupancy
  Ge  Ge1       1.0  0.20864826440811154  0.26707902550697327  0.080629363656044  1.0000
  I   I1        1.0  0.20773847401142118  0.06816580891609192  0.24365606904029843  1.0000
  I   I2        1.0  0.20377436280250547  0.01940404810011387  0.6844322085380554  1.0000
  Ir  Ir1       1.0  0.7000658512115479  0.6609337329864502  0.8456307649612426  1.0000
  Mn  Mn1       1.0  0.7155746221542358  0.6423008441925049  0.8928919434547423  1.0000
  Mn  Mn2       1.0  0.208877757191658  0.6949639320373535  0.7121425271034241  1.0000
  Pt  Pt1       1.0  0.5254583954811096  0.4145734906196594  0.3002910017967224  1.0000
  Rb  Rb1       1.0  0.7100083827972412  0.6572572588920593  0.5898728966712952  1.0000
  Sc  Sc1       1.0  0.20433579385280606  0.3649614155292511  0.9113242030143737  1.0000
