data_image0
_chemical_formula_structural       ClI2Mn6
_chemical_formula_sum              "Cl1 I2 Mn6"
_cell_length_a       6.11841935929627
_cell_length_b       5.982801137249713
_cell_length_c       5.979613780975342
_cell_angle_alpha    72.24203737885065
_cell_angle_beta     64.87317571825193
_cell_angle_gamma    62.33039797294615

_space_group_name_H-M_alt    "P 1"
_space_group_IT_number       1

loop_
  _space_group_symop_operation_xyz
  'x, y, z'

loop_
  _atom_site_type_symbol
  _atom_site_label
  _atom_site_symmetry_multiplicity
  _atom_site_fract_x
  _atom_site_fract_y
  _atom_site_fract_z
  _atom_site_occupancy
  Cl  Cl1       1.0  0.6269310712814331  0.8025619387626648  0.6938460469245911  1.0000
  I   I1        1.0  0.08317365497350693  0.6543763875961304  0.026549987494945523  1.0000
  I   I2        1.0  0.11430238932371141  0.9285351634025574  0.12610802054405212  1.0000
  Mn  Mn1       1.0  0.11786118894815446  0.26611608266830444  0.0916713997721672  1.0000
  Mn  Mn2       1.0  0.6283055543899536  0.33043810725212097  0.5278805494308472  1.0000
  Mn  Mn3       1.0  0.5877453088760376  0.06903208792209625  0.30949366092681885  1.0000
  Mn  Mn4       1.0  0.6273353099822998  0.9727708697319031  0.8819768428802489  1.0000
  Mn  Mn5       1.0  0.12726107239723206  0.24328045547008514  0.6061511635780334  1.0000
  Mn  Mn6       1.0  0.13140350580215454  0.732913076877594  0.4379389882087707  1.0000
