data_image0
_chemical_formula_structural       Co2NiP3Y3
_chemical_formula_sum              "Co2 Ni1 P3 Y3"
_cell_length_a       3.892619247140384
_cell_length_b       5.846916824932123
_cell_length_c       8.226175308227539
_cell_angle_alpha    90.37360000581526
_cell_angle_beta     99.51423197687575
_cell_angle_gamma    89.62314587282458

_space_group_name_H-M_alt    "P 1"
_space_group_IT_number       1

loop_
  _space_group_symop_operation_xyz
  'x, y, z'

loop_
  _atom_site_type_symbol
  _atom_site_label
  _atom_site_symmetry_multiplicity
  _atom_site_fract_x
  _atom_site_fract_y
  _atom_site_fract_z
  _atom_site_occupancy
  Co  Co1       1.0  0.49103114008903503  0.17893150448799133  0.433641254901886  1.0000
  Co  Co2       1.0  0.42776042222976685  0.30363929271698  0.5040329694747925  1.0000
  Ni  Ni1       1.0  0.9394562244415283  0.5443305373191833  0.5241323709487915  1.0000
  P   P1        1.0  0.9326691627502441  0.28020602464675903  0.07136306166648865  1.0000
  P   P2        1.0  0.46954047679901123  0.03960729017853737  0.3807039260864258  1.0000
  P   P3        1.0  0.7907655835151672  0.9312280416488647  0.5898194909095764  1.0000
  Y   Y1        1.0  0.3253861665725708  0.6869626045227051  0.14405624568462372  1.0000
  Y   Y2        1.0  0.677421510219574  0.5445676445960999  0.8234260678291321  1.0000
  Y   Y3        1.0  0.4247540533542633  0.8063898682594299  0.9461020231246948  1.0000
