data_image0
_chemical_formula_structural       Co2Ni2P2Y3
_chemical_formula_sum              "Co2 Ni2 P2 Y3"
_cell_length_a       4.137823716653186
_cell_length_b       5.35346666280134
_cell_length_c       8.69623851776123
_cell_angle_alpha    90.55575419000229
_cell_angle_beta     90.38142395078351
_cell_angle_gamma    107.38747257620012

_space_group_name_H-M_alt    "P 1"
_space_group_IT_number       1

loop_
  _space_group_symop_operation_xyz
  'x, y, z'

loop_
  _atom_site_type_symbol
  _atom_site_label
  _atom_site_symmetry_multiplicity
  _atom_site_fract_x
  _atom_site_fract_y
  _atom_site_fract_z
  _atom_site_occupancy
  Co  Co1       1.0  0.8601163029670715  0.6423406004905701  0.2695072293281555  1.0000
  Co  Co2       1.0  0.48737990856170654  0.8405574560165405  0.03887074440717697  1.0000
  Ni  Ni1       1.0  0.3802018165588379  0.11811747401952744  0.3154504895210266  1.0000
  Ni  Ni2       1.0  0.09617091715335846  0.11501262336969376  0.27288112044334417  1.0000
  P   P1        1.0  0.38100335001945496  0.337622731924057  0.35206156969070435  1.0000
  P   P2        1.0  0.854684591293335  0.6218525171279907  0.9836832284927369  1.0000
  Y   Y1        1.0  0.6517998576164246  0.8572744727134705  0.697595477104187  1.0000
  Y   Y2        1.0  0.04842066392302513  0.8408488035202026  0.5349541306495667  1.0000
  Y   Y3        1.0  0.37269312143325806  0.12014789879322052  0.8264217972755432  1.0000
