data_image0
_chemical_formula_structural       Co3PY5
_chemical_formula_sum              "Co3 P1 Y5"
_cell_length_a       3.898971287760632
_cell_length_b       1.847134955662655
_cell_length_c       6.263408184051514
_cell_angle_alpha    81.53032681880407
_cell_angle_beta     92.06390957576588
_cell_angle_gamma    169.8165004122629

_space_group_name_H-M_alt    "P 1"
_space_group_IT_number       1

loop_
  _space_group_symop_operation_xyz
  'x, y, z'

loop_
  _atom_site_type_symbol
  _atom_site_label
  _atom_site_symmetry_multiplicity
  _atom_site_fract_x
  _atom_site_fract_y
  _atom_site_fract_z
  _atom_site_occupancy
  Co  Co1       1.0  0.47147285938262945  0.00933142751455307  0.3016566038131714  1.0000
  Co  Co2       1.0  0.9538649320602418  0.9709360599517822  0.31774967908859253  1.0000
  Co  Co3       1.0  0.6876674890518188  0.4177475571632385  0.9392900466918944  1.0000
  P   P1        1.0  0.6647489666938782  0.8162306547164917  0.8622654080390929  1.0000
  Y   Y1        1.0  0.5816934704780579  0.17373789846897125  0.57936030626297  1.0000
  Y   Y2        1.0  0.017911260947585106  0.5753999352455139  0.5327629446983337  1.0000
  Y   Y3        1.0  0.011930951848626137  0.08819512277841568  0.0995771288871765  1.0000
  Y   Y4        1.0  0.3076268434524536  0.42371419072151184  0.1563766598701477  1.0000
  Y   Y5        1.0  0.6434198617935181  0.8130889534950256  0.9950622916221618  1.0000
