data_image0
_chemical_formula_structural       ClCo3P4V
_chemical_formula_sum              "Cl1 Co3 P4 V1"
_cell_length_a       3.9768032119260717
_cell_length_b       5.164274798326496
_cell_length_c       8.495538711547852
_cell_angle_alpha    87.84073909092581
_cell_angle_beta     91.96941776833263
_cell_angle_gamma    95.79663870364735

_space_group_name_H-M_alt    "P 1"
_space_group_IT_number       1

loop_
  _space_group_symop_operation_xyz
  'x, y, z'

loop_
  _atom_site_type_symbol
  _atom_site_label
  _atom_site_symmetry_multiplicity
  _atom_site_fract_x
  _atom_site_fract_y
  _atom_site_fract_z
  _atom_site_occupancy
  Cl  Cl1       1.0  0.03531207516789436  0.05875473469495773  0.8763369917869568  1.0000
  Co  Co1       1.0  0.42905744910240173  0.7656717896461487  0.157033771276474  1.0000
  Co  Co2       1.0  0.4378756284713745  0.24517691135406494  0.4600543975830078  1.0000
  Co  Co3       1.0  0.07165934145450592  0.5156634449958801  0.005497236270457506  1.0000
  P   P1        1.0  0.44790345430374146  0.9966772198677063  0.2841237485408783  1.0000
  P   P2        1.0  0.4518909156322479  0.27574965357780457  0.8266242742538452  1.0000
  P   P3        1.0  0.947464644908905  0.3148718774318695  0.3154388666152954  1.0000
  P   P4        1.0  0.452294260263443  0.7472595572471619  0.7651167511940002  1.0000
  V   V1        1.0  0.8588153719902039  0.8257181644439697  0.9942338466644287  1.0000
