data_image0
_chemical_formula_structural       Co3PY5
_chemical_formula_sum              "Co3 P1 Y5"
_cell_length_a       3.9053660086887487
_cell_length_b       4.497505059019638
_cell_length_c       8.799101829528809
_cell_angle_alpha    91.10918169388923
_cell_angle_beta     91.60984655720294
_cell_angle_gamma    116.61910139581042

_space_group_name_H-M_alt    "P 1"
_space_group_IT_number       1

loop_
  _space_group_symop_operation_xyz
  'x, y, z'

loop_
  _atom_site_type_symbol
  _atom_site_label
  _atom_site_symmetry_multiplicity
  _atom_site_fract_x
  _atom_site_fract_y
  _atom_site_fract_z
  _atom_site_occupancy
  Co  Co1       1.0  0.11312059313058852  0.15501917898654938  0.21316593885421753  1.0000
  Co  Co2       1.0  0.5687687993049622  0.10098059475421906  0.31509929895401  1.0000
  Co  Co3       1.0  0.5057318210601807  0.7848328948020935  0.7878087162971497  1.0000
  P   P1        1.0  0.8371146321296691  0.7741899490356445  0.00012647085532080225  1.0000
  Y   Y1        1.0  0.10753080248832701  0.3442367613315582  0.3264389634132385  1.0000
  Y   Y2        1.0  0.16545456647872925  0.6358097791671753  0.9919951558113098  1.0000
  Y   Y3        1.0  0.5437189936637878  0.8188470005989075  0.4837469756603241  1.0000
  Y   Y4        1.0  0.08618105947971343  0.7291303277015686  0.8727188110351562  1.0000
  Y   Y5        1.0  0.9202802181243895  0.5728378891944885  0.7139429450035095  1.0000
