data_image0
_chemical_formula_structural       As2GeOs2V4
_chemical_formula_sum              "As2 Ge1 Os2 V4"
_cell_length_a       3.9292697559309966
_cell_length_b       5.805643209575305
_cell_length_c       6.533564567565918
_cell_angle_alpha    125.57630175804822
_cell_angle_beta     91.85641534749404
_cell_angle_gamma    86.59973580353598

_space_group_name_H-M_alt    "P 1"
_space_group_IT_number       1

loop_
  _space_group_symop_operation_xyz
  'x, y, z'

loop_
  _atom_site_type_symbol
  _atom_site_label
  _atom_site_symmetry_multiplicity
  _atom_site_fract_x
  _atom_site_fract_y
  _atom_site_fract_z
  _atom_site_occupancy
  As  As1       1.0  0.0698213204741478  0.8100477457046509  0.24696293473243722  1.0000
  As  As2       1.0  0.07306564599275589  0.18274569511413574  0.3137263059616089  1.0000
  Ge  Ge1       1.0  0.06906313449144363  0.936040461063385  0.7785877585411072  1.0000
  Os  Os1       1.0  0.07638497650623322  0.6142273545265198  0.9724149107933044  1.0000
  Os  Os2       1.0  0.0723591297864914  0.3914126455783844  0.49291446805000305  1.0000
  V   V1        1.0  0.07241816073656082  0.301742821931839  0.5637218952178955  1.0000
  V   V2        1.0  0.5649343729019165  0.4370725452899933  0.6021114587783813  1.0000
  V   V3        1.0  0.5683873295783997  0.10016299784183502  0.2678180932998657  1.0000
  V   V4        1.0  0.5737577676773071  0.8068387508392334  0.9850468635559082  1.0000
