data_image0
_chemical_formula_structural       As2GeOs3V2Zr
_chemical_formula_sum              "As2 Ge1 Os3 V2 Zr1"
_cell_length_a       4.157149291785886
_cell_length_b       6.446361882801642
_cell_length_c       6.4430694580078125
_cell_angle_alpha    123.27298030686241
_cell_angle_beta     88.20648538597244
_cell_angle_gamma    90.72649082764208

_space_group_name_H-M_alt    "P 1"
_space_group_IT_number       1

loop_
  _space_group_symop_operation_xyz
  'x, y, z'

loop_
  _atom_site_type_symbol
  _atom_site_label
  _atom_site_symmetry_multiplicity
  _atom_site_fract_x
  _atom_site_fract_y
  _atom_site_fract_z
  _atom_site_occupancy
  As  As1       1.0  0.6250593066215515  0.38739854097366333  0.4188474118709564  1.0000
  As  As2       1.0  0.125247061252594  0.5020979046821594  0.7835308909416199  1.0000
  Ge  Ge1       1.0  0.6197109222412109  0.6643155217170715  0.20824536681175232  1.0000
  Os  Os1       1.0  0.12317672371864319  0.5107041597366333  0.3310532867908478  1.0000
  Os  Os2       1.0  0.11995476484298706  0.5203688740730286  0.8062355518341064  1.0000
  Os  Os3       1.0  0.6197651624679565  0.11660546064376831  0.07366684824228287  1.0000
  V   V1        1.0  0.11575719714164734  0.1393551379442215  0.4861701726913452  1.0000
  V   V2        1.0  0.619372546672821  0.9654524922370911  0.6116304397583009  1.0000
  Zr  Zr1       1.0  0.12018721550703049  0.0032879640348255634  0.6231299042701721  1.0000
