data_image0
_chemical_formula_structural       As2Ge2OsV4
_chemical_formula_sum              "As2 Ge2 Os1 V4"
_cell_length_a       4.0629232946147935
_cell_length_b       5.604031987119069
_cell_length_c       6.96237325668335
_cell_angle_alpha    117.70022660945989
_cell_angle_beta     91.27443611334543
_cell_angle_gamma    88.97984220009734

_space_group_name_H-M_alt    "P 1"
_space_group_IT_number       1

loop_
  _space_group_symop_operation_xyz
  'x, y, z'

loop_
  _atom_site_type_symbol
  _atom_site_label
  _atom_site_symmetry_multiplicity
  _atom_site_fract_x
  _atom_site_fract_y
  _atom_site_fract_z
  _atom_site_occupancy
  As  As1       1.0  0.12492701411247253  0.6798109412193298  0.46501943469047546  1.0000
  As  As2       1.0  0.619522213935852  0.05292234197258949  0.8948624134063721  1.0000
  Ge  Ge1       1.0  0.6223363280296326  0.1994905173778534  0.836341142654419  1.0000
  Ge  Ge2       1.0  0.1228068619966507  0.18149709701538086  0.4224684536457062  1.0000
  Os  Os1       1.0  0.1190018430352211  0.9310871362686157  0.40014252066612244  1.0000
  V   V1        1.0  0.6215972900390625  0.6471896171569824  0.9358917474746704  1.0000
  V   V2        1.0  0.12193010747432709  0.7244462966918945  0.20984551310539246  1.0000
  V   V3        1.0  0.11878389865159988  0.17067039012908936  0.9112326502799988  1.0000
  V   V4        1.0  0.620204508304596  0.5253113508224487  0.6398602724075317  1.0000
