data_image0
_chemical_formula_structural       AsBaGe2OsV2Zr2
_chemical_formula_sum              "As1 Ba1 Ge2 Os1 V2 Zr2"
_cell_length_a       3.810451053699947
_cell_length_b       6.374499232813943
_cell_length_c       7.337862491607666
_cell_angle_alpha    119.22135155590595
_cell_angle_beta     90.36544856349809
_cell_angle_gamma    89.52473797200973

_space_group_name_H-M_alt    "P 1"
_space_group_IT_number       1

loop_
  _space_group_symop_operation_xyz
  'x, y, z'

loop_
  _atom_site_type_symbol
  _atom_site_label
  _atom_site_symmetry_multiplicity
  _atom_site_fract_x
  _atom_site_fract_y
  _atom_site_fract_z
  _atom_site_occupancy
  As  As1       1.0  0.9844202399253844  0.684693455696106  0.9741575717926025  1.0000
  Ba  Ba1       1.0  0.9864901900291442  0.9706089496612549  0.07135432213544846  1.0000
  Ge  Ge1       1.0  0.48681664466857905  0.44985872507095337  0.5823079347610474  1.0000
  Ge  Ge2       1.0  0.9863269329071044  0.2369544357061386  0.9328655004501343  1.0000
  Os  Os1       1.0  0.4902579486370086  0.4860428273677826  0.40211233496665955  1.0000
  V   V1        1.0  0.4850685000419616  0.5658787488937378  0.6579769253730774  1.0000
  V   V2        1.0  0.9860928654670714  0.5053623914718628  0.8728838562965393  1.0000
  Zr  Zr1       1.0  0.48353424668312067  0.9948133230209351  0.07246845215559006  1.0000
  Zr  Zr2       1.0  0.9876757860183715  0.10287836939096451  0.17443278431892395  1.0000
