data_image0
_chemical_formula_structural       AgAs2GeOs5
_chemical_formula_sum              "Ag1 As2 Ge1 Os5"
_cell_length_a       3.477932684632557
_cell_length_b       6.820176927879736
_cell_length_c       6.181708812713623
_cell_angle_alpha    125.42053844786311
_cell_angle_beta     83.83614144147907
_cell_angle_gamma    89.36915896114014

_space_group_name_H-M_alt    "P 1"
_space_group_IT_number       1

loop_
  _space_group_symop_operation_xyz
  'x, y, z'

loop_
  _atom_site_type_symbol
  _atom_site_label
  _atom_site_symmetry_multiplicity
  _atom_site_fract_x
  _atom_site_fract_y
  _atom_site_fract_z
  _atom_site_occupancy
  Ag  Ag1       1.0  0.6398276090621948  0.3182237148284912  0.4657992720603943  1.0000
  As  As1       1.0  0.1389673948287964  0.15331444144248962  0.453974187374115  1.0000
  As  As2       1.0  0.1405486911535263  0.826514720916748  0.7954817414283752  1.0000
  Ge  Ge1       1.0  0.6320227980613708  0.6427865624427795  0.984096109867096  1.0000
  Os  Os1       1.0  0.14434218406677246  0.17511619627475739  0.34188732504844666  1.0000
  Os  Os2       1.0  0.6407038569450378  0.6835275888442993  0.7182266116142273  1.0000
  Os  Os3       1.0  0.6433870792388916  0.7742390036582947  0.08387339860200882  1.0000
  Os  Os4       1.0  0.6505341529846191  0.18415944278240204  0.13616512715816498  1.0000
  Os  Os5       1.0  0.12835215032100677  0.5232234001159668  0.434725821018219  1.0000
