data_image0
_chemical_formula_structural       AgAs2GeOs5
_chemical_formula_sum              "Ag1 As2 Ge1 Os5"
_cell_length_a       4.116728283537939
_cell_length_b       6.723682234083017
_cell_length_c       6.3189592361450195
_cell_angle_alpha    124.87067890999107
_cell_angle_beta     90.89994572011086
_cell_angle_gamma    85.68362492910161

_space_group_name_H-M_alt    "P 1"
_space_group_IT_number       1

loop_
  _space_group_symop_operation_xyz
  'x, y, z'

loop_
  _atom_site_type_symbol
  _atom_site_label
  _atom_site_symmetry_multiplicity
  _atom_site_fract_x
  _atom_site_fract_y
  _atom_site_fract_z
  _atom_site_occupancy
  Ag  Ag1       1.0  0.09135808050632477  0.31900471448898315  0.10842356085777283  1.0000
  As  As1       1.0  0.09351243078708649  0.778664231300354  0.4373514354228973  1.0000
  As  As2       1.0  0.5948687195777893  0.28430789709091187  0.780856728553772  1.0000
  Ge  Ge1       1.0  0.10727355629205704  0.7811928391456604  0.9165895581245423  1.0000
  Os  Os1       1.0  0.0995643138885498  0.9352748990058899  0.436426430940628  1.0000
  Os  Os2       1.0  0.5896872878074646  0.8945192694664001  0.5272129774093628  1.0000
  Os  Os3       1.0  0.6085377931594849  0.7705758213996887  0.3334053456783294  1.0000
  Os  Os4       1.0  0.09041990339756012  0.41743549704551697  0.8060175776481628  1.0000
  Os  Os5       1.0  0.5791641473770142  0.2710902988910675  0.842465877532959  1.0000
