data_image0
_chemical_formula_structural       DyI6KPSc
_chemical_formula_sum              "Dy1 I6 K1 P1 Sc1"
_cell_length_a       8.605059589905428
_cell_length_b       8.311626110152583
_cell_length_c       8.666184425354004
_cell_angle_alpha    109.90216366209314
_cell_angle_beta     106.43494866232656
_cell_angle_gamma    106.61658996671571

_space_group_name_H-M_alt    "P 1"
_space_group_IT_number       1

loop_
  _space_group_symop_operation_xyz
  'x, y, z'

loop_
  _atom_site_type_symbol
  _atom_site_label
  _atom_site_symmetry_multiplicity
  _atom_site_fract_x
  _atom_site_fract_y
  _atom_site_fract_z
  _atom_site_occupancy
  Dy  Dy1       1.0  0.9602020978927612  0.6899350881576538  0.37464135885238636  1.0000
  I   I1        1.0  0.4489639103412628  0.9329674243927002  0.12702074646949763  1.0000
  I   I2        1.0  0.0047362735494971275  0.36501216888427734  0.11321903765201569  1.0000
  I   I3        1.0  0.9958004951477051  0.6436850428581238  0.6615675687789916  1.0000
  I   I4        1.0  0.18265338242053986  0.8382880091667175  0.055074170231819104  1.0000
  I   I5        1.0  0.950316846370697  0.16307123005390167  0.8147815465927124  1.0000
  I   I6        1.0  0.49091681838035583  0.1067124754190445  0.19322471320629117  1.0000
  K   K1        1.0  0.49552392959594727  0.6203681230545044  0.08563251048326488  1.0000
  P   P1        1.0  0.6017459034919739  0.3043578863143921  0.47614169120788574  1.0000
  Sc  Sc1       1.0  0.9791939854621887  0.06412109732627869  0.6545597314834595  1.0000
