data_image0
_chemical_formula_structural       Dy2I7Zn
_chemical_formula_sum              "Dy2 I7 Zn1"
_cell_length_a       7.317000661801501
_cell_length_b       7.422745261007285
_cell_length_c       9.123001098632812
_cell_angle_alpha    113.86404506512052
_cell_angle_beta     102.555343519586
_cell_angle_gamma    101.13154777410696

_space_group_name_H-M_alt    "P 1"
_space_group_IT_number       1

loop_
  _space_group_symop_operation_xyz
  'x, y, z'

loop_
  _atom_site_type_symbol
  _atom_site_label
  _atom_site_symmetry_multiplicity
  _atom_site_fract_x
  _atom_site_fract_y
  _atom_site_fract_z
  _atom_site_occupancy
  Dy  Dy1       1.0  0.8016558289527893  0.6400059461593628  0.4325717091560363  1.0000
  Dy  Dy2       1.0  0.29504042863845825  0.4421848952770233  0.615920901298523  1.0000
  I   I1        1.0  0.9794412851333618  0.5570709705352783  0.903802752494812  1.0000
  I   I2        1.0  0.2966209352016449  0.0972839966416359  0.7990493178367615  1.0000
  I   I3        1.0  0.5148966908454895  0.5331026315689087  0.7264792323112488  1.0000
  I   I4        1.0  0.28753727674484253  0.24762119352817535  0.2258172333240509  1.0000
  I   I5        1.0  0.7810091376304626  0.7629252076148987  0.23924136161804194  1.0000
  I   I6        1.0  0.13715165853500366  0.7001850008964539  0.38678619265556335  1.0000
  I   I7        1.0  0.5535970330238342  0.7486958503723145  0.4673786461353302  1.0000
  Zn  Zn1       1.0  0.8535204529762268  0.41998404264450073  0.43931007385253906  1.0000
