data_image0
_chemical_formula_structural       I6KSVZn
_chemical_formula_sum              "I6 K1 S1 V1 Zn1"
_cell_length_a       6.921860522758141
_cell_length_b       6.680235538676828
_cell_length_c       9.09133529663086
_cell_angle_alpha    116.4770928756464
_cell_angle_beta     116.80546711742328
_cell_angle_gamma    90.58029133856341

_space_group_name_H-M_alt    "P 1"
_space_group_IT_number       1

loop_
  _space_group_symop_operation_xyz
  'x, y, z'

loop_
  _atom_site_type_symbol
  _atom_site_label
  _atom_site_symmetry_multiplicity
  _atom_site_fract_x
  _atom_site_fract_y
  _atom_site_fract_z
  _atom_site_occupancy
  I   I1        1.0  0.538891077041626  0.6061978340148926  0.0008906172006390257  1.0000
  I   I2        1.0  0.24123118817806244  0.4241195023059845  0.2183999866247177  1.0000
  I   I3        1.0  0.33543163537979126  0.5639818906784058  0.2641922831535339  1.0000
  I   I4        1.0  0.028522832319140434  0.26323941349983215  0.9717536568641663  1.0000
  I   I5        1.0  0.03347756713628769  0.746187686920166  0.08459722995758052  1.0000
  I   I6        1.0  0.807216465473175  0.39720550179481506  0.19485673308372498  1.0000
  K   K1        1.0  0.9941195249557495  0.11811213940382004  0.45077213644981384  1.0000
  S   S1        1.0  0.2537969946861267  0.3205311894416809  0.5556861758232117  1.0000
  V   V1        1.0  0.7856471538543701  0.5540715456008911  0.548027515411377  1.0000
  Zn  Zn1       1.0  0.7346248030662537  0.182805597782135  0.7646404504776001  1.0000
