data_image0
_chemical_formula_structural       Dy6I4
_chemical_formula_sum              "Dy6 I4"
_cell_length_a       8.855783593875975
_cell_length_b       8.932163352411138
_cell_length_c       9.19172477722168
_cell_angle_alpha    110.23996120719443
_cell_angle_beta     109.16819614621878
_cell_angle_gamma    112.50827272750432

_space_group_name_H-M_alt    "P 1"
_space_group_IT_number       1

loop_
  _space_group_symop_operation_xyz
  'x, y, z'

loop_
  _atom_site_type_symbol
  _atom_site_label
  _atom_site_symmetry_multiplicity
  _atom_site_fract_x
  _atom_site_fract_y
  _atom_site_fract_z
  _atom_site_occupancy
  Dy  Dy1       1.0  0.5318671464920044  0.890821635723114  0.8864009976387024  1.0000
  Dy  Dy2       1.0  0.5917374491691589  0.8497095108032227  0.9367877244949341  1.0000
  Dy  Dy3       1.0  0.43357130885124207  0.3935058116912842  0.8437564969062805  1.0000
  Dy  Dy4       1.0  0.4409714639186859  0.15738391876220703  0.8491536974906921  1.0000
  Dy  Dy5       1.0  0.9357876181602478  0.5812243223190308  0.8786762952804565  1.0000
  Dy  Dy6       1.0  0.9402947425842285  0.6536065936088562  0.1272621899843216  1.0000
  I   I1        1.0  0.6787964701652527  0.6950653195381165  0.3549827039241791  1.0000
  I   I2        1.0  0.10672124475240707  0.1862621009349823  0.9594935178756714  1.0000
  I   I3        1.0  0.8520678877830505  0.22543193399906158  0.4611589014530182  1.0000
  I   I4        1.0  0.9451013207435608  0.24514299631118774  0.2280503213405609  1.0000
