data_image0
_chemical_formula_structural       Dy6I3K
_chemical_formula_sum              "Dy6 I3 K1"
_cell_length_a       8.690062933865635
_cell_length_b       8.902765899127926
_cell_length_c       8.921411514282227
_cell_angle_alpha    108.69982870544722
_cell_angle_beta     109.8218861827981
_cell_angle_gamma    111.44783278831432

_space_group_name_H-M_alt    "P 1"
_space_group_IT_number       1

loop_
  _space_group_symop_operation_xyz
  'x, y, z'

loop_
  _atom_site_type_symbol
  _atom_site_label
  _atom_site_symmetry_multiplicity
  _atom_site_fract_x
  _atom_site_fract_y
  _atom_site_fract_z
  _atom_site_occupancy
  Dy  Dy1       1.0  0.18908646702766418  0.8628642559051514  0.7299721240997314  1.0000
  Dy  Dy2       1.0  0.2025655061006546  0.8057478070259094  0.10124308615922928  1.0000
  Dy  Dy3       1.0  0.8499644994735718  0.08711965382099152  0.6560646295547485  1.0000
  Dy  Dy4       1.0  0.8637528419494629  0.46632242202758795  0.550032377243042  1.0000
  Dy  Dy5       1.0  0.5218875408172607  0.7684420347213745  0.9449913501739502  1.0000
  Dy  Dy6       1.0  0.8174564838409424  0.080475814640522  0.3279725313186645  1.0000
  I   I1        1.0  0.19482557475566875  0.977267622947693  0.24178940057754517  1.0000
  I   I2        1.0  0.18986666202545166  0.19242914021015167  0.5448987483978271  1.0000
  I   I3        1.0  0.3433193266391754  0.7661519646644592  0.6326531171798706  1.0000
  K   K1        1.0  0.8378908038139343  0.49159458279609686  0.968034565448761  1.0000
