data_image0
_chemical_formula_structural       Dy4I5V
_chemical_formula_sum              "Dy4 I5 V1"
_cell_length_a       7.895503493050869
_cell_length_b       7.752729327116213
_cell_length_c       7.940011978149414
_cell_angle_alpha    114.21430798576489
_cell_angle_beta     115.3241100218528
_cell_angle_gamma    109.18401748524852

_space_group_name_H-M_alt    "P 1"
_space_group_IT_number       1

loop_
  _space_group_symop_operation_xyz
  'x, y, z'

loop_
  _atom_site_type_symbol
  _atom_site_label
  _atom_site_symmetry_multiplicity
  _atom_site_fract_x
  _atom_site_fract_y
  _atom_site_fract_z
  _atom_site_occupancy
  Dy  Dy1       1.0  0.8695303201675415  0.5552182793617249  0.06287430226802826  1.0000
  Dy  Dy2       1.0  0.6151516437530518  0.22867964208126068  0.5828842520713806  1.0000
  Dy  Dy3       1.0  0.8579548001289368  0.8333463668823242  0.3680214285850525  1.0000
  Dy  Dy4       1.0  0.29101938009262085  0.2306995689868927  0.21685783565044406  1.0000
  I   I1        1.0  0.7855145335197449  0.48083779215812683  0.17328917980194092  1.0000
  I   I2        1.0  0.3886900842189789  0.5086751580238342  0.919878125190735  1.0000
  I   I3        1.0  0.3269258737564087  0.7484157085418701  0.6913048624992371  1.0000
  I   I4        1.0  0.8734936118125916  0.408336341381073  0.5249791145324707  1.0000
  I   I5        1.0  0.2616523504257202  0.8282536864280701  0.4729051291942596  1.0000
  V   V1        1.0  0.1352158933877945  0.7939064502716064  0.0036538853310048585  1.0000
