data_image0
_chemical_formula_structural       AgAs2Hg5O2
_chemical_formula_sum              "Ag1 As2 Hg5 O2"
_cell_length_a       6.899765678736358
_cell_length_b       7.343630588291421
_cell_length_c       7.121135711669922
_cell_angle_alpha    107.08005189786468
_cell_angle_beta     106.35803460086258
_cell_angle_gamma    112.01153050564268

_space_group_name_H-M_alt    "P 1"
_space_group_IT_number       1

loop_
  _space_group_symop_operation_xyz
  'x, y, z'

loop_
  _atom_site_type_symbol
  _atom_site_label
  _atom_site_symmetry_multiplicity
  _atom_site_fract_x
  _atom_site_fract_y
  _atom_site_fract_z
  _atom_site_occupancy
  Ag  Ag1       1.0  0.9423513412475586  0.49688956141471863  0.8729677200317383  1.0000
  As  As1       1.0  0.07983872294425964  0.20441965758800507  0.04921161010861397  1.0000
  As  As2       1.0  0.7717047929763794  0.25393882393836975  0.12199019640684128  1.0000
  Hg  Hg1       1.0  0.5822281837463379  0.9534792900085449  0.12350498139858246  1.0000
  Hg  Hg2       1.0  0.5485342144966125  0.9544891715049744  0.7794994711875916  1.0000
  Hg  Hg3       1.0  0.38418981432914734  0.4418977200984955  0.751929521560669  1.0000
  Hg  Hg4       1.0  0.22881996631622314  0.7853280901908875  0.2621965408325196  1.0000
  Hg  Hg5       1.0  0.9695066213607788  0.5024691820144653  0.5004627108573914  1.0000
  O   O1        1.0  0.9981257915496826  0.955575168132782  0.5014420747756958  1.0000
  O   O2        1.0  0.5842713117599487  0.9420852661132812  0.5990071892738342  1.0000
