data_image0
_chemical_formula_structural       AsHg7O2
_chemical_formula_sum              "As1 Hg7 O2"
_cell_length_a       6.844190249578185
_cell_length_b       7.29435972692265
_cell_length_c       6.913088798522949
_cell_angle_alpha    110.05766384429324
_cell_angle_beta     107.4141927080678
_cell_angle_gamma    109.57463491550821

_space_group_name_H-M_alt    "P 1"
_space_group_IT_number       1

loop_
  _space_group_symop_operation_xyz
  'x, y, z'

loop_
  _atom_site_type_symbol
  _atom_site_label
  _atom_site_symmetry_multiplicity
  _atom_site_fract_x
  _atom_site_fract_y
  _atom_site_fract_z
  _atom_site_occupancy
  As  As1       1.0  0.777597188949585  0.8406506776809692  0.8663900494575499  1.0000
  Hg  Hg1       1.0  0.4758588671684265  0.30405646562576294  0.7322737574577332  1.0000
  Hg  Hg2       1.0  0.14724381268024445  0.1633700728416443  0.7381191253662108  1.0000
  Hg  Hg3       1.0  0.14249388873577118  0.16873309016227722  0.12051101028919219  1.0000
  Hg  Hg4       1.0  0.15739069879055023  0.8800753355026245  0.22305226325988767  1.0000
  Hg  Hg5       1.0  0.4765489399433136  0.6487406492233276  0.7262359261512756  1.0000
  Hg  Hg6       1.0  0.8235371708869934  0.40055662393569946  0.42052423954010004  1.0000
  Hg  Hg7       1.0  0.48149824142456055  0.14769238233566284  0.22144216299057004  1.0000
  O   O1        1.0  0.8327203989028931  0.6335545778274536  0.6110802292823792  1.0000
  O   O2        1.0  0.5140174627304077  0.7996986508369446  0.40708145499229426  1.0000
