data_image0
_chemical_formula_structural       Hg7O3
_chemical_formula_sum              "Hg7 O3"
_cell_length_a       7.90412989859865
_cell_length_b       8.19672388413874
_cell_length_c       8.009061813354492
_cell_angle_alpha    110.13334170111814
_cell_angle_beta     109.76468279513934
_cell_angle_gamma    107.43678139227747

_space_group_name_H-M_alt    "P 1"
_space_group_IT_number       1

loop_
  _space_group_symop_operation_xyz
  'x, y, z'

loop_
  _atom_site_type_symbol
  _atom_site_label
  _atom_site_symmetry_multiplicity
  _atom_site_fract_x
  _atom_site_fract_y
  _atom_site_fract_z
  _atom_site_occupancy
  Hg  Hg1       1.0  0.2616812288761139  0.5440651178359985  0.5132099390029907  1.0000
  Hg  Hg2       1.0  0.9637529850006102  0.8491526246070862  0.08221229910850525  1.0000
  Hg  Hg3       1.0  0.24496398866176602  0.09200118482112885  0.2403213232755661  1.0000
  Hg  Hg4       1.0  0.787763476371765  0.08776732534170151  0.7414425611495972  1.0000
  Hg  Hg5       1.0  0.6419575214385986  0.7573917508125305  0.25564268231391907  1.0000
  Hg  Hg6       1.0  0.6258726119995117  0.5884333252906799  0.7583962678909302  1.0000
  Hg  Hg7       1.0  0.6456635594367981  0.11395180970430374  0.9901857972145081  1.0000
  O   O1        1.0  0.8967019915580748  0.9297094941139221  0.36293825507164  1.0000
  O   O2        1.0  0.40406173467636103  0.17837096750736237  0.527797281742096  1.0000
  O   O3        1.0  0.38047835230827326  0.863072395324707  0.6061154007911682  1.0000
