data_image0
_chemical_formula_structural       AsHg3O5Se
_chemical_formula_sum              "As1 Hg3 O5 Se1"
_cell_length_a       5.363146483840406
_cell_length_b       7.656764168375638
_cell_length_c       6.610729694366455
_cell_angle_alpha    125.72755144599832
_cell_angle_beta     88.69006485568279
_cell_angle_gamma    94.2782880540589

_space_group_name_H-M_alt    "P 1"
_space_group_IT_number       1

loop_
  _space_group_symop_operation_xyz
  'x, y, z'

loop_
  _atom_site_type_symbol
  _atom_site_label
  _atom_site_symmetry_multiplicity
  _atom_site_fract_x
  _atom_site_fract_y
  _atom_site_fract_z
  _atom_site_occupancy
  As  As1       1.0  0.10560993105173111  0.09434248507022858  0.7975855469703674  1.0000
  Hg  Hg1       1.0  0.1095489040017128  0.9517936706542968  0.8806298971176146  1.0000
  Hg  Hg2       1.0  0.603355348110199  0.46818861365318293  0.5928460955619812  1.0000
  Hg  Hg3       1.0  0.6083356142044067  0.17220287024974823  0.9242590665817261  1.0000
  O   O1        1.0  0.3694112300872803  0.31368979811668396  0.26397138833999634  1.0000
  O   O2        1.0  0.09694099426269531  0.7147806286811829  0.9602729082107544  1.0000
  O   O3        1.0  0.6117390990257263  0.6399771571159363  0.9480020999908447  1.0000
  O   O4        1.0  0.6076415181159973  0.5901970863342285  0.7662707567214966  1.0000
  O   O5        1.0  0.09797293692827225  0.6491132378578186  0.051404222846031127  1.0000
  Se  Se1       1.0  0.10701818019151688  0.9626401066780089  0.42633357644081116  1.0000
