data_image0
_chemical_formula_structural       Hg6O4
_chemical_formula_sum              "Hg6 O4"
_cell_length_a       6.983148592050122
_cell_length_b       7.419469771369135
_cell_length_c       7.055029392242432
_cell_angle_alpha    108.08946727678098
_cell_angle_beta     109.73086447086692
_cell_angle_gamma    113.60701814423108

_space_group_name_H-M_alt    "P 1"
_space_group_IT_number       1

loop_
  _space_group_symop_operation_xyz
  'x, y, z'

loop_
  _atom_site_type_symbol
  _atom_site_label
  _atom_site_symmetry_multiplicity
  _atom_site_fract_x
  _atom_site_fract_y
  _atom_site_fract_z
  _atom_site_occupancy
  Hg  Hg1       1.0  0.0939282774925232  0.13521607220172882  0.2734568119049072  1.0000
  Hg  Hg2       1.0  0.5630167722702026  0.6341629028320312  0.9935084581375122  1.0000
  Hg  Hg3       1.0  0.5573502779006958  0.6368261575698853  0.0032930374145507812  1.0000
  Hg  Hg4       1.0  0.5738179087638855  0.13497225940227509  0.3268473446369171  1.0000
  Hg  Hg5       1.0  0.85353022813797  0.12230583280324936  0.8494468927383423  1.0000
  Hg  Hg6       1.0  0.8800361156463623  0.9561267495155334  0.7632256746292114  1.0000
  O   O1        1.0  0.08059824258089066  0.12005565315485  0.5303035974502563  1.0000
  O   O2        1.0  0.6654819250106812  0.1500428467988968  0.49500152468681335  1.0000
  O   O3        1.0  0.20363566279411316  0.4683400094509125  0.4259816110134125  1.0000
  O   O4        1.0  0.8890365958213806  0.4535788297653198  0.3281661570072174  1.0000
