data_image0
_chemical_formula_structural       As2Hg3O5
_chemical_formula_sum              "As2 Hg3 O5"
_cell_length_a       4.427680685512597
_cell_length_b       6.840279065080627
_cell_length_c       6.2291765213012695
_cell_angle_alpha    121.73007304925164
_cell_angle_beta     91.50011535602737
_cell_angle_gamma    88.72733296472244

_space_group_name_H-M_alt    "P 1"
_space_group_IT_number       1

loop_
  _space_group_symop_operation_xyz
  'x, y, z'

loop_
  _atom_site_type_symbol
  _atom_site_label
  _atom_site_symmetry_multiplicity
  _atom_site_fract_x
  _atom_site_fract_y
  _atom_site_fract_z
  _atom_site_occupancy
  As  As1       1.0  0.24886679649353027  0.24773769080638885  0.7009989619255066  1.0000
  As  As2       1.0  0.25848081707954407  0.24188494682312012  0.07408946007490155  1.0000
  Hg  Hg1       1.0  0.7481650114059448  0.16772155463695526  0.07253184914588928  1.0000
  Hg  Hg2       1.0  0.7402395009994507  0.7661716341972351  0.7406529188156128  1.0000
  Hg  Hg3       1.0  0.7485368847846985  0.11794887483119965  0.03718864545226097  1.0000
  O   O1        1.0  0.2505241930484772  0.7469147443771362  0.4129404127597808  1.0000
  O   O2        1.0  0.24831900000572205  0.017739111557602882  0.7828972935676575  1.0000
  O   O3        1.0  0.7586960792541504  0.7787817716598511  0.4120376110076903  1.0000
  O   O4        1.0  0.25433745980262756  0.7419393062591553  0.31588253378868103  1.0000
  O   O5        1.0  0.2511481046676636  0.8720071315765381  0.2983832359313964  1.0000
