data_image0
_chemical_formula_structural       EuGe2ITb6
_chemical_formula_sum              "Eu1 Ge2 I1 Tb6"
_cell_length_a       5.2175693615375325
_cell_length_b       5.3798137558066745
_cell_length_c       10.035995483398438
_cell_angle_alpha    90.02934152165918
_cell_angle_beta     89.99639263664918
_cell_angle_gamma    116.28342007706298

_space_group_name_H-M_alt    "P 1"
_space_group_IT_number       1

loop_
  _space_group_symop_operation_xyz
  'x, y, z'

loop_
  _atom_site_type_symbol
  _atom_site_label
  _atom_site_symmetry_multiplicity
  _atom_site_fract_x
  _atom_site_fract_y
  _atom_site_fract_z
  _atom_site_occupancy
  Eu  Eu1       1.0  0.7883779406547546  0.6754865646362305  0.1962222307920456  1.0000
  Ge  Ge1       1.0  0.29062381386756897  0.401504784822464  0.6300293803215027  1.0000
  Ge  Ge2       1.0  0.791906476020813  0.14540645480155945  0.28702327609062195  1.0000
  I   I1        1.0  0.7919644117355347  0.09782359004020691  0.8424044847488403  1.0000
  Tb  Tb1       1.0  0.284496009349823  0.477225661277771  0.6329169869422913  1.0000
  Tb  Tb2       1.0  0.7940524220466614  0.1971932053565979  0.2615646719932556  1.0000
  Tb  Tb3       1.0  0.292736291885376  0.6148933172225952  0.8919080495834351  1.0000
  Tb  Tb4       1.0  0.7951420545578003  0.8403732180595398  0.8021652102470398  1.0000
  Tb  Tb5       1.0  0.29531532526016235  0.7356626391410828  0.2320173233747482  1.0000
  Tb  Tb6       1.0  0.7934454083442688  0.1322326362133026  0.7385278344154358  1.0000
