data_image0
_chemical_formula_structural       Ge3IMgTb5
_chemical_formula_sum              "Ge3 I1 Mg1 Tb5"
_cell_length_a       5.57984104129339
_cell_length_b       6.673676857785155
_cell_length_c       8.373065948486328
_cell_angle_alpha    83.90313984116833
_cell_angle_beta     71.11951220298042
_cell_angle_gamma    67.64345920069715

_space_group_name_H-M_alt    "P 1"
_space_group_IT_number       1

loop_
  _space_group_symop_operation_xyz
  'x, y, z'

loop_
  _atom_site_type_symbol
  _atom_site_label
  _atom_site_symmetry_multiplicity
  _atom_site_fract_x
  _atom_site_fract_y
  _atom_site_fract_z
  _atom_site_occupancy
  Ge  Ge1       1.0  0.012188057415187359  0.6923098564147949  0.4876598119735718  1.0000
  Ge  Ge2       1.0  0.5060345530509949  0.37852925062179565  0.8573896884918213  1.0000
  Ge  Ge3       1.0  0.5141534209251404  0.16386739909648895  0.0828113928437233  1.0000
  I   I1        1.0  0.01478847861289978  0.44782716035842896  0.4794425070285797  1.0000
  Mg  Mg1       1.0  0.5035910606384277  0.5084596872329712  0.869538426399231  1.0000
  Tb  Tb1       1.0  0.5127429962158203  0.01680615358054638  0.05540216714143753  1.0000
  Tb  Tb2       1.0  0.5189847350120544  0.07058364152908325  0.9066224694252014  1.0000
  Tb  Tb3       1.0  0.015338202938437462  0.09647344052791595  0.8041458129882812  1.0000
  Tb  Tb4       1.0  0.5167994499206543  0.6895484924316406  0.7301404476165771  1.0000
  Tb  Tb5       1.0  0.014288622885942459  0.6315581798553467  0.5191356539726256  1.0000
