data_image0
_chemical_formula_structural       BTb9
_chemical_formula_sum              "B1 Tb9"
_cell_length_a       6.234503325168266
_cell_length_b       6.564683703436927
_cell_length_c       6.927160263061523
_cell_angle_alpha    105.15225460817936
_cell_angle_beta     108.4339036066038
_cell_angle_gamma    110.12814999160088

_space_group_name_H-M_alt    "P 1"
_space_group_IT_number       1

loop_
  _space_group_symop_operation_xyz
  'x, y, z'

loop_
  _atom_site_type_symbol
  _atom_site_label
  _atom_site_symmetry_multiplicity
  _atom_site_fract_x
  _atom_site_fract_y
  _atom_site_fract_z
  _atom_site_occupancy
  B   B1        1.0  0.47868463397026056  0.08449576050043106  0.284425288438797  1.0000
  Tb  Tb1       1.0  0.6305207014083862  0.7472739815711975  0.4290277361869812  1.0000
  Tb  Tb2       1.0  0.8762992024421691  0.43059271574020386  0.10283515602350235  1.0000
  Tb  Tb3       1.0  0.20794650912284848  0.009198209270834923  0.1964498907327652  1.0000
  Tb  Tb4       1.0  0.9916582703590392  0.7153503894805908  0.7779042720794678  1.0000
  Tb  Tb5       1.0  0.9555092453956603  0.694708526134491  0.75531005859375  1.0000
  Tb  Tb6       1.0  0.5516189932823181  0.09158714860677719  0.3029012680053711  1.0000
  Tb  Tb7       1.0  0.13810977339744568  0.6748023629188538  0.2684771418571472  1.0000
  Tb  Tb8       1.0  0.6053515672683716  0.8739878535270691  0.3082427978515625  1.0000
  Tb  Tb9       1.0  0.10916997492313384  0.4003653824329376  0.3982912302017212  1.0000
