data_image0
_chemical_formula_structural       Tb10
_chemical_formula_sum              "Tb10"
_cell_length_a       6.541506152164895
_cell_length_b       8.315661375070523
_cell_length_c       8.833121299743652
_cell_angle_alpha    118.06936063310584
_cell_angle_beta     97.26885123897286
_cell_angle_gamma    99.20299356428661

_space_group_name_H-M_alt    "P 1"
_space_group_IT_number       1

loop_
  _space_group_symop_operation_xyz
  'x, y, z'

loop_
  _atom_site_type_symbol
  _atom_site_label
  _atom_site_symmetry_multiplicity
  _atom_site_fract_x
  _atom_site_fract_y
  _atom_site_fract_z
  _atom_site_occupancy
  Tb  Tb1       1.0  0.08889514207839966  0.511294960975647  0.1743110567331314  1.0000
  Tb  Tb2       1.0  0.05296602845191954  0.2044476270675659  0.7931600213050842  1.0000
  Tb  Tb3       1.0  0.8070331811904907  0.744217813014984  0.8856104612350464  1.0000
  Tb  Tb4       1.0  0.08506359159946442  0.24089813232421872  0.17821957170963285  1.0000
  Tb  Tb5       1.0  0.7558389902114868  0.1849696487188339  0.6311703324317932  1.0000
  Tb  Tb6       1.0  0.05220697075128555  0.018581492826342583  0.8751960396766663  1.0000
  Tb  Tb7       1.0  0.24644872546195978  0.9277418851852416  0.8928686380386353  1.0000
  Tb  Tb8       1.0  0.5539628863334656  0.2827089726924896  0.3462955951690674  1.0000
  Tb  Tb9       1.0  0.32286208868026733  0.09274322539567946  0.5928025841712952  1.0000
  Tb  Tb10      1.0  0.5700450539588928  0.5424270033836365  0.28270268440246576  1.0000
