data_image0
_chemical_formula_structural       Ge2Tb8
_chemical_formula_sum              "Ge2 Tb8"
_cell_length_a       5.069650641246222
_cell_length_b       5.496272823562502
_cell_length_c       10.908920288085938
_cell_angle_alpha    96.10003926714047
_cell_angle_beta     82.51611021414406
_cell_angle_gamma    77.04078347577615

_space_group_name_H-M_alt    "P 1"
_space_group_IT_number       1

loop_
  _space_group_symop_operation_xyz
  'x, y, z'

loop_
  _atom_site_type_symbol
  _atom_site_label
  _atom_site_symmetry_multiplicity
  _atom_site_fract_x
  _atom_site_fract_y
  _atom_site_fract_z
  _atom_site_occupancy
  Ge  Ge1       1.0  0.6229284405708313  0.5675914883613586  0.47203329205512995  1.0000
  Ge  Ge2       1.0  0.12286311388015743  0.9870720505714418  0.9418256282806395  1.0000
  Tb  Tb1       1.0  0.12243288755416867  0.45456707477569586  0.9683128595352172  1.0000
  Tb  Tb2       1.0  0.12873442471027371  0.4720980525016785  0.7312883734703064  1.0000
  Tb  Tb3       1.0  0.6230147480964661  0.5871900320053101  0.42566949129104614  1.0000
  Tb  Tb4       1.0  0.6250080466270447  0.6447409391403198  0.3942309617996216  1.0000
  Tb  Tb5       1.0  0.1291157305240631  0.7832265496253967  0.6309604048728943  1.0000
  Tb  Tb6       1.0  0.12579800188541412  0.08540961146354675  0.011780574917793274  1.0000
  Tb  Tb7       1.0  0.6263442635536194  0.35802406072616577  0.38263535499572754  1.0000
  Tb  Tb8       1.0  0.6250552535057068  0.3811047673225403  0.4731514751911163  1.0000
