data_image0
_chemical_formula_structural       Ge2Tb8
_chemical_formula_sum              "Ge2 Tb8"
_cell_length_a       5.559673997966056
_cell_length_b       5.755733751530265
_cell_length_c       10.46821403503418
_cell_angle_alpha    87.52890798034265
_cell_angle_beta     75.74417566523877
_cell_angle_gamma    68.60566479328851

_space_group_name_H-M_alt    "P 1"
_space_group_IT_number       1

loop_
  _space_group_symop_operation_xyz
  'x, y, z'

loop_
  _atom_site_type_symbol
  _atom_site_label
  _atom_site_symmetry_multiplicity
  _atom_site_fract_x
  _atom_site_fract_y
  _atom_site_fract_z
  _atom_site_occupancy
  Ge  Ge1       1.0  0.9533349275588989  0.49609050154685974  0.08116962015628815  1.0000
  Ge  Ge2       1.0  0.7015874981880188  0.3713156282901764  0.8180258870124817  1.0000
  Tb  Tb1       1.0  0.7596362829208374  0.1359816938638687  0.31338226795196533  1.0000
  Tb  Tb2       1.0  0.44743698835372925  0.49347159266471863  0.6458844542503357  1.0000
  Tb  Tb3       1.0  0.252527117729187  0.10629095882177353  0.9627724289894104  1.0000
  Tb  Tb4       1.0  0.15681496262550354  0.23085151612758636  0.02581142820417881  1.0000
  Tb  Tb5       1.0  0.7434839606285095  0.22080500423908234  0.6155393719673157  1.0000
  Tb  Tb6       1.0  0.6767137050628662  0.6633795499801636  0.0954334959387779  1.0000
  Tb  Tb7       1.0  0.7451510429382324  0.2583155930042267  0.07833638042211533  1.0000
  Tb  Tb8       1.0  0.2548195719718933  0.3238508403301239  0.9487013816833496  1.0000
