data_image0
_chemical_formula_structural       Cl2Ge3I3NbPSb2TeTi
_chemical_formula_sum              "Cl2 Ge3 I3 Nb1 P1 Sb2 Te1 Ti1"
_cell_length_a       8.05650333213569
_cell_length_b       8.269610648319102
_cell_length_c       8.934708595275879
_cell_angle_alpha    77.34498201104623
_cell_angle_beta     66.6708368960281
_cell_angle_gamma    61.48344241704531

_space_group_name_H-M_alt    "P 1"
_space_group_IT_number       1

loop_
  _space_group_symop_operation_xyz
  'x, y, z'

loop_
  _atom_site_type_symbol
  _atom_site_label
  _atom_site_symmetry_multiplicity
  _atom_site_fract_x
  _atom_site_fract_y
  _atom_site_fract_z
  _atom_site_occupancy
  Cl  Cl1       1.0  0.49908202886581426  0.0394904725253582  0.17487311363220212  1.0000
  Cl  Cl2       1.0  0.10273961722850801  0.9994256496429443  0.4966599941253662  1.0000
  Ge  Ge1       1.0  0.5114212036132812  0.030569391325116158  0.3712852895259857  1.0000
  Ge  Ge2       1.0  0.9863646626472474  0.6329331398010254  0.18347476422786713  1.0000
  Ge  Ge3       1.0  0.05466750636696816  0.3511428236961365  0.5253719687461853  1.0000
  I   I1        1.0  0.6752415895462037  0.24533885717391968  0.42952230572700495  1.0000
  I   I2        1.0  0.48351085186004644  0.5427316427230835  0.46656548976898193  1.0000
  I   I3        1.0  0.09187289327383043  0.7267245650291443  0.23319312930107117  1.0000
  Nb  Nb1       1.0  0.5016528964042664  0.05853841453790665  0.663006603717804  1.0000
  P   P1        1.0  0.5450432896614076  0.8109567761421204  0.7450193762779236  1.0000
  Sb  Sb1       1.0  0.5936679244041444  0.19852815568447113  0.17684642970561976  1.0000
  Sb  Sb2       1.0  0.9738607406616212  0.02010359987616539  0.6107782125473022  1.0000
  Te  Te1       1.0  0.008244785480201244  0.617860734462738  0.5830737352371216  1.0000
  Ti  Ti1       1.0  0.18498894572257998  0.16099020838737488  0.3205221891403198  1.0000
