data_image0
_chemical_formula_structural       ClCoGe3I5Nb2PPt
_chemical_formula_sum              "Cl1 Co1 Ge3 I5 Nb2 P1 Pt1"
_cell_length_a       6.7580872803842675
_cell_length_b       9.79235149171281
_cell_length_c       10.196307182312012
_cell_angle_alpha    108.40695622247696
_cell_angle_beta     90.18421850528821
_cell_angle_gamma    88.98918050964008

_space_group_name_H-M_alt    "P 1"
_space_group_IT_number       1

loop_
  _space_group_symop_operation_xyz
  'x, y, z'

loop_
  _atom_site_type_symbol
  _atom_site_label
  _atom_site_symmetry_multiplicity
  _atom_site_fract_x
  _atom_site_fract_y
  _atom_site_fract_z
  _atom_site_occupancy
  Cl  Cl1       1.0  0.16833889484405518  0.6494686603546143  0.4583140313625335  1.0000
  Co  Co1       1.0  0.6478652954101562  0.619412899017334  0.3902891278266907  1.0000
  Ge  Ge1       1.0  0.7004991769790649  0.31262093782424927  0.04356903582811356  1.0000
  Ge  Ge2       1.0  0.6448096036911011  0.2113046795129776  0.3291845917701721  1.0000
  Ge  Ge3       1.0  0.1714588850736618  0.31779974699020386  0.26847967505455017  1.0000
  I   I1        1.0  0.01781918853521347  0.8383217453956604  0.44189134240150446  1.0000
  I   I2        1.0  0.4462744891643524  0.9274933338165283  0.6054162383079529  1.0000
  I   I3        1.0  0.1607079654932022  0.8160196542739868  0.2902405560016632  1.0000
  I   I4        1.0  0.9216027259826659  0.09660951048135757  0.29128721356391907  1.0000
  I   I5        1.0  0.4437592625617981  0.6766505241394043  0.2535557448863983  1.0000
  Nb  Nb1       1.0  0.9312796592712401  0.3200817406177521  0.47607615590095514  1.0000
  Nb  Nb2       1.0  0.9391666650772094  0.6288770437240601  0.8000330328941345  1.0000
  P   P1        1.0  0.4419556260108948  0.5671061873435974  0.6006641387939453  1.0000
  Pt  Pt1       1.0  0.09655853360891342  0.677723228931427  0.8696232438087462  1.0000
