data_image0
_chemical_formula_structural       ClNb7O3Te3
_chemical_formula_sum              "Cl1 Nb7 O3 Te3"
_cell_length_a       6.820540206273629
_cell_length_b       8.877933975926608
_cell_length_c       8.85085678100586
_cell_angle_alpha    123.57630746257949
_cell_angle_beta     97.39465683311857
_cell_angle_gamma    90.59515975386371

_space_group_name_H-M_alt    "P 1"
_space_group_IT_number       1

loop_
  _space_group_symop_operation_xyz
  'x, y, z'

loop_
  _atom_site_type_symbol
  _atom_site_label
  _atom_site_symmetry_multiplicity
  _atom_site_fract_x
  _atom_site_fract_y
  _atom_site_fract_z
  _atom_site_occupancy
  Cl  Cl1       1.0  0.7460179924964905  0.4478514790534973  0.4670497179031372  1.0000
  Nb  Nb1       1.0  0.24769139289855957  0.8882921934127808  0.8794015049934388  1.0000
  Nb  Nb2       1.0  0.7487501502037048  0.5592837929725647  0.8091495037078857  1.0000
  Nb  Nb3       1.0  0.7529894113540649  0.48545899987220764  0.6621801257133484  1.0000
  Nb  Nb4       1.0  0.7563479542732239  0.7444039583206177  0.1312197893857957  1.0000
  Nb  Nb5       1.0  0.24713367223739624  0.8816275596618652  0.8666531443595887  1.0000
  Nb  Nb6       1.0  0.24542605876922607  0.8667928576469421  0.18178293108940125  1.0000
  Nb  Nb7       1.0  0.7527269721031189  0.521898090839386  0.69305020570755  1.0000
  O   O1        1.0  0.24217256903648376  0.8466479778289795  0.8993257284164429  1.0000
  O   O2        1.0  0.7457635998725891  0.7762445211410522  0.9980825781822205  1.0000
  O   O3        1.0  0.7386898398399353  0.6907990574836731  0.6185624599456787  1.0000
  Te  Te1       1.0  0.7447200417518616  0.9397993087768555  0.3144728243350984  1.0000
  Te  Te2       1.0  0.24536637961864471  0.4470089077949524  0.8687401413917542  1.0000
  Te  Te3       1.0  0.7489017844200134  0.844982385635376  0.3987542986869813  1.0000
