data_image0
_chemical_formula_structural       Cl3CoGe2I4LiMoReSb
_chemical_formula_sum              "Cl3 Co1 Ge2 I4 Li1 Mo1 Re1 Sb1"
_cell_length_a       7.224200806259753
_cell_length_b       7.145762948310483
_cell_length_c       7.814947128295898
_cell_angle_alpha    120.31616509028763
_cell_angle_beta     115.73656451788872
_cell_angle_gamma    90.35357478876837

_space_group_name_H-M_alt    "P 1"
_space_group_IT_number       1

loop_
  _space_group_symop_operation_xyz
  'x, y, z'

loop_
  _atom_site_type_symbol
  _atom_site_label
  _atom_site_symmetry_multiplicity
  _atom_site_fract_x
  _atom_site_fract_y
  _atom_site_fract_z
  _atom_site_occupancy
  Cl  Cl1       1.0  0.7266460061073303  0.5621552467346191  0.6931442618370056  1.0000
  Cl  Cl2       1.0  0.24375635385513306  0.05827407166361808  0.5780405402183533  1.0000
  Cl  Cl3       1.0  0.6764431595802307  0.4697109162807464  0.20537588000297546  1.0000
  Co  Co1       1.0  0.6258523464202881  0.7478534579277039  0.9963178634643555  1.0000
  Ge  Ge1       1.0  0.2590130567550659  0.23535493016242978  0.9442709684371948  1.0000
  Ge  Ge2       1.0  0.11937634646892548  0.718455970287323  0.2565939724445343  1.0000
  I   I1        1.0  0.12235231697559357  0.3543083369731903  0.0468401238322258  1.0000
  I   I2        1.0  0.4915294945240021  0.07054105401039124  0.1386677771806717  1.0000
  I   I3        1.0  0.7012465000152588  0.7252436280250549  0.9466724991798401  1.0000
  I   I4        1.0  0.06702052801847458  0.7906649112701416  0.6728730201721191  1.0000
  Li  Li1       1.0  0.2967522144317627  0.12921962141990662  0.7869228720664978  1.0000
  Mo  Mo1       1.0  0.9696060419082642  0.0834750384092331  0.38712018728256226  1.0000
  Re  Re1       1.0  0.41568776965141296  0.8911573290824889  0.7035855054855347  1.0000
  Sb  Sb1       1.0  0.1408247947692871  0.5324456095695496  0.6700297594070435  1.0000
