data_image0
_chemical_formula_structural       Nb9O2Te3
_chemical_formula_sum              "Nb9 O2 Te3"
_cell_length_a       6.421103539304902
_cell_length_b       7.89993404424062
_cell_length_c       7.612346649169922
_cell_angle_alpha    113.3556621143182
_cell_angle_beta     91.02222811808053
_cell_angle_gamma    89.27299716990798

_space_group_name_H-M_alt    "P 1"
_space_group_IT_number       1

loop_
  _space_group_symop_operation_xyz
  'x, y, z'

loop_
  _atom_site_type_symbol
  _atom_site_label
  _atom_site_symmetry_multiplicity
  _atom_site_fract_x
  _atom_site_fract_y
  _atom_site_fract_z
  _atom_site_occupancy
  Nb  Nb1       1.0  0.3387467563152313  0.17279578745365143  0.6184460520744324  1.0000
  Nb  Nb2       1.0  0.3387761414051056  0.3322978913784027  0.5257905125617981  1.0000
  Nb  Nb3       1.0  0.8399940133094788  0.46211761236190796  0.47728806734085083  1.0000
  Nb  Nb4       1.0  0.3367900550365448  0.2733248174190521  0.3184063732624054  1.0000
  Nb  Nb5       1.0  0.33602598309516907  0.4565417170524597  0.31188616156578064  1.0000
  Nb  Nb6       1.0  0.8392192125320435  0.3497543931007385  0.43845608830451965  1.0000
  Nb  Nb7       1.0  0.3393649756908417  0.19176709651947021  0.10881997644901276  1.0000
  Nb  Nb8       1.0  0.837762176990509  0.3663558065891266  0.45980721712112427  1.0000
  Nb  Nb9       1.0  0.8370623588562012  0.762834370136261  0.27040964365005493  1.0000
  O   O1        1.0  0.8446952104568481  0.4046136736869812  0.04556525871157646  1.0000
  O   O2        1.0  0.3332078754901886  0.607647180557251  0.9275128841400146  1.0000
  Te  Te1       1.0  0.33274564146995544  0.19790737330913544  0.3739820718765259  1.0000
  Te  Te2       1.0  0.8371167778968811  0.1897893249988556  0.10474379360675812  1.0000
  Te  Te3       1.0  0.5751874446868896  0.03780508413910866  0.8154770731925964  1.0000
