data_image0
_chemical_formula_structural       Cl5CoGe5ITe2
_chemical_formula_sum              "Cl5 Co1 Ge5 I1 Te2"
_cell_length_a       6.730877963539671
_cell_length_b       8.294860698309694
_cell_length_c       8.868379592895508
_cell_angle_alpha    100.79428105119317
_cell_angle_beta     81.83760002799255
_cell_angle_gamma    76.0977709677052

_space_group_name_H-M_alt    "P 1"
_space_group_IT_number       1

loop_
  _space_group_symop_operation_xyz
  'x, y, z'

loop_
  _atom_site_type_symbol
  _atom_site_label
  _atom_site_symmetry_multiplicity
  _atom_site_fract_x
  _atom_site_fract_y
  _atom_site_fract_z
  _atom_site_occupancy
  Cl  Cl1       1.0  0.17077498137950897  0.7301713228225708  0.3620607852935791  1.0000
  Cl  Cl2       1.0  0.9635260701179504  0.9691081047058104  0.01032815501093862  1.0000
  Cl  Cl3       1.0  0.9751406908035278  0.35258087515830994  0.47602957487106323  1.0000
  Cl  Cl4       1.0  0.4819779694080353  0.7886825799942017  0.6562100052833557  1.0000
  Cl  Cl5       1.0  0.6233565211296082  0.4816604554653167  0.003938476555049407  1.0000
  Co  Co1       1.0  0.9100234508514404  0.26839685440063477  0.8671996593475342  1.0000
  Ge  Ge1       1.0  0.4034120738506317  0.4746174216270446  0.09183622896671294  1.0000
  Ge  Ge2       1.0  0.10871563851833344  0.755333662033081  0.012584987096488452  1.0000
  Ge  Ge3       1.0  0.802236020565033  0.46773418784141535  0.6396981477737427  1.0000
  Ge  Ge4       1.0  0.1568111628293991  0.5691877007484436  0.9644472599029541  1.0000
  Ge  Ge5       1.0  0.40216928720474243  0.7838601469993591  0.9767377972602844  1.0000
  I   I1        1.0  0.534752368927002  0.2678825557231903  0.6582080721855164  1.0000
  Te  Te1       1.0  0.5786448121070862  0.3228590488433838  0.8692327737808228  1.0000
  Te  Te2       1.0  0.8308770060539246  0.14569395780563354  0.62562495470047  1.0000
