data_image0
_chemical_formula_structural       Co2Hf5I2Sb2
_chemical_formula_sum              "Co2 Hf5 I2 Sb2"
_cell_length_a       6.1785280197707495
_cell_length_b       5.943545252896315
_cell_length_c       8.209047317504883
_cell_angle_alpha    105.56086242736899
_cell_angle_beta     109.8378747062339
_cell_angle_gamma    93.44256335254171

_space_group_name_H-M_alt    "P 1"
_space_group_IT_number       1

loop_
  _space_group_symop_operation_xyz
  'x, y, z'

loop_
  _atom_site_type_symbol
  _atom_site_label
  _atom_site_symmetry_multiplicity
  _atom_site_fract_x
  _atom_site_fract_y
  _atom_site_fract_z
  _atom_site_occupancy
  Co  Co1       1.0  0.9105622172355652  0.5631681680679321  0.2733069956302643  1.0000
  Co  Co2       1.0  0.49955230951309204  0.9057732224464415  0.5708516240119934  1.0000
  Hf  Hf1       1.0  0.8888442516326904  0.6553059220314026  0.11456239223480225  1.0000
  Hf  Hf2       1.0  0.11812913417816162  0.5287299752235413  0.9402010440826416  1.0000
  Hf  Hf3       1.0  0.9634991884231567  0.11476533859968184  0.1891452968120575  1.0000
  Hf  Hf4       1.0  0.40615203976631165  0.32202836871147156  0.4584323465824127  1.0000
  Hf  Hf5       1.0  0.860175371170044  0.645956814289093  0.04425078257918358  1.0000
  I   I1        1.0  0.9151000380516052  0.42268544435501093  0.6721084713935852  1.0000
  I   I2        1.0  0.41273704171180725  0.04170975834131241  0.15183015167713165  1.0000
  Sb  Sb1       1.0  0.899359941482544  0.6786383986473083  0.5831525921821594  1.0000
  Sb  Sb2       1.0  0.41331052780151367  0.2190909683704376  0.30431389808654785  1.0000
