data_image0
_chemical_formula_structural       CoHf2I4Li3P
_chemical_formula_sum              "Co1 Hf2 I4 Li3 P1"
_cell_length_a       5.953639649615556
_cell_length_b       5.964728574889183
_cell_length_c       10.069958686828613
_cell_angle_alpha    89.91941450369528
_cell_angle_beta     90.14375380258463
_cell_angle_gamma    89.90549822909567

_space_group_name_H-M_alt    "P 1"
_space_group_IT_number       1

loop_
  _space_group_symop_operation_xyz
  'x, y, z'

loop_
  _atom_site_type_symbol
  _atom_site_label
  _atom_site_symmetry_multiplicity
  _atom_site_fract_x
  _atom_site_fract_y
  _atom_site_fract_z
  _atom_site_occupancy
  Co  Co1       1.0  0.6484476327896118  0.6319812536239624  0.597586452960968  1.0000
  Hf  Hf1       1.0  0.14716477692127228  0.2591889202594757  0.48826792836189264  1.0000
  Hf  Hf2       1.0  0.1474619060754776  0.13616879284381866  0.968518316745758  1.0000
  I   I1        1.0  0.6482242941856384  0.046831674873828895  0.7856658697128296  1.0000
  I   I2        1.0  0.3752743601799011  0.23352406919002536  0.016014229506254193  1.0000
  I   I3        1.0  0.6482043862342834  0.8725462555885316  0.06985529512166977  1.0000
  I   I4        1.0  0.1462979018688202  0.6582859754562378  0.8287473320960999  1.0000
  Li  Li1       1.0  0.6522203087806702  0.27882692217826843  0.5573666095733643  1.0000
  Li  Li2       1.0  0.653805673122406  0.8256220817565919  0.8573913574218749  1.0000
  Li  Li3       1.0  0.37601619958877563  0.31499695777893066  0.30199581384658813  1.0000
  P   P1        1.0  0.14135320484638214  0.01282687019556761  0.9602990150451659  1.0000
