data_image0
_chemical_formula_structural       Bi2Co3Hf6
_chemical_formula_sum              "Bi2 Co3 Hf6"
_cell_length_a       5.120829201943526
_cell_length_b       5.224958605429891
_cell_length_c       7.9854350090026855
_cell_angle_alpha    87.2372939090653
_cell_angle_beta     87.3211037949731
_cell_angle_gamma    80.72830044869794

_space_group_name_H-M_alt    "P 1"
_space_group_IT_number       1

loop_
  _space_group_symop_operation_xyz
  'x, y, z'

loop_
  _atom_site_type_symbol
  _atom_site_label
  _atom_site_symmetry_multiplicity
  _atom_site_fract_x
  _atom_site_fract_y
  _atom_site_fract_z
  _atom_site_occupancy
  Bi  Bi1       1.0  0.7158176302909851  0.12239503115415573  0.4790467023849488  1.0000
  Bi  Bi2       1.0  0.20293167233467102  0.8814979195594788  0.3775091767311096  1.0000
  Co  Co1       1.0  0.21655158698558807  0.8936764001846313  0.0077806985937058926  1.0000
  Co  Co2       1.0  0.1947910338640213  0.039500292390584946  0.6694521903991699  1.0000
  Co  Co3       1.0  0.21941465139389038  0.005862024147063494  0.6097108125686646  1.0000
  Hf  Hf1       1.0  0.702295184135437  0.412663996219635  0.008054920472204685  1.0000
  Hf  Hf2       1.0  0.7005472183227539  0.6534691452980042  0.4341905415058136  1.0000
  Hf  Hf3       1.0  0.6962253451347351  0.03541313856840134  0.31195226311683655  1.0000
  Hf  Hf4       1.0  0.1972745954990387  0.03595434129238129  0.8287379741668701  1.0000
  Hf  Hf5       1.0  0.7258054614067078  0.5069220066070557  0.0623629204928875  1.0000
  Hf  Hf6       1.0  0.7053711414337158  0.0023914987687021494  0.8873485922813416  1.0000
