data_image0
_chemical_formula_structural       Bi2Co3Hf6
_chemical_formula_sum              "Bi2 Co3 Hf6"
_cell_length_a       5.46858530097767
_cell_length_b       5.480991399779975
_cell_length_c       6.414328098297119
_cell_angle_alpha    67.11697564833759
_cell_angle_beta     65.10914896455344
_cell_angle_gamma    58.34669209986847

_space_group_name_H-M_alt    "P 1"
_space_group_IT_number       1

loop_
  _space_group_symop_operation_xyz
  'x, y, z'

loop_
  _atom_site_type_symbol
  _atom_site_label
  _atom_site_symmetry_multiplicity
  _atom_site_fract_x
  _atom_site_fract_y
  _atom_site_fract_z
  _atom_site_occupancy
  Bi  Bi1       1.0  0.899815022945404  0.28808581829071045  0.4047081172466277  1.0000
  Bi  Bi2       1.0  0.3829984664916992  0.7114559412002563  0.9542970061302184  1.0000
  Co  Co1       1.0  0.8700147271156311  0.6063621640205383  0.4227769374847411  1.0000
  Co  Co2       1.0  0.4074860215187073  0.9768186807632446  0.0346134714782238  1.0000
  Co  Co3       1.0  0.04644748196005821  0.8994253873825073  0.9906089901924132  1.0000
  Hf  Hf1       1.0  0.3767591118812561  0.25352221727371216  0.9841266274452208  1.0000
  Hf  Hf2       1.0  0.8828599452972412  0.24621081352233887  0.14821404218673706  1.0000
  Hf  Hf3       1.0  0.8763481974601746  0.48427826166152954  0.04771243035793304  1.0000
  Hf  Hf4       1.0  0.040542442351579666  0.16217312216758728  0.7204928994178771  1.0000
  Hf  Hf5       1.0  0.3829245865345001  0.16079114377498627  0.9434491395950316  1.0000
  Hf  Hf6       1.0  0.4064422845840454  0.012624245136976242  0.09906221181154248  1.0000
