data_image0
_chemical_formula_structural       Co2Hf3I2Mo2SbV
_chemical_formula_sum              "Co2 Hf3 I2 Mo2 Sb1 V1"
_cell_length_a       5.160763177005315
_cell_length_b       5.174060222975421
_cell_length_c       10.044439315795898
_cell_angle_alpha    90.32925649193047
_cell_angle_beta     90.84242026655306
_cell_angle_gamma    112.41468278618044

_space_group_name_H-M_alt    "P 1"
_space_group_IT_number       1

loop_
  _space_group_symop_operation_xyz
  'x, y, z'

loop_
  _atom_site_type_symbol
  _atom_site_label
  _atom_site_symmetry_multiplicity
  _atom_site_fract_x
  _atom_site_fract_y
  _atom_site_fract_z
  _atom_site_occupancy
  Co  Co1       1.0  0.37779945135116577  0.9620721340179443  0.10721057653427124  1.0000
  Co  Co2       1.0  0.8862000107765198  0.28622448444366455  0.36128872632980347  1.0000
  Hf  Hf1       1.0  0.3662847578525543  0.05224858224391937  0.1577136069536209  1.0000
  Hf  Hf2       1.0  0.8914892673492432  0.22726944088935852  0.9946368336677551  1.0000
  Hf  Hf3       1.0  0.36984196305274963  0.7133091688156128  0.5507287979125977  1.0000
  I   I1        1.0  0.8691118955612183  0.24556225538253784  0.15825186669826508  1.0000
  I   I2        1.0  0.3762332499027252  0.510895311832428  0.1204720064997673  1.0000
  Mo  Mo1       1.0  0.38431039452552795  0.5794870853424072  0.2938925325870514  1.0000
  Mo  Mo2       1.0  0.8806166052818298  0.41730573773384094  0.6824528574943542  1.0000
  Sb  Sb1       1.0  0.3771263659000397  0.8059948086738586  0.47346606850624084  1.0000
  V   V1        1.0  0.8838339447975159  0.02837410941720009  0.35352328419685364  1.0000
