data_image0
_chemical_formula_structural       Co4HHf4IMo
_chemical_formula_sum              "Co4 H1 Hf4 I1 Mo1"
_cell_length_a       6.079131068183425
_cell_length_b       6.030468693766875
_cell_length_c       7.237216472625732
_cell_angle_alpha    107.9267412348644
_cell_angle_beta     105.15963196031984
_cell_angle_gamma    100.30268681724358

_space_group_name_H-M_alt    "P 1"
_space_group_IT_number       1

loop_
  _space_group_symop_operation_xyz
  'x, y, z'

loop_
  _atom_site_type_symbol
  _atom_site_label
  _atom_site_symmetry_multiplicity
  _atom_site_fract_x
  _atom_site_fract_y
  _atom_site_fract_z
  _atom_site_occupancy
  Co  Co1       1.0  0.4561842381954193  0.7198746204376221  0.03419538959860802  1.0000
  Co  Co2       1.0  0.9949457049369811  0.21075303852558136  0.47239065170288086  1.0000
  Co  Co3       1.0  0.4842492341995239  0.535266637802124  0.019627148285508156  1.0000
  Co  Co4       1.0  0.9260205626487732  0.47704935073852545  0.8439116477966309  1.0000
  H   H1        1.0  0.4512472152709961  0.32088252902030945  0.2827211916446686  1.0000
  Hf  Hf1       1.0  0.9287195801734924  0.7886764407157898  0.1509629786014557  1.0000
  Hf  Hf2       1.0  0.4295589029788971  0.831047534942627  0.8662147521972656  1.0000
  Hf  Hf3       1.0  0.4389037489891052  0.6774189472198486  0.30171483755111694  1.0000
  Hf  Hf4       1.0  0.9349533915519714  0.34390169382095337  0.2260410636663437  1.0000
  I   I1        1.0  0.9986460804939269  0.09733030945062637  0.5869647264480591  1.0000
  Mo  Mo1       1.0  0.9291375875473022  0.22329938411712646  0.4861051142215729  1.0000
