data_image0
_chemical_formula_structural       CaFLiO6S3Tb2TiZr2
_chemical_formula_sum              "Ca1 F1 Li1 O6 S3 Tb2 Ti1 Zr2"
_cell_length_a       7.249121836462034
_cell_length_b       7.4776307767885255
_cell_length_c       7.061089515686035
_cell_angle_alpha    53.35699201752041
_cell_angle_beta     51.61559684061654
_cell_angle_gamma    59.13269246283823

_space_group_name_H-M_alt    "P 1"
_space_group_IT_number       1

loop_
  _space_group_symop_operation_xyz
  'x, y, z'

loop_
  _atom_site_type_symbol
  _atom_site_label
  _atom_site_symmetry_multiplicity
  _atom_site_fract_x
  _atom_site_fract_y
  _atom_site_fract_z
  _atom_site_occupancy
  Ca  Ca1       1.0  0.14469636976718903  0.6507030725479126  0.9914543032646178  1.0000
  F   F1        1.0  0.9664266109466553  0.5042153596878052  0.5489253997802734  1.0000
  Li  Li1       1.0  0.1539384126663208  0.9519140124320984  0.02345160953700542  1.0000
  O   O1        1.0  0.7368861436843872  0.9348735809326172  0.2149146795272827  1.0000
  O   O2        1.0  0.8641957640647888  0.16746336221694946  0.058243881911039345  1.0000
  O   O3        1.0  0.37405529618263245  0.621868908405304  0.9861283302307128  1.0000
  O   O4        1.0  0.26104024052619934  0.07822714745998383  0.37954729795455927  1.0000
  O   O5        1.0  0.6339333057403564  0.9316588044166565  0.9266913533210753  1.0000
  O   O6        1.0  0.15726229548454285  0.20822066068649292  0.7167629003524779  1.0000
  S   S1        1.0  0.7668132781982422  0.8503084778785706  0.03658386692404747  1.0000
  S   S2        1.0  0.2949395775794983  0.2801342010498047  0.8021869063377379  1.0000
  S   S3        1.0  0.3169475495815277  0.2235652655363083  0.9091448783874511  1.0000
  Tb  Tb1       1.0  0.3922480046749115  0.8021388649940491  0.49999880790710444  1.0000
  Tb  Tb2       1.0  0.6781601309776306  0.4702361226081848  0.27660298347473145  1.0000
  Ti  Ti1       1.0  0.5243865251541138  0.8853606581687927  0.07452774047851562  1.0000
  Zr  Zr1       1.0  0.32893264293670654  0.3842298090457916  0.9466615319252013  1.0000
  Zr  Zr2       1.0  0.3371433913707733  0.5310184359550476  0.0915548801422119  1.0000
