data_image0
_chemical_formula_structural       Ca4F2I2MgO4PSZnZr
_chemical_formula_sum              "Ca4 F2 I2 Mg1 O4 P1 S1 Zn1 Zr1"
_cell_length_a       8.590468482901993
_cell_length_b       8.213271806550615
_cell_length_c       8.849555969238281
_cell_angle_alpha    59.535476706893505
_cell_angle_beta     60.80806804924013
_cell_angle_gamma    60.20719975081644

_space_group_name_H-M_alt    "P 1"
_space_group_IT_number       1

loop_
  _space_group_symop_operation_xyz
  'x, y, z'

loop_
  _atom_site_type_symbol
  _atom_site_label
  _atom_site_symmetry_multiplicity
  _atom_site_fract_x
  _atom_site_fract_y
  _atom_site_fract_z
  _atom_site_occupancy
  Ca  Ca1       1.0  0.3143216669559479  0.14625602960586548  0.010709780268371105  1.0000
  Ca  Ca2       1.0  0.3198680281639099  0.2600950300693512  0.21030385792255402  1.0000
  Ca  Ca3       1.0  0.29441961646080017  0.5659528374671936  0.026884067803621292  1.0000
  Ca  Ca4       1.0  0.3299339711666107  0.28594785928726196  0.1616649329662323  1.0000
  F   F1        1.0  0.18551446497440338  0.7688984274864197  0.09452231973409653  1.0000
  F   F2        1.0  0.9619812369346619  0.6668698191642761  0.5451391339302063  1.0000
  I   I1        1.0  0.19186875224113464  0.06209712475538254  0.0951911136507988  1.0000
  I   I2        1.0  0.07371500879526138  0.6104928255081177  0.16996800899505615  1.0000
  Mg  Mg1       1.0  0.2876856029033661  0.7301616668701172  0.25723057985305786  1.0000
  O   O1        1.0  0.247528076171875  0.832026481628418  0.4287576973438263  1.0000
  O   O2        1.0  0.7351741790771484  0.6855016946792603  0.5529897212982178  1.0000
  O   O3        1.0  0.2873668968677521  0.5150102376937866  0.8654459714889526  1.0000
  O   O4        1.0  0.09191995114088058  0.11711829900741577  0.7296779751777649  1.0000
  P   P1        1.0  0.9510415196418762  0.9552062153816223  0.29468852281570435  1.0000
  S   S1        1.0  0.06323394179344177  0.45965179800987244  0.46883055567741394  1.0000
  Zn  Zn1       1.0  0.7326822876930237  0.5706688761711121  0.6337758302688599  1.0000
  Zr  Zr1       1.0  0.930394172668457  0.04357384517788887  0.5795870423316956  1.0000
