data_image0
_chemical_formula_structural       Ca5FGaIO6SiZn2
_chemical_formula_sum              "Ca5 F1 Ga1 I1 O6 Si1 Zn2"
_cell_length_a       6.523357089101662
_cell_length_b       6.616912860992081
_cell_length_c       7.650004863739014
_cell_angle_alpha    70.53210042725696
_cell_angle_beta     66.17144926929748
_cell_angle_gamma    61.50666334980897

_space_group_name_H-M_alt    "P 1"
_space_group_IT_number       1

loop_
  _space_group_symop_operation_xyz
  'x, y, z'

loop_
  _atom_site_type_symbol
  _atom_site_label
  _atom_site_symmetry_multiplicity
  _atom_site_fract_x
  _atom_site_fract_y
  _atom_site_fract_z
  _atom_site_occupancy
  Ca  Ca1       1.0  0.7388026118278503  0.5024335980415344  0.5546908378601074  1.0000
  Ca  Ca2       1.0  0.7433028221130371  0.05038747936487198  0.8362628221511842  1.0000
  Ca  Ca3       1.0  0.2458267956972122  0.4864360988140106  0.906282663345337  1.0000
  Ca  Ca4       1.0  0.24599735438823697  0.2646220326423645  0.44426378607749945  1.0000
  Ca  Ca5       1.0  0.2329641133546829  0.8452355861663818  0.7049847841262817  1.0000
  F   F1        1.0  0.24450413882732389  0.755591094493866  0.9047868847846986  1.0000
  Ga  Ga1       1.0  0.25322774052619934  0.968085527420044  0.7806864380836488  1.0000
  I   I1        1.0  0.2398279160261154  0.2280675172805786  0.8023653626441957  1.0000
  O   O1        1.0  0.4794375896453857  0.9775208830833435  0.6810458302497864  1.0000
  O   O2        1.0  0.7325596213340759  0.9215828776359558  0.8357040286064149  1.0000
  O   O3        1.0  0.754658043384552  0.06536553055047989  0.42222839593887335  1.0000
  O   O4        1.0  0.2523975372314453  0.9614990949630737  0.5376735329627991  1.0000
  O   O5        1.0  0.8144049644470215  0.12569236755371094  0.6263642311096191  1.0000
  O   O6        1.0  0.23451462388038632  0.1626317799091339  0.945792317390442  1.0000
  Si  Si1       1.0  0.21210435032844543  0.8544822931289673  0.6698156595230103  1.0000
  Zn  Zn1       1.0  0.25092965364456177  0.3584921360015869  0.7874213457107545  1.0000
  Zn  Zn2       1.0  0.7341529130935669  0.5872713923454285  0.8568193316459657  1.0000
