data_image0
_chemical_formula_structural       Ca4KMgO9PS
_chemical_formula_sum              "Ca4 K1 Mg1 O9 P1 S1"
_cell_length_a       7.431808203708896
_cell_length_b       7.5364192483863865
_cell_length_c       7.78649377822876
_cell_angle_alpha    69.97160225657224
_cell_angle_beta     72.81578957615834
_cell_angle_gamma    71.67398212013124

_space_group_name_H-M_alt    "P 1"
_space_group_IT_number       1

loop_
  _space_group_symop_operation_xyz
  'x, y, z'

loop_
  _atom_site_type_symbol
  _atom_site_label
  _atom_site_symmetry_multiplicity
  _atom_site_fract_x
  _atom_site_fract_y
  _atom_site_fract_z
  _atom_site_occupancy
  Ca  Ca1       1.0  0.7162396311759949  0.09943576902151108  0.16844986379146573  1.0000
  Ca  Ca2       1.0  0.708906352519989  0.2908121347427368  0.8321294188499451  1.0000
  Ca  Ca3       1.0  0.2282082587480545  0.34736254811286926  0.9749865531921388  1.0000
  Ca  Ca4       1.0  0.9557523727416992  0.22640947997570038  0.0368676595389843  1.0000
  K   K1        1.0  0.7100147604942322  0.727592945098877  0.03736380487680435  1.0000
  Mg  Mg1       1.0  0.441346138715744  0.15393973886966705  0.5351981520652771  1.0000
  O   O1        1.0  0.9480632543563843  0.9100168943405151  0.6919418573379517  1.0000
  O   O2        1.0  0.42887866497039795  0.12822119891643524  0.7886126041412354  1.0000
  O   O3        1.0  0.6350891590118408  0.7907835841178894  0.35787495970726013  1.0000
  O   O4        1.0  0.6970593929290771  0.552645742893219  0.49989736080169683  1.0000
  O   O5        1.0  0.1757296919822693  0.5723379254341125  0.8694301247596742  1.0000
  O   O6        1.0  0.6892221570014954  0.1595449596643448  0.5495986938476562  1.0000
  O   O7        1.0  0.944939136505127  0.5783308744430542  0.5953328609466553  1.0000
  O   O8        1.0  0.20351269841194153  0.9897763729095459  0.840679168701172  1.0000
  O   O9        1.0  0.6898359060287476  0.4987708628177643  0.9725573658943177  1.0000
  P   P1        1.0  0.7411201000213623  0.4863998293876648  0.12373989820480348  1.0000
  S   S1        1.0  0.9652181267738342  0.9309055805206299  0.27781379222869873  1.0000
