data_image0
_chemical_formula_structural       Ca3KMgO7PS2Zr2
_chemical_formula_sum              "Ca3 K1 Mg1 O7 P1 S2 Zr2"
_cell_length_a       8.77274574755159
_cell_length_b       8.09628815515489
_cell_length_c       8.877257347106934
_cell_angle_alpha    60.67631407005515
_cell_angle_beta     59.21406875785567
_cell_angle_gamma    57.90134281815576

_space_group_name_H-M_alt    "P 1"
_space_group_IT_number       1

loop_
  _space_group_symop_operation_xyz
  'x, y, z'

loop_
  _atom_site_type_symbol
  _atom_site_label
  _atom_site_symmetry_multiplicity
  _atom_site_fract_x
  _atom_site_fract_y
  _atom_site_fract_z
  _atom_site_occupancy
  Ca  Ca1       1.0  0.8398630619049072  0.23780706524848935  0.9441444873809814  1.0000
  Ca  Ca2       1.0  0.4550823271274567  0.7935944795608519  0.5929169058799744  1.0000
  Ca  Ca3       1.0  0.8046974539756775  0.25330090522766113  0.2615937888622284  1.0000
  K   K1        1.0  0.25092169642448425  0.5468644499778748  0.23231500387191772  1.0000
  Mg  Mg1       1.0  0.9338093996047974  0.3381032347679138  0.6900044679641724  1.0000
  O   O1        1.0  0.9092337489128113  0.5475747585296631  0.48111841082572937  1.0000
  O   O2        1.0  0.8362100124359131  0.06294786930084229  0.09337718039751053  1.0000
  O   O3        1.0  0.14569830894470215  0.25075042247772217  0.8346400260925293  1.0000
  O   O4        1.0  0.4351254999637604  0.049390882253646844  0.6070767045021057  1.0000
  O   O5        1.0  0.8751987814903259  0.057214111089706414  0.5203768610954285  1.0000
  O   O6        1.0  0.8331048488616943  0.6468669176101685  0.780875027179718  1.0000
  O   O7        1.0  0.3459670841693879  0.9686476588249205  0.5999994874000549  1.0000
  P   P1        1.0  0.44898191094398504  0.7582859992980956  0.7662865519523621  1.0000
  S   S1        1.0  0.5855986475944519  0.9324527978897094  0.0916576161980629  1.0000
  S   S2        1.0  0.045444067567586933  0.4318862855434417  0.17720417678356173  1.0000
  Zr  Zr1       1.0  0.48466232419013977  0.39006239175796503  0.6730431914329529  1.0000
  Zr  Zr2       1.0  0.1557421982288361  0.4596052765846252  0.413501113653183  1.0000
