data_image0
_chemical_formula_structural       Ca5MgO8S2Si
_chemical_formula_sum              "Ca5 Mg1 O8 S2 Si1"
_cell_length_a       6.715223601125456
_cell_length_b       6.102068365701486
_cell_length_c       7.521564960479736
_cell_angle_alpha    90.81102054946294
_cell_angle_beta     75.34318330295419
_cell_angle_gamma    61.29344579486798

_space_group_name_H-M_alt    "P 1"
_space_group_IT_number       1

loop_
  _space_group_symop_operation_xyz
  'x, y, z'

loop_
  _atom_site_type_symbol
  _atom_site_label
  _atom_site_symmetry_multiplicity
  _atom_site_fract_x
  _atom_site_fract_y
  _atom_site_fract_z
  _atom_site_occupancy
  Ca  Ca1       1.0  0.40004533529281616  0.5294163227081299  0.48661506175994873  1.0000
  Ca  Ca2       1.0  0.7505434155464172  0.42502063512802124  0.6515262722969055  1.0000
  Ca  Ca3       1.0  0.763033390045166  0.04745950177311897  0.23773171007633212  1.0000
  Ca  Ca4       1.0  0.28627800941467285  0.9987098574638367  0.297714501619339  1.0000
  Ca  Ca5       1.0  0.8077301979064941  0.6043132543563843  0.319455087184906  1.0000
  Mg  Mg1       1.0  0.3960440754890442  0.3542514741420746  0.7144689559936523  1.0000
  O   O1        1.0  0.24697552621364594  0.06351776421070099  0.8388524055480957  1.0000
  O   O2        1.0  0.2630898058414459  0.20233334600925446  0.3136075735092163  1.0000
  O   O3        1.0  0.8684371709823608  0.28854694962501526  0.7569910883903503  1.0000
  O   O4        1.0  0.919362485408783  0.6657216548919678  0.09700773656368258  1.0000
  O   O5        1.0  0.7682637572288513  0.23177677392959595  0.4176367223262787  1.0000
  O   O6        1.0  0.7568362951278687  0.6480806469917297  0.7143838405609131  1.0000
  O   O7        1.0  0.13610929250717163  0.7808919548988342  0.2177160382270813  1.0000
  O   O8        1.0  0.47775179147720337  0.29264920949935913  0.6596145033836365  1.0000
  S   S1        1.0  0.41873520612716675  0.5711932182312012  0.6081700325012207  1.0000
  S   S2        1.0  0.922492504119873  0.05745623633265495  0.043807793408632306  1.0000
  Si  Si1       1.0  0.26643499732017517  0.8308239579200745  0.36472705006599426  1.0000
