data_image0
_chemical_formula_structural       Ba3CCd2Sb
_chemical_formula_sum              "Ba3 C1 Cd2 Sb1"
_cell_length_a       5.823015422999542
_cell_length_b       6.661532323617603
_cell_length_c       7.300960063934326
_cell_angle_alpha    69.66040440938814
_cell_angle_beta     65.76979640928083
_cell_angle_gamma    65.28828849951279

_space_group_name_H-M_alt    "P 1"
_space_group_IT_number       1

loop_
  _space_group_symop_operation_xyz
  'x, y, z'

loop_
  _atom_site_type_symbol
  _atom_site_label
  _atom_site_symmetry_multiplicity
  _atom_site_fract_x
  _atom_site_fract_y
  _atom_site_fract_z
  _atom_site_occupancy
  Ba  Ba1       1.0  0.23766687512397766  0.16859346628189087  0.3454817235469818  1.0000
  Ba  Ba2       1.0  0.7864550948143005  0.20295947790145874  0.5308625102043152  1.0000
  Ba  Ba3       1.0  0.2760045528411865  0.20537188649177548  0.49429762363433843  1.0000
  C   C1        1.0  0.7700938582420349  0.671226978302002  0.729052484035492  1.0000
  Cd  Cd1       1.0  0.2428840547800064  0.5860669016838074  0.07413869351148605  1.0000
  Cd  Cd2       1.0  0.6047734618186951  0.7486875653266907  0.4354672729969025  1.0000
  Sb  Sb1       1.0  0.8220357894897461  0.9069541692733764  0.19379387795925143  1.0000
