data_image0
_chemical_formula_structural       CuFeLuNO2OsPRu5ZnZr
_chemical_formula_sum              "Cu1 Fe1 Lu1 N1 O2 Os1 P1 Ru5 Zn1 Zr1"
_cell_length_a       6.606723166811729
_cell_length_b       6.383344995460806
_cell_length_c       7.133644104003906
_cell_angle_alpha    68.07852090165775
_cell_angle_beta     66.00718046264892
_cell_angle_gamma    74.62329057593068

_space_group_name_H-M_alt    "P 1"
_space_group_IT_number       1

loop_
  _space_group_symop_operation_xyz
  'x, y, z'

loop_
  _atom_site_type_symbol
  _atom_site_label
  _atom_site_symmetry_multiplicity
  _atom_site_fract_x
  _atom_site_fract_y
  _atom_site_fract_z
  _atom_site_occupancy
  Cu  Cu1       1.0  0.7174491882324219  0.2719527781009674  0.42557001113891596  1.0000
  Fe  Fe1       1.0  0.8260124325752258  0.5999307036399841  0.9817975163459777  1.0000
  Lu  Lu1       1.0  0.23405727744102478  0.0035680357832461596  0.1679883301258087  1.0000
  N   N1        1.0  0.5472003817558289  0.4751073122024536  0.41646221280097956  1.0000
  O   O1        1.0  0.7378954291343689  0.2526383399963379  0.3179954886436462  1.0000
  O   O2        1.0  0.9229578971862793  0.6797596216201782  0.2072169631719589  1.0000
  Os  Os1       1.0  0.04275212809443474  0.6233548521995544  0.17698158323764798  1.0000
  P   P1        1.0  0.7408952713012695  0.8084694147109985  0.36684232950210566  1.0000
  Ru  Ru1       1.0  0.23515242338180542  0.058518074452877045  0.41228178143501276  1.0000
  Ru  Ru2       1.0  0.7563417553901672  0.09943905472755432  0.7846824526786803  1.0000
  Ru  Ru3       1.0  0.5586493015289307  0.13645324110984802  0.21122510731220245  1.0000
  Ru  Ru4       1.0  0.984021008014679  0.7357942461967468  0.30128166079521174  1.0000
  Ru  Ru5       1.0  0.9769092798233032  0.2702995240688324  0.6712230443954467  1.0000
  Zn  Zn1       1.0  0.534142017364502  0.9628840684890747  0.22257634997367856  1.0000
  Zr  Zr1       1.0  0.5520119071006775  0.4587540924549103  0.9165399074554442  1.0000
