data_image0
_chemical_formula_structural       CuGaNNdO3PRu5UZr
_chemical_formula_sum              "Cu1 Ga1 N1 Nd1 O3 P1 Ru5 U1 Zr1"
_cell_length_a       6.065390775779741
_cell_length_b       6.209466819922693
_cell_length_c       6.650956153869629
_cell_angle_alpha    109.28617996273937
_cell_angle_beta     106.00097019516852
_cell_angle_gamma    113.24145791865996

_space_group_name_H-M_alt    "P 1"
_space_group_IT_number       1

loop_
  _space_group_symop_operation_xyz
  'x, y, z'

loop_
  _atom_site_type_symbol
  _atom_site_label
  _atom_site_symmetry_multiplicity
  _atom_site_fract_x
  _atom_site_fract_y
  _atom_site_fract_z
  _atom_site_occupancy
  Cu  Cu1       1.0  0.94502854347229  0.41720664501190186  0.44017165899276733  1.0000
  Ga  Ga1       1.0  0.25561627745628357  0.3800446689128876  0.4427752196788788  1.0000
  N   N1        1.0  0.8021361827850342  0.4421353340148926  0.877511739730835  1.0000
  Nd  Nd1       1.0  0.22433353960514069  0.7628921270370483  0.21873384714126584  1.0000
  O   O1        1.0  0.24229580163955688  0.01986853964626789  0.8882335424423218  1.0000
  O   O2        1.0  0.1334356963634491  0.7595414519309998  0.9238095283508301  1.0000
  O   O3        1.0  0.9622172713279724  0.8591120839118958  0.21986284852027893  1.0000
  P   P1        1.0  0.4609659016132355  0.7992356419563293  0.8646030426025391  1.0000
  Ru  Ru1       1.0  0.3596098721027374  0.16180413961410522  0.5388362407684326  1.0000
  Ru  Ru2       1.0  0.5465748310089111  0.857548713684082  0.9415234327316284  1.0000
  Ru  Ru3       1.0  0.41851603984832764  0.4332212209701538  0.20492610335350034  1.0000
  Ru  Ru4       1.0  0.8573740124702454  0.7929684519767761  0.09908975660800934  1.0000
  Ru  Ru5       1.0  0.5989302396774292  0.830565869808197  0.043091390281915665  1.0000
  U   U1        1.0  0.8672049045562744  0.9786806702613831  0.32778772711753845  1.0000
  Zr  Zr1       1.0  0.8889274597167969  0.018947899341583252  0.35945290327072144  1.0000
