data_image0
_chemical_formula_structural       CuNd6O8
_chemical_formula_sum              "Cu1 Nd6 O8"
_cell_length_a       6.126236991278589
_cell_length_b       6.152454925129849
_cell_length_c       6.666849613189697
_cell_angle_alpha    77.99398363003185
_cell_angle_beta     75.88711187669065
_cell_angle_gamma    79.81424268109069

_space_group_name_H-M_alt    "P 1"
_space_group_IT_number       1

loop_
  _space_group_symop_operation_xyz
  'x, y, z'

loop_
  _atom_site_type_symbol
  _atom_site_label
  _atom_site_symmetry_multiplicity
  _atom_site_fract_x
  _atom_site_fract_y
  _atom_site_fract_z
  _atom_site_occupancy
  Cu  Cu1       1.0  0.6179458498954773  0.17897826433181763  0.1710556447505951  1.0000
  Nd  Nd1       1.0  0.11764935404062273  0.48087453842163086  0.3214021623134613  1.0000
  Nd  Nd2       1.0  0.6165760159492493  0.6266610026359558  0.7491469383239746  1.0000
  Nd  Nd3       1.0  0.10806008428335191  0.5056264996528625  0.09571234881877896  1.0000
  Nd  Nd4       1.0  0.10795641690492631  0.48905038833618164  0.3370858132839203  1.0000
  Nd  Nd5       1.0  0.614255428314209  0.5470589995384216  0.0484321154654026  1.0000
  Nd  Nd6       1.0  0.11448791623115541  0.4355466067790985  0.6598995327949524  1.0000
  O   O1        1.0  0.8642067313194276  0.059457484632730484  0.14513283967971802  1.0000
  O   O2        1.0  0.5960421562194824  0.02820315584540367  0.10225562006235123  1.0000
  O   O3        1.0  0.8213773965835572  0.41912171244621277  0.4902247488498687  1.0000
  O   O4        1.0  0.5996603965759277  0.15519030392169952  0.7052797675132751  1.0000
  O   O5        1.0  0.636679470539093  0.36450597643852234  0.17483574151992798  1.0000
  O   O6        1.0  0.8821345567703248  0.4747615456581116  0.9560160040855408  1.0000
  O   O7        1.0  0.13608033955097198  0.1468360871076584  0.7927696108818054  1.0000
  O   O8        1.0  0.12747745215892792  0.18823447823524475  0.5501443147659302  1.0000
