data_image0
_chemical_formula_structural       O9P2Ru2ZnZr
_chemical_formula_sum              "O9 P2 Ru2 Zn1 Zr1"
_cell_length_a       5.669134028177686
_cell_length_b       5.782788534934926
_cell_length_c       6.267393112182617
_cell_angle_alpha    87.61088021897103
_cell_angle_beta     88.99229577437046
_cell_angle_gamma    107.08902590106477

_space_group_name_H-M_alt    "P 1"
_space_group_IT_number       1

loop_
  _space_group_symop_operation_xyz
  'x, y, z'

loop_
  _atom_site_type_symbol
  _atom_site_label
  _atom_site_symmetry_multiplicity
  _atom_site_fract_x
  _atom_site_fract_y
  _atom_site_fract_z
  _atom_site_occupancy
  O   O1        1.0  0.21098785102367396  0.9890003204345702  0.06723248213529588  1.0000
  O   O2        1.0  0.5933877825737  0.0863071009516716  0.1400693655014038  1.0000
  O   O3        1.0  0.4843454360961914  0.8850285410881042  0.5576547980308533  1.0000
  O   O4        1.0  0.8677322864532471  0.8940246105194092  0.9594770669937134  1.0000
  O   O5        1.0  0.8420223593711853  0.8104764223098755  0.6252521276473999  1.0000
  O   O6        1.0  0.3429564833641052  0.2281544357538223  0.10348589718341827  1.0000
  O   O7        1.0  0.4788985848426819  0.767498791217804  0.8349213004112244  1.0000
  O   O8        1.0  0.9104771018028259  0.2726586163043976  0.7641566395759583  1.0000
  O   O9        1.0  0.45720502734184265  0.3713929355144501  0.22472521662712097  1.0000
  P   P1        1.0  0.7509370446205139  0.36906424164772034  0.0049790078774094625  1.0000
  P   P2        1.0  0.6641027927398682  0.2868553102016449  0.9011025428771973  1.0000
  Ru  Ru1       1.0  0.09685253351926804  0.05180927738547325  0.13477611541748047  1.0000
  Ru  Ru2       1.0  0.34357357025146484  0.8148345351219177  0.672817587852478  1.0000
  Zn  Zn1       1.0  0.8570558428764343  0.1505376398563385  0.46107739210128784  1.0000
  Zr  Zr1       1.0  0.3748931288719177  0.1483784019947052  0.31888407468795776  1.0000
