data_image0
_chemical_formula_structural       CO2PRu6ZnZr4
_chemical_formula_sum              "C1 O2 P1 Ru6 Zn1 Zr4"
_cell_length_a       7.419370691485401
_cell_length_b       7.313666901108071
_cell_length_c       7.604893684387207
_cell_angle_alpha    61.89758851520248
_cell_angle_beta     61.463787629709124
_cell_angle_gamma    61.10673141228522

_space_group_name_H-M_alt    "P 1"
_space_group_IT_number       1

loop_
  _space_group_symop_operation_xyz
  'x, y, z'

loop_
  _atom_site_type_symbol
  _atom_site_label
  _atom_site_symmetry_multiplicity
  _atom_site_fract_x
  _atom_site_fract_y
  _atom_site_fract_z
  _atom_site_occupancy
  C   C1        1.0  0.6854045987129211  0.7638866305351257  0.21265046298503876  1.0000
  O   O1        1.0  0.22858035564422607  0.2789013087749481  0.20506857335567474  1.0000
  O   O2        1.0  0.13239727914333344  0.5940966010093689  0.3695540130138397  1.0000
  P   P1        1.0  0.7315126061439514  0.2696775794029236  0.4273942708969116  1.0000
  Ru  Ru1       1.0  0.21862037479877472  0.6102531552314758  0.7616894841194153  1.0000
  Ru  Ru2       1.0  0.7256745100021362  0.35103851556777954  0.5670139193534851  1.0000
  Ru  Ru3       1.0  0.14419706165790558  0.7565533518791199  0.740877628326416  1.0000
  Ru  Ru4       1.0  0.7238891124725342  0.08106792718172073  0.9266194105148315  1.0000
  Ru  Ru5       1.0  0.20894889533519745  0.15352697670459747  0.738703191280365  1.0000
  Ru  Ru6       1.0  0.7154378294944763  0.6624772548675537  0.8431645631790161  1.0000
  Zn  Zn1       1.0  0.22587281465530396  0.8873023986816406  0.007787658832967281  1.0000
  Zr  Zr1       1.0  0.26666855812072754  0.006250229198485613  0.6056405901908875  1.0000
  Zr  Zr2       1.0  0.7196212410926819  0.6266565918922424  0.6148452162742615  1.0000
  Zr  Zr3       1.0  0.2540435791015625  0.2320519983768463  0.36492806673049927  1.0000
  Zr  Zr4       1.0  0.7678214907646179  0.008946636691689491  0.20523667335510246  1.0000
