data_image0
_chemical_formula_structural       CuNd8O6
_chemical_formula_sum              "Cu1 Nd8 O6"
_cell_length_a       6.163142784035945
_cell_length_b       6.259763689159015
_cell_length_c       6.484713554382324
_cell_angle_alpha    90.29078427533082
_cell_angle_beta     89.02399410253807
_cell_angle_gamma    100.68333946125426

_space_group_name_H-M_alt    "P 1"
_space_group_IT_number       1

loop_
  _space_group_symop_operation_xyz
  'x, y, z'

loop_
  _atom_site_type_symbol
  _atom_site_label
  _atom_site_symmetry_multiplicity
  _atom_site_fract_x
  _atom_site_fract_y
  _atom_site_fract_z
  _atom_site_occupancy
  Cu  Cu1       1.0  0.30347755551338196  0.6643034815788269  0.23346051573753354  1.0000
  Nd  Nd1       1.0  0.3042949438095093  0.34869906306266785  0.99554306268692  1.0000
  Nd  Nd2       1.0  0.782592236995697  0.6091540455818176  0.19571655988693237  1.0000
  Nd  Nd3       1.0  0.7989131808280945  0.9186856746673584  0.08239277452230453  1.0000
  Nd  Nd4       1.0  0.7898351550102234  0.03621504083275795  0.929228901863098  1.0000
  Nd  Nd5       1.0  0.29937195777893066  0.49070870876312256  0.19228249788284302  1.0000
  Nd  Nd6       1.0  0.7976269125938416  0.8763813376426697  0.8895661234855651  1.0000
  Nd  Nd7       1.0  0.27478402853012085  0.9894381761550903  0.7987356781959534  1.0000
  Nd  Nd8       1.0  0.30940502882003784  0.9640883207321167  0.20403894782066345  1.0000
  O   O1        1.0  0.7877184152603149  0.0896434485912323  0.9286861419677733  1.0000
  O   O2        1.0  0.26333925127983093  0.1144554391503334  0.6869263648986816  1.0000
  O   O3        1.0  0.5110107660293579  0.8372911810874939  0.27017542719841003  1.0000
  O   O4        1.0  0.29659104347229004  0.9654887914657593  0.5113544464111328  1.0000
  O   O5        1.0  0.8275535106658936  0.21600233018398285  0.21080543100833893  1.0000
  O   O6        1.0  0.8150380849838257  0.44402649998664856  0.02852125652134418  1.0000
