data_image0
_chemical_formula_structural       F3PPrRbSeZr3
_chemical_formula_sum              "F3 P1 Pr1 Rb1 Se1 Zr3"
_cell_length_a       5.710614335725742
_cell_length_b       7.1849444631155945
_cell_length_c       7.433457374572754
_cell_angle_alpha    117.53325200138207
_cell_angle_beta     112.3547170361395
_cell_angle_gamma    95.44806936913164

_space_group_name_H-M_alt    "P 1"
_space_group_IT_number       1

loop_
  _space_group_symop_operation_xyz
  'x, y, z'

loop_
  _atom_site_type_symbol
  _atom_site_label
  _atom_site_symmetry_multiplicity
  _atom_site_fract_x
  _atom_site_fract_y
  _atom_site_fract_z
  _atom_site_occupancy
  F   F1        1.0  0.8621739745140076  0.7430590987205506  0.3673889636993409  1.0000
  F   F2        1.0  0.2930714786052704  0.07133731991052628  0.5679192543029785  1.0000
  F   F3        1.0  0.5411931872367859  0.6042520403862  0.5073630809783936  1.0000
  P   P1        1.0  0.291460245847702  0.901994824409485  0.38123536109924316  1.0000
  Pr  Pr1       1.0  0.35304927825927734  0.28468379378318787  0.9349743723869325  1.0000
  Rb  Rb1       1.0  0.5285381078720093  0.8869130015373231  0.08683933317661287  1.0000
  Se  Se1       1.0  0.8640833497047424  0.6508966088294983  0.0026134515646844807  1.0000
  Zr  Zr1       1.0  0.5574306845664978  0.269763708114624  0.23264025151729587  1.0000
  Zr  Zr2       1.0  0.9548982977867126  0.05771033093333245  0.018445309251546863  1.0000
  Zr  Zr3       1.0  0.23989100754261017  0.7146456241607666  0.5877684354782106  1.0000
