data_image0
_chemical_formula_structural       F3GaGeRb2SeZr2
_chemical_formula_sum              "F3 Ga1 Ge1 Rb2 Se1 Zr2"
_cell_length_a       5.319808509651464
_cell_length_b       5.898616175143558
_cell_length_c       8.568411827087402
_cell_angle_alpha    114.02519229167031
_cell_angle_beta     90.70354157403501
_cell_angle_gamma    89.84960009316903

_space_group_name_H-M_alt    "P 1"
_space_group_IT_number       1

loop_
  _space_group_symop_operation_xyz
  'x, y, z'

loop_
  _atom_site_type_symbol
  _atom_site_label
  _atom_site_symmetry_multiplicity
  _atom_site_fract_x
  _atom_site_fract_y
  _atom_site_fract_z
  _atom_site_occupancy
  F   F1        1.0  0.19390422105789185  0.11938031762838364  0.3874363601207733  1.0000
  F   F2        1.0  0.7007028460502625  0.4666995704174042  0.48909810185432434  1.0000
  F   F3        1.0  0.8186675906181335  0.18908296525478363  0.12233883142471313  1.0000
  Ga  Ga1       1.0  0.7186197638511658  0.32467082142829895  0.8039379119873047  1.0000
  Ge  Ge1       1.0  0.20160545408725739  0.07220113277435303  0.09310462325811386  1.0000
  Rb  Rb1       1.0  0.6983780264854431  0.11543621867895126  0.9431177973747253  1.0000
  Rb  Rb2       1.0  0.6965365409851074  0.9435043931007385  0.871580958366394  1.0000
  Se  Se1       1.0  0.2172154188156128  0.2066866159439087  0.5354269742965698  1.0000
  Zr  Zr1       1.0  0.715482771396637  0.17138180136680603  0.1405419111251831  1.0000
  Zr  Zr2       1.0  0.2064850628376007  0.14125686883926392  0.7642391920089722  1.0000
