data_image0
_chemical_formula_structural       F4Zr6
_chemical_formula_sum              "F4 Zr6"
_cell_length_a       4.868888499607719
_cell_length_b       5.637859375268032
_cell_length_c       5.951220989227295
_cell_angle_alpha    123.86159879725551
_cell_angle_beta     91.09194064363238
_cell_angle_gamma    88.3835874827832

_space_group_name_H-M_alt    "P 1"
_space_group_IT_number       1

loop_
  _space_group_symop_operation_xyz
  'x, y, z'

loop_
  _atom_site_type_symbol
  _atom_site_label
  _atom_site_symmetry_multiplicity
  _atom_site_fract_x
  _atom_site_fract_y
  _atom_site_fract_z
  _atom_site_occupancy
  F   F1        1.0  0.7182408571243286  0.9354082345962524  0.5151934623718263  1.0000
  F   F2        1.0  0.2160874456167221  0.559981644153595  0.7644113302230835  1.0000
  F   F3        1.0  0.22182363271713257  0.8582295775413513  0.8134510517120361  1.0000
  F   F4        1.0  0.225554957985878  0.3828502595424652  0.6376419067382812  1.0000
  Zr  Zr1       1.0  0.21331511437892914  0.5662361979484558  0.16261838376522067  1.0000
  Zr  Zr2       1.0  0.7146580219268799  0.6911263465881348  0.20036493241786957  1.0000
  Zr  Zr3       1.0  0.21441766619682312  0.9181864261627197  0.8555307984352112  1.0000
  Zr  Zr4       1.0  0.7123917937278748  0.11634176224470139  0.8455089926719666  1.0000
  Zr  Zr5       1.0  0.7185172438621521  0.4305403530597687  0.21562902629375458  1.0000
  Zr  Zr6       1.0  0.7194378972053528  0.41556426882743835  0.5412907004356384  1.0000
