data_image0
_chemical_formula_structural       AsF2OZr6
_chemical_formula_sum              "As1 F2 O1 Zr6"
_cell_length_a       4.416334364496435
_cell_length_b       5.433231863131647
_cell_length_c       6.049487590789795
_cell_angle_alpha    127.2171694191035
_cell_angle_beta     89.66379976498827
_cell_angle_gamma    90.2293312276191

_space_group_name_H-M_alt    "P 1"
_space_group_IT_number       1

loop_
  _space_group_symop_operation_xyz
  'x, y, z'

loop_
  _atom_site_type_symbol
  _atom_site_label
  _atom_site_symmetry_multiplicity
  _atom_site_fract_x
  _atom_site_fract_y
  _atom_site_fract_z
  _atom_site_occupancy
  As  As1       1.0  0.14731276035308838  0.48974519968032837  0.8751733899116516  1.0000
  F   F1        1.0  0.009204307571053505  0.2788855731487274  0.6470556259155273  1.0000
  F   F2        1.0  0.5453287363052368  0.26160770654678345  0.8852799534797668  1.0000
  O   O1        1.0  0.1225932240486145  0.3103993833065033  0.8716715574264526  1.0000
  Zr  Zr1       1.0  0.9012908935546875  0.8178313970565796  0.4913897514343262  1.0000
  Zr  Zr2       1.0  0.6349341869354248  0.5158703923225403  0.9505512714385987  1.0000
  Zr  Zr3       1.0  0.13921557366847992  0.8151749968528748  0.07359515875577927  1.0000
  Zr  Zr4       1.0  0.5781148076057434  0.8025886416435242  0.9604673385620117  1.0000
  Zr  Zr5       1.0  0.4017261862754822  0.9694026112556458  0.37671980261802673  1.0000
  Zr  Zr6       1.0  0.8813982009887695  0.15315689146518707  0.22084598243236542  1.0000
