data_image0
_chemical_formula_structural       F4Zr6
_chemical_formula_sum              "F4 Zr6"
_cell_length_a       5.046292372624224
_cell_length_b       6.470872672124188
_cell_length_c       6.3451104164123535
_cell_angle_alpha    125.91870614410065
_cell_angle_beta     92.78105960176825
_cell_angle_gamma    89.50663909311874

_space_group_name_H-M_alt    "P 1"
_space_group_IT_number       1

loop_
  _space_group_symop_operation_xyz
  'x, y, z'

loop_
  _atom_site_type_symbol
  _atom_site_label
  _atom_site_symmetry_multiplicity
  _atom_site_fract_x
  _atom_site_fract_y
  _atom_site_fract_z
  _atom_site_occupancy
  F   F1        1.0  0.4688623547554016  0.4046204686164856  0.8894718289375305  1.0000
  F   F2        1.0  0.4655405879020691  0.9892943501472473  0.9507627487182617  1.0000
  F   F3        1.0  0.4775691628456116  0.4067608416080475  0.32537391781806946  1.0000
  F   F4        1.0  0.4750779867172241  0.7709292769432068  0.2505461275577545  1.0000
  Zr  Zr1       1.0  0.473177433013916  0.2641310393810272  0.3265572786331177  1.0000
  Zr  Zr2       1.0  0.9731507897377014  0.42210566997528076  0.4546649754047394  1.0000
  Zr  Zr3       1.0  0.9754897952079773  0.6354563236236572  0.42393243312835693  1.0000
  Zr  Zr4       1.0  0.4733603298664093  0.4019756317138672  0.298195481300354  1.0000
  Zr  Zr5       1.0  0.9734615087509155  0.9636673927307129  0.023625733330845902  1.0000
  Zr  Zr6       1.0  0.974365234375  0.11472515016794205  0.8685518503189087  1.0000
