data_image0
_chemical_formula_structural       AsF4RbZr4
_chemical_formula_sum              "As1 F4 Rb1 Zr4"
_cell_length_a       5.550532722641916
_cell_length_b       5.803328427805564
_cell_length_c       6.416893482208252
_cell_angle_alpha    124.36495297449126
_cell_angle_beta     107.00357848550637
_cell_angle_gamma    97.73320486508237

_space_group_name_H-M_alt    "P 1"
_space_group_IT_number       1

loop_
  _space_group_symop_operation_xyz
  'x, y, z'

loop_
  _atom_site_type_symbol
  _atom_site_label
  _atom_site_symmetry_multiplicity
  _atom_site_fract_x
  _atom_site_fract_y
  _atom_site_fract_z
  _atom_site_occupancy
  As  As1       1.0  0.7549578547477722  0.019722051918506622  0.0682528167963028  1.0000
  F   F1        1.0  0.9511074423789978  0.32067570090293884  0.80163311958313  1.0000
  F   F2        1.0  0.6747822761535645  0.13290101289749146  0.31112512946128845  1.0000
  F   F3        1.0  0.42943352460861206  0.5690443515777588  0.3361777365207672  1.0000
  F   F4        1.0  0.716300904750824  0.6111267805099487  0.5366507768630981  1.0000
  Rb  Rb1       1.0  0.2253008782863617  0.4002082645893097  0.54411381483078  1.0000
  Zr  Zr1       1.0  0.023247480392456055  0.06929966062307358  0.2093654572963715  1.0000
  Zr  Zr2       1.0  0.4579741060733795  0.5496068596839905  0.37394928932189947  1.0000
  Zr  Zr3       1.0  0.32683053612709045  0.5284448862075806  0.6630932688713074  1.0000
  Zr  Zr4       1.0  0.4040912091732025  0.4902547597885132  0.9433701038360597  1.0000
