data_image0
_chemical_formula_structural       Ba4CuMn2O8
_chemical_formula_sum              "Ba4 Cu1 Mn2 O8"
_cell_length_a       5.665884408079913
_cell_length_b       4.884106937175576
_cell_length_c       6.110598087310791
_cell_angle_alpha    52.65038134251732
_cell_angle_beta     68.1601775091221
_cell_angle_gamma    41.727015655813254

_space_group_name_H-M_alt    "P 1"
_space_group_IT_number       1

loop_
  _space_group_symop_operation_xyz
  'x, y, z'

loop_
  _atom_site_type_symbol
  _atom_site_label
  _atom_site_symmetry_multiplicity
  _atom_site_fract_x
  _atom_site_fract_y
  _atom_site_fract_z
  _atom_site_occupancy
  Ba  Ba1       1.0  0.5598084330558777  0.0028843150939792395  0.714390218257904  1.0000
  Ba  Ba2       1.0  0.9294484257698059  0.13672001659870148  0.3644924461841583  1.0000
  Ba  Ba3       1.0  0.312187522649765  0.6256351470947266  0.29880839586257935  1.0000
  Ba  Ba4       1.0  0.5228820443153381  0.4123511016368866  0.09898695349693298  1.0000
  Cu  Cu1       1.0  0.6480762958526611  0.38031744956970215  0.47792625427246094  1.0000
  Mn  Mn1       1.0  0.6559257507324219  0.9134569764137268  0.671186089515686  1.0000
  Mn  Mn2       1.0  0.6758794188499451  0.45957210659980774  0.8760048151016235  1.0000
  O   O1        1.0  0.7601070404052734  0.2300264537334442  0.07392268627882004  1.0000
  O   O2        1.0  0.4536599814891815  0.2510821521282196  0.37489286065101624  1.0000
  O   O3        1.0  0.007287007290869951  0.41479742527008057  0.2891627550125122  1.0000
  O   O4        1.0  0.08841081708669662  0.6401412487030029  0.8670779466629028  1.0000
  O   O5        1.0  0.1169804036617279  0.5720386505126953  0.04890741407871246  1.0000
  O   O6        1.0  0.4680081307888031  0.13299022614955902  0.3882594704627991  1.0000
  O   O7        1.0  0.7562814950942993  0.6831932663917542  0.032321602106094284  1.0000
  O   O8        1.0  0.05094168707728386  0.5284602642059326  0.7463574409484863  1.0000
