data_image0
_chemical_formula_structural       BBa3Mn3O7Zn
_chemical_formula_sum              "B1 Ba3 Mn3 O7 Zn1"
_cell_length_a       4.638403752658778
_cell_length_b       7.849704549152372
_cell_length_c       8.44778060913086
_cell_angle_alpha    95.68551129446287
_cell_angle_beta     89.78781075669532
_cell_angle_gamma    112.5623497729424

_space_group_name_H-M_alt    "P 1"
_space_group_IT_number       1

loop_
  _space_group_symop_operation_xyz
  'x, y, z'

loop_
  _atom_site_type_symbol
  _atom_site_label
  _atom_site_symmetry_multiplicity
  _atom_site_fract_x
  _atom_site_fract_y
  _atom_site_fract_z
  _atom_site_occupancy
  B   B1        1.0  0.04476536810398102  0.6201393008232117  0.30043116211891174  1.0000
  Ba  Ba1       1.0  0.06724143773317337  0.5968723893165588  0.7887587547302246  1.0000
  Ba  Ba2       1.0  0.5403801202774048  0.5215631723403931  0.31229984760284424  1.0000
  Ba  Ba3       1.0  0.10787595063447952  0.6824275851249695  0.8465790152549744  1.0000
  Mn  Mn1       1.0  0.011127982288599014  0.7245700359344482  0.5399009585380554  1.0000
  Mn  Mn2       1.0  0.7485173344612122  0.5057632327079773  0.47232893109321594  1.0000
  Mn  Mn3       1.0  0.7878098487854004  0.20099180936813357  0.7453143000602722  1.0000
  O   O1        1.0  0.7019895911216737  0.9994441270828248  0.449033260345459  1.0000
  O   O2        1.0  0.6110506057739258  0.5791515111923218  0.050870828330516815  1.0000
  O   O3        1.0  0.9111152291297913  0.034891534596681595  0.21557384729385376  1.0000
  O   O4        1.0  0.41943353414535534  0.9992927908897401  0.6097455620765686  1.0000
  O   O5        1.0  0.5890669822692871  0.587029218673706  0.17366796731948853  1.0000
  O   O6        1.0  0.030724409967660904  0.7231902480125427  0.2858971059322357  1.0000
  O   O7        1.0  0.8349981904029847  0.8942348957061769  0.13510258495807648  1.0000
  Zn  Zn1       1.0  0.06790889799594879  0.7149921655654907  0.7247052788734436  1.0000
