data_image0
_chemical_formula_structural       Mn6O8Zn
_chemical_formula_sum              "Mn6 O8 Zn1"
_cell_length_a       6.388188613094386
_cell_length_b       6.5144874617082404
_cell_length_c       6.729325771331787
_cell_angle_alpha    64.11986794205909
_cell_angle_beta     62.03299390209349
_cell_angle_gamma    62.689901457548615

_space_group_name_H-M_alt    "P 1"
_space_group_IT_number       1

loop_
  _space_group_symop_operation_xyz
  'x, y, z'

loop_
  _atom_site_type_symbol
  _atom_site_label
  _atom_site_symmetry_multiplicity
  _atom_site_fract_x
  _atom_site_fract_y
  _atom_site_fract_z
  _atom_site_occupancy
  Mn  Mn1       1.0  0.7854896783828735  0.22577306628227237  0.41008597612380987  1.0000
  Mn  Mn2       1.0  0.6710734963417053  0.5455557107925415  0.18756118416786188  1.0000
  Mn  Mn3       1.0  0.2535602748394012  0.834022879600525  0.6526215076446533  1.0000
  Mn  Mn4       1.0  0.7567811012268066  0.8599597811698915  0.8281803727149964  1.0000
  Mn  Mn5       1.0  0.261165052652359  0.4442360699176789  0.9147450923919679  1.0000
  Mn  Mn6       1.0  0.44392815232276917  0.37987819314002996  0.32786598801612854  1.0000
  O   O1        1.0  0.4517551064491272  0.13169632852077484  0.8749775290489198  1.0000
  O   O2        1.0  0.9514139294624329  0.40199238061904913  0.8206026554107667  1.0000
  O   O3        1.0  0.005858969409018716  0.8774648904800416  0.5797131061553955  1.0000
  O   O4        1.0  0.003410321427509169  0.6146565079689026  0.5840945243835449  1.0000
  O   O5        1.0  0.3643348813056946  0.9691338539123536  0.09165316075086588  1.0000
  O   O6        1.0  0.7934631705284119  0.4707429707050324  0.9885683655738832  1.0000
  O   O7        1.0  0.8038966059684753  0.9725033044815065  0.9458495974540712  1.0000
  O   O8        1.0  0.6471068263053894  0.6533246040344238  0.5860325694084167  1.0000
  Zn  Zn1       1.0  0.2852582633495331  0.2343253940343857  0.44923380017280584  1.0000
