data_image0
_chemical_formula_structural       BMn2O9SbTlZn
_chemical_formula_sum              "B1 Mn2 O9 Sb1 Tl1 Zn1"
_cell_length_a       5.671518610900916
_cell_length_b       7.761723385665976
_cell_length_c       8.545744895935059
_cell_angle_alpha    113.67237720900688
_cell_angle_beta     92.6864398252739
_cell_angle_gamma    112.26047408966546

_space_group_name_H-M_alt    "P 1"
_space_group_IT_number       1

loop_
  _space_group_symop_operation_xyz
  'x, y, z'

loop_
  _atom_site_type_symbol
  _atom_site_label
  _atom_site_symmetry_multiplicity
  _atom_site_fract_x
  _atom_site_fract_y
  _atom_site_fract_z
  _atom_site_occupancy
  B   B1        1.0  0.9640008807182312  0.8141910433769226  0.3674355149269104  1.0000
  Mn  Mn1       1.0  0.6371046900749207  0.6622055768966675  0.09961742907762527  1.0000
  Mn  Mn2       1.0  0.38438284397125244  0.9474966526031494  0.9508188366889954  1.0000
  O   O1        1.0  0.4107605218887329  0.6983568072319031  0.9500908851623535  1.0000
  O   O2        1.0  0.8793783783912659  0.4788482189178467  0.2356109470129013  1.0000
  O   O3        1.0  0.7900158762931824  0.06044594943523407  0.7596111297607422  1.0000
  O   O4        1.0  0.7304225564002991  0.5371823310852051  0.02643649466335771  1.0000
  O   O5        1.0  0.14271797239780426  0.017010590061545372  0.5143626928329468  1.0000
  O   O6        1.0  0.42664265632629395  0.1343459039926529  0.17708240449428558  1.0000
  O   O7        1.0  0.2285706251859665  0.796715497970581  0.6423742771148682  1.0000
  O   O8        1.0  0.15564674139022827  0.08843390643596649  0.803970992565155  1.0000
  O   O9        1.0  0.9538549780845642  0.7437262535095215  0.6945700645446777  1.0000
  Sb  Sb1       1.0  0.1290452927350998  0.32948046922683716  0.5525654554367065  1.0000
  Tl  Tl1       1.0  0.7025893330574036  0.15951569378376007  0.4058559536933899  1.0000
  Zn  Zn1       1.0  0.7910570502281189  0.32805192470550537  0.6730685234069824  1.0000
