data_image0
_chemical_formula_structural       BaCuMn6O6Zn
_chemical_formula_sum              "Ba1 Cu1 Mn6 O6 Zn1"
_cell_length_a       5.851841588348526
_cell_length_b       6.580312041114272
_cell_length_c       6.427158832550049
_cell_angle_alpha    64.05533839641305
_cell_angle_beta     59.354059070220764
_cell_angle_gamma    59.232886506565805

_space_group_name_H-M_alt    "P 1"
_space_group_IT_number       1

loop_
  _space_group_symop_operation_xyz
  'x, y, z'

loop_
  _atom_site_type_symbol
  _atom_site_label
  _atom_site_symmetry_multiplicity
  _atom_site_fract_x
  _atom_site_fract_y
  _atom_site_fract_z
  _atom_site_occupancy
  Ba  Ba1       1.0  0.5710398554801941  0.9845952391624451  0.193724125623703  1.0000
  Cu  Cu1       1.0  0.26655587553977966  0.7719972133636475  0.46934017539024353  1.0000
  Mn  Mn1       1.0  0.848849892616272  0.5015098452568054  0.9692069292068481  1.0000
  Mn  Mn2       1.0  0.08940180391073227  0.3051910400390625  0.1948055922985077  1.0000
  Mn  Mn3       1.0  0.36405840516090393  0.27239128947257996  0.4100787937641144  1.0000
  Mn  Mn4       1.0  0.6059470772743225  0.9008959531784058  0.009570172987878392  1.0000
  Mn  Mn5       1.0  0.631289005279541  0.9060230851173401  0.7157354950904846  1.0000
  Mn  Mn6       1.0  0.8613961935043335  0.2932455837726593  0.48440876603126526  1.0000
  O   O1        1.0  0.06825029850006104  0.7696625590324402  0.21113118529319763  1.0000
  O   O2        1.0  0.6320512890815735  0.1905820369720459  0.2126842886209488  1.0000
  O   O3        1.0  0.5774427652359009  0.22390097379684448  0.1673370897769928  1.0000
  O   O4        1.0  0.8496521711349487  0.11795902997255325  0.8964086771011353  1.0000
  O   O5        1.0  0.1003246083855629  0.719556987285614  0.7224188446998596  1.0000
  O   O6        1.0  0.6410737633705139  0.6155949831008911  0.2260056436061859  1.0000
  Zn  Zn1       1.0  0.994243323802948  0.8879834413528442  0.9723879098892212  1.0000
