data_image0
_chemical_formula_structural       BMn5O9
_chemical_formula_sum              "B1 Mn5 O9"
_cell_length_a       5.220994619389265
_cell_length_b       6.105363334640372
_cell_length_c       7.848179340362549
_cell_angle_alpha    102.99507833658467
_cell_angle_beta     90.01359097532918
_cell_angle_gamma    117.8210573867962

_space_group_name_H-M_alt    "P 1"
_space_group_IT_number       1

loop_
  _space_group_symop_operation_xyz
  'x, y, z'

loop_
  _atom_site_type_symbol
  _atom_site_label
  _atom_site_symmetry_multiplicity
  _atom_site_fract_x
  _atom_site_fract_y
  _atom_site_fract_z
  _atom_site_occupancy
  B   B1        1.0  0.5206115245819092  0.9976072907447815  0.05399843305349349  1.0000
  Mn  Mn1       1.0  0.3411707580089569  0.4637255072593689  0.12735685706138608  1.0000
  Mn  Mn2       1.0  0.8788369297981262  0.0051608579233288765  0.8988454341888427  1.0000
  Mn  Mn3       1.0  0.37692052125930786  0.9613112807273865  0.6583648324012756  1.0000
  Mn  Mn4       1.0  0.566994845867157  0.7260622382164001  0.6601904034614562  1.0000
  Mn  Mn5       1.0  0.8786979913711548  0.9690419435501099  0.8215953111648558  1.0000
  O   O1        1.0  0.6469154357910156  0.34227505326271057  0.6969200372695922  1.0000
  O   O2        1.0  0.3727436065673828  0.19483932852745056  0.8986625671386718  1.0000
  O   O3        1.0  0.16496650874614716  0.3687078654766083  0.16110216081142426  1.0000
  O   O4        1.0  0.6201810240745544  0.8504209518432617  0.819504141807556  1.0000
  O   O5        1.0  0.31012237071990967  0.9682727456092834  0.7591908574104308  1.0000
  O   O6        1.0  0.13388800621032715  0.6148756742477417  0.7980324029922484  1.0000
  O   O7        1.0  0.11531593650579453  0.7881549000740051  0.943162441253662  1.0000
  O   O8        1.0  0.5865365266799927  0.26929786801338196  0.11238281428813933  1.0000
  O   O9        1.0  0.6307366490364075  0.25752484798431396  0.6367519497871397  1.0000
