data_image0
_chemical_formula_structural       O8Re3SSiSm
_chemical_formula_sum              "O8 Re3 S1 Si1 Sm1"
_cell_length_a       5.896967970765631
_cell_length_b       6.6457959732766225
_cell_length_c       6.64531946182251
_cell_angle_alpha    107.88448601091773
_cell_angle_beta     87.38052713278691
_cell_angle_gamma    92.29458656137626

_space_group_name_H-M_alt    "P 1"
_space_group_IT_number       1

loop_
  _space_group_symop_operation_xyz
  'x, y, z'

loop_
  _atom_site_type_symbol
  _atom_site_label
  _atom_site_symmetry_multiplicity
  _atom_site_fract_x
  _atom_site_fract_y
  _atom_site_fract_z
  _atom_site_occupancy
  O   O1        1.0  9.560585021972656e-05  0.16078464686870575  0.3464392423629761  1.0000
  O   O2        1.0  0.5450217723846436  0.41519883275032043  0.373927503824234  1.0000
  O   O3        1.0  0.019470572471618652  0.38499096035957336  0.024114929139614088  1.0000
  O   O4        1.0  0.7195960283279419  0.9618649482727051  0.12369573116302486  1.0000
  O   O5        1.0  0.5481493473052979  0.2505899667739868  0.6840105652809143  1.0000
  O   O6        1.0  0.3281802535057068  0.21680298447608948  0.7561917304992676  1.0000
  O   O7        1.0  0.041667379438877106  0.7208569645881653  0.7007219791412354  1.0000
  O   O8        1.0  0.5581967830657959  0.47301188111305237  0.70466148853302  1.0000
  Re  Re1       1.0  0.30252617597579956  0.1864333152770996  0.7012745141983032  1.0000
  Re  Re2       1.0  0.7899730801582336  0.3757879436016083  0.9466023445129395  1.0000
  Re  Re3       1.0  0.8190430998802185  0.6423087120056152  0.48241883516311646  1.0000
  S   S1        1.0  0.026755109429359436  0.9115628004074097  0.7307624220848083  1.0000
  Si  Si1       1.0  0.03019270859658718  0.8629907369613647  0.9814136028289795  1.0000
  Sm  Sm1       1.0  0.4910542070865631  0.874323308467865  0.13808578252792356  1.0000
