data_image0
_chemical_formula_structural       DyO8SScSiSmSr
_chemical_formula_sum              "Dy1 O8 S1 Sc1 Si1 Sm1 Sr1"
_cell_length_a       5.344943606956613
_cell_length_b       8.195225201106954
_cell_length_c       7.777225971221924
_cell_angle_alpha    119.54459486608337
_cell_angle_beta     89.71142180020558
_cell_angle_gamma    91.51254799845667

_space_group_name_H-M_alt    "P 1"
_space_group_IT_number       1

loop_
  _space_group_symop_operation_xyz
  'x, y, z'

loop_
  _atom_site_type_symbol
  _atom_site_label
  _atom_site_symmetry_multiplicity
  _atom_site_fract_x
  _atom_site_fract_y
  _atom_site_fract_z
  _atom_site_occupancy
  Dy  Dy1       1.0  0.9137896299362184  0.038666009902954095  0.851515769958496  1.0000
  O   O1        1.0  0.4014784097671509  0.03755319863557815  0.11677829176187514  1.0000
  O   O2        1.0  0.4432197511196137  0.736488103866577  0.8528274297714232  1.0000
  O   O3        1.0  0.9147267341613768  0.3912487924098968  0.22654423117637632  1.0000
  O   O4        1.0  0.40178772807121277  0.9552000761032103  0.14257080852985388  1.0000
  O   O5        1.0  0.8963391780853273  0.6137452125549315  0.4207161962985992  1.0000
  O   O6        1.0  0.40463632345199585  0.4974105358123779  0.7555863261222838  1.0000
  O   O7        1.0  0.9231978654861451  0.9612035751342772  0.136703759431839  1.0000
  O   O8        1.0  0.4765904247760773  0.7250410318374633  0.655768632888794  1.0000
  S   S1        1.0  0.9102323651313783  0.7045921087265014  0.2878500521183014  1.0000
  Sc  Sc1       1.0  0.40643879771232605  0.3845000267028808  0.8672009110450744  1.0000
  Si  Si1       1.0  0.3830367922782898  0.6317530274391173  0.5632807612419128  1.0000
  Sm  Sm1       1.0  0.9044565558433534  0.7547527551651  0.13981790840625763  1.0000
  Sr  Sr1       1.0  0.9045869112014772  0.461906611919403  0.4441879987716674  1.0000
