data_image0
_chemical_formula_structural       FeO10Re2Sc
_chemical_formula_sum              "Fe1 O10 Re2 Sc1"
_cell_length_a       6.450015358844316
_cell_length_b       6.983385395200261
_cell_length_c       7.26047420501709
_cell_angle_alpha    115.15733342013966
_cell_angle_beta     112.84938641528144
_cell_angle_gamma    93.32681629824728

_space_group_name_H-M_alt    "P 1"
_space_group_IT_number       1

loop_
  _space_group_symop_operation_xyz
  'x, y, z'

loop_
  _atom_site_type_symbol
  _atom_site_label
  _atom_site_symmetry_multiplicity
  _atom_site_fract_x
  _atom_site_fract_y
  _atom_site_fract_z
  _atom_site_occupancy
  Fe  Fe1       1.0  0.5869059562683105  0.14070169627666473  0.0960884094238281  1.0000
  O   O1        1.0  0.38167139887809753  0.34510454535484314  0.4639143347740174  1.0000
  O   O2        1.0  0.8937757015228271  0.5767335891723633  0.15255501866340637  1.0000
  O   O3        1.0  0.4366105794906616  0.39300021529197693  0.4755105376243592  1.0000
  O   O4        1.0  0.8760473728179932  0.05074623227119446  0.9961366057395936  1.0000
  O   O5        1.0  0.45396915078163147  0.6576421856880188  0.8262809514999391  1.0000
  O   O6        1.0  0.9662126302719116  0.07296664267778397  0.5872378945350647  1.0000
  O   O7        1.0  0.019993966445326805  0.8733091354370117  0.08596075326204294  1.0000
  O   O8        1.0  0.5761169195175171  0.8714584708213806  0.14476434886455536  1.0000
  O   O9        1.0  0.9059333801269531  0.14325229823589325  0.30853053927421564  1.0000
  O   O10       1.0  0.9514626860618591  0.5629206299781799  0.5776564478874207  1.0000
  Re  Re1       1.0  0.0368906632065773  0.9086886048316956  0.08159084618091583  1.0000
  Re  Re2       1.0  0.5392794013023376  0.9019030332565308  0.37840735912323004  1.0000
  Sc  Sc1       1.0  0.6841593384742737  0.36641672253608704  0.8324518203735353  1.0000
