data_image0
_chemical_formula_structural       DyO10RbSr2
_chemical_formula_sum              "Dy1 O10 Rb1 Sr2"
_cell_length_a       4.965929796847057
_cell_length_b       5.064150841694214
_cell_length_c       5.876582145690918
_cell_angle_alpha    105.08054819675547
_cell_angle_beta     110.21247028847961
_cell_angle_gamma    84.32409994904665

_space_group_name_H-M_alt    "P 1"
_space_group_IT_number       1

loop_
  _space_group_symop_operation_xyz
  'x, y, z'

loop_
  _atom_site_type_symbol
  _atom_site_label
  _atom_site_symmetry_multiplicity
  _atom_site_fract_x
  _atom_site_fract_y
  _atom_site_fract_z
  _atom_site_occupancy
  Dy  Dy1       1.0  0.893687903881073  0.8793097734451294  0.6458420753479004  1.0000
  O   O1        1.0  0.13693134486675262  0.15501739084720612  0.12053035944700241  1.0000
  O   O2        1.0  0.6166654825210571  0.2837066054344177  0.5768951177597046  1.0000
  O   O3        1.0  0.9518805146217346  0.10937334597110748  0.06711040437221527  1.0000
  O   O4        1.0  0.5632809400558472  0.3985208570957184  0.17584368586540222  1.0000
  O   O5        1.0  0.6813526749610901  0.10704077035188675  0.28154951333999634  1.0000
  O   O6        1.0  0.5777477025985718  0.2552552819252014  0.6342646479606628  1.0000
  O   O7        1.0  0.09166105836629868  0.6046448945999146  0.8805694580078125  1.0000
  O   O8        1.0  0.16717840731143951  0.14997312426567078  0.2793597877025604  1.0000
  O   O9        1.0  0.03361538052558899  0.6544283628463745  0.7105695605278015  1.0000
  O   O10       1.0  0.5694975852966309  0.18194888532161713  0.48731502890586853  1.0000
  Rb  Rb1       1.0  0.6230206489562988  0.60096275806427  0.6389294266700745  1.0000
  Sr  Sr1       1.0  0.8837061524391174  0.3363814651966095  0.7755003571510315  1.0000
  Sr  Sr2       1.0  0.38412806391716003  0.8895747661590576  0.9769264459609985  1.0000
