data_image0
_chemical_formula_structural       O11ReSr2
_chemical_formula_sum              "O11 Re1 Sr2"
_cell_length_a       5.639986506070738
_cell_length_b       5.206208810147217
_cell_length_c       5.284337043762207
_cell_angle_alpha    125.64723734626071
_cell_angle_beta     123.60654376686867
_cell_angle_gamma    106.41231957466611

_space_group_name_H-M_alt    "P 1"
_space_group_IT_number       1

loop_
  _space_group_symop_operation_xyz
  'x, y, z'

loop_
  _atom_site_type_symbol
  _atom_site_label
  _atom_site_symmetry_multiplicity
  _atom_site_fract_x
  _atom_site_fract_y
  _atom_site_fract_z
  _atom_site_occupancy
  O   O1        1.0  0.4333666265010834  0.4986933767795562  0.3725463747978211  1.0000
  O   O2        1.0  0.3581978678703308  0.8794723153114319  0.7653050422668459  1.0000
  O   O3        1.0  0.6112921833992003  0.5522233843803405  0.9606296420097351  1.0000
  O   O4        1.0  0.7461749315261841  0.06032028794288635  0.25856408476829534  1.0000
  O   O5        1.0  0.01875451207160945  0.32326057553291315  0.5559685826301575  1.0000
  O   O6        1.0  0.9338245391845703  0.05704791471362114  0.47394970059394836  1.0000
  O   O7        1.0  0.9542966485023499  0.33748978376388555  0.40422612428665167  1.0000
  O   O8        1.0  0.6366099715232849  0.5890153050422668  0.0854213014245035  1.0000
  O   O9        1.0  0.21777500212192524  0.8653560876846312  0.7306297421455384  1.0000
  O   O10       1.0  0.010732434689998627  0.8658224940299988  0.7706257700920106  1.0000
  O   O11       1.0  0.39629414677619934  0.3390901982784271  0.22053647041320806  1.0000
  Re  Re1       1.0  0.41273707151412964  0.053742710500955596  0.47833147644996643  1.0000
  Sr  Sr1       1.0  0.003562865080311965  0.8237578868865968  0.8045072555541993  1.0000
  Sr  Sr2       1.0  0.7000873684883118  0.318037748336792  0.020801352337002796  1.0000
