data_image0
_chemical_formula_structural       DyO8Re3Sm2
_chemical_formula_sum              "Dy1 O8 Re3 Sm2"
_cell_length_a       5.152944701152737
_cell_length_b       6.9036879241645694
_cell_length_c       7.813819885253906
_cell_angle_alpha    96.95690570382382
_cell_angle_beta     91.9956279545807
_cell_angle_gamma    88.65596187921825

_space_group_name_H-M_alt    "P 1"
_space_group_IT_number       1

loop_
  _space_group_symop_operation_xyz
  'x, y, z'

loop_
  _atom_site_type_symbol
  _atom_site_label
  _atom_site_symmetry_multiplicity
  _atom_site_fract_x
  _atom_site_fract_y
  _atom_site_fract_z
  _atom_site_occupancy
  Dy  Dy1       1.0  0.6819896697998047  0.7125466465950012  0.6420742869377135  1.0000
  O   O1        1.0  0.8600826263427735  0.7139492630958557  0.02230332791805267  1.0000
  O   O2        1.0  0.25509846210479736  0.04302378371357918  0.3455267250537872  1.0000
  O   O3        1.0  0.7263475060462952  0.4670489728450775  0.17588527500629422  1.0000
  O   O4        1.0  0.35078364610671997  0.6850506663322449  0.6099685430526732  1.0000
  O   O5        1.0  0.3455083966255188  0.3842989504337311  0.667796492576599  1.0000
  O   O6        1.0  0.9025089144706727  0.5041019320487976  0.5389342308044434  1.0000
  O   O7        1.0  0.23369316756725314  0.8594421744346619  0.8267748355865477  1.0000
  O   O8        1.0  0.8373184204101564  0.19949373602867126  0.40100753307342524  1.0000
  Re  Re1       1.0  0.19904136657714844  0.7243989109992981  0.32499650120735163  1.0000
  Re  Re2       1.0  0.7201051115989685  0.728302001953125  0.338185429573059  1.0000
  Re  Re3       1.0  0.1871199607849121  0.25986209511756897  0.7905235290527343  1.0000
  Sm  Sm1       1.0  0.7281742691993713  0.877371609210968  0.8233318924903869  1.0000
  Sm  Sm2       1.0  0.1693195104598999  0.1739201843738556  0.1795638799667358  1.0000
