data_image0
_chemical_formula_structural       FeHo6
_chemical_formula_sum              "Fe1 Ho6"
_cell_length_a       5.094794998633431
_cell_length_b       4.896104186158746
_cell_length_c       6.173607349395752
_cell_angle_alpha    64.89634597909607
_cell_angle_beta     62.32785082997161
_cell_angle_gamma    60.37112897431745

_space_group_name_H-M_alt    "P 1"
_space_group_IT_number       1

loop_
  _space_group_symop_operation_xyz
  'x, y, z'

loop_
  _atom_site_type_symbol
  _atom_site_label
  _atom_site_symmetry_multiplicity
  _atom_site_fract_x
  _atom_site_fract_y
  _atom_site_fract_z
  _atom_site_occupancy
  Fe  Fe1       1.0  0.5395742654800415  0.2937093675136566  0.452921986579895  1.0000
  Ho  Ho1       1.0  0.5461009740829468  0.30868372321128845  0.4768180251121521  1.0000
  Ho  Ho2       1.0  0.5555005669593811  0.9450439810752869  0.6285820007324219  1.0000
  Ho  Ho3       1.0  0.5651182532310486  0.9480590224266052  0.2144537717103958  1.0000
  Ho  Ho4       1.0  0.03891749307513237  0.9093923568725586  0.11900971829891205  1.0000
  Ho  Ho5       1.0  0.040060315281152725  0.8090577125549316  0.9558972716331482  1.0000
  Ho  Ho6       1.0  0.5280044078826904  0.5605359673500061  0.09636516124010086  1.0000
