data_image0
_chemical_formula_structural       FeHo4STb
_chemical_formula_sum              "Fe1 Ho4 S1 Tb1"
_cell_length_a       4.677349229394127
_cell_length_b       6.195498122727606
_cell_length_c       6.563920021057129
_cell_angle_alpha    121.0115973231924
_cell_angle_beta     90.39261078456857
_cell_angle_gamma    90.52559546760352

_space_group_name_H-M_alt    "P 1"
_space_group_IT_number       1

loop_
  _space_group_symop_operation_xyz
  'x, y, z'

loop_
  _atom_site_type_symbol
  _atom_site_label
  _atom_site_symmetry_multiplicity
  _atom_site_fract_x
  _atom_site_fract_y
  _atom_site_fract_z
  _atom_site_occupancy
  Fe  Fe1       1.0  0.9984317421913147  0.6092994213104248  0.16104346513748172  1.0000
  Ho  Ho1       1.0  0.49891504645347595  0.12029348313808443  0.4050767421722412  1.0000
  Ho  Ho2       1.0  0.9959160685539248  0.8708534836769105  0.46675336360931396  1.0000
  Ho  Ho3       1.0  0.49630632996559143  0.6676681041717529  0.40936255455017095  1.0000
  Ho  Ho4       1.0  0.0010124375112354755  0.35748037695884705  0.7353588342666626  1.0000
  S   S1        1.0  0.5024811625480652  0.12189322710037233  0.6770508885383606  1.0000
  Tb  Tb1       1.0  0.5032458901405334  0.933437466621399  0.7975465655326843  1.0000
