data_image0
_chemical_formula_structural       I2K3PtSZn2
_chemical_formula_sum              "I2 K3 Pt1 S1 Zn2"
_cell_length_a       8.512452044609045
_cell_length_b       8.740492479412216
_cell_length_c       8.715682983398438
_cell_angle_alpha    107.57012400872762
_cell_angle_beta     107.82914592701712
_cell_angle_gamma    110.51196431626833

_space_group_name_H-M_alt    "P 1"
_space_group_IT_number       1

loop_
  _space_group_symop_operation_xyz
  'x, y, z'

loop_
  _atom_site_type_symbol
  _atom_site_label
  _atom_site_symmetry_multiplicity
  _atom_site_fract_x
  _atom_site_fract_y
  _atom_site_fract_z
  _atom_site_occupancy
  I   I1        1.0  0.7942677736282349  0.9938033223152161  0.3914561867713927  1.0000
  I   I2        1.0  0.797931969165802  0.6486412286758423  0.8693487048149109  1.0000
  K   K1        1.0  0.05774834379553795  0.14878492057323456  0.8926172852516174  1.0000
  K   K2        1.0  0.29043087363243103  0.001588992541655898  0.0015717821661382914  1.0000
  K   K3        1.0  0.2849871814250946  0.5371555089950562  0.6646072864532471  1.0000
  Pt  Pt1       1.0  0.5698830485343933  0.6500319838523865  0.974049985408783  1.0000
  S   S1        1.0  0.05981075391173363  0.6637940406799316  0.1782453209161758  1.0000
  Zn  Zn1       1.0  0.0605202279984951  0.6159847378730774  0.42336127161979675  1.0000
  Zn  Zn2       1.0  0.7997753620147705  0.04999472573399544  0.6682587265968323  1.0000
