data_image0
_chemical_formula_structural       Hg2I2KSTeTm2
_chemical_formula_sum              "Hg2 I2 K1 S1 Te1 Tm2"
_cell_length_a       8.06519403206353
_cell_length_b       8.285234285400335
_cell_length_c       8.927438735961914
_cell_angle_alpha    102.60862350609365
_cell_angle_beta     109.46177223097503
_cell_angle_gamma    113.61817537079163

_space_group_name_H-M_alt    "P 1"
_space_group_IT_number       1

loop_
  _space_group_symop_operation_xyz
  'x, y, z'

loop_
  _atom_site_type_symbol
  _atom_site_label
  _atom_site_symmetry_multiplicity
  _atom_site_fract_x
  _atom_site_fract_y
  _atom_site_fract_z
  _atom_site_occupancy
  Hg  Hg1       1.0  0.8288514614105225  0.8689525723457336  0.499075323343277  1.0000
  Hg  Hg2       1.0  0.5709307193756104  0.603580892086029  0.3719702959060669  1.0000
  I   I1        1.0  0.8357079029083252  0.5567519068717957  0.30945077538490295  1.0000
  I   I2        1.0  0.2306971400976181  0.41012686491012573  0.7714950442314148  1.0000
  K   K1        1.0  0.0810152143239975  0.19790560007095337  0.44690677523612976  1.0000
  S   S1        1.0  0.922947347164154  0.40505173802375793  0.6207818984985352  1.0000
  Te  Te1       1.0  0.10438188910484314  0.7942755818367004  0.9401934146881104  1.0000
  Tm  Tm1       1.0  0.5693194270133972  0.25889551639556885  0.06463068723678589  1.0000
  Tm  Tm2       1.0  0.5610257387161255  0.08236273378133774  0.8663448095321655  1.0000
