data_image0
_chemical_formula_structural       As4MgMn5Tb
_chemical_formula_sum              "As4 Mg1 Mn5 Tb1"
_cell_length_a       6.252503869373632
_cell_length_b       6.438042837089365
_cell_length_c       7.635715007781982
_cell_angle_alpha    71.90089835450553
_cell_angle_beta     66.09286993083984
_cell_angle_gamma    61.12255099542494

_space_group_name_H-M_alt    "P 1"
_space_group_IT_number       1

loop_
  _space_group_symop_operation_xyz
  'x, y, z'

loop_
  _atom_site_type_symbol
  _atom_site_label
  _atom_site_symmetry_multiplicity
  _atom_site_fract_x
  _atom_site_fract_y
  _atom_site_fract_z
  _atom_site_occupancy
  As  As1       1.0  0.9986866116523744  0.2488216757774353  0.7603512406349182  1.0000
  As  As2       1.0  0.7689610123634338  0.434758722782135  0.006798026617616328  1.0000
  As  As3       1.0  0.7394087314605713  0.3615171015262604  0.9090476036071778  1.0000
  As  As4       1.0  0.7075915336608887  0.7906168103218079  0.754190981388092  1.0000
  Mg  Mg1       1.0  0.8962099552154542  0.3070375919342041  0.6260238885879517  1.0000
  Mn  Mn1       1.0  0.5817338824272156  0.9820241928100586  0.6216563582420349  1.0000
  Mn  Mn2       1.0  0.3717247545719147  0.7992163300514221  0.4709028601646424  1.0000
  Mn  Mn3       1.0  0.4080253839492798  0.9354369640350342  0.4972095191478729  1.0000
  Mn  Mn4       1.0  0.09131556749343872  0.8239499926567078  0.5724050998687744  1.0000
  Mn  Mn5       1.0  0.3758622109889984  0.8192067742347717  0.9263002276420594  1.0000
  Tb  Tb1       1.0  0.6309075355529785  0.13979333639144897  0.024108706042170525  1.0000
