data_image0
_chemical_formula_structural       As5Mn6
_chemical_formula_sum              "As5 Mn6"
_cell_length_a       4.993259092792699
_cell_length_b       5.372536535828639
_cell_length_c       6.031696796417236
_cell_angle_alpha    52.05277661307442
_cell_angle_beta     51.29440201624296
_cell_angle_gamma    56.40458076768143

_space_group_name_H-M_alt    "P 1"
_space_group_IT_number       1

loop_
  _space_group_symop_operation_xyz
  'x, y, z'

loop_
  _atom_site_type_symbol
  _atom_site_label
  _atom_site_symmetry_multiplicity
  _atom_site_fract_x
  _atom_site_fract_y
  _atom_site_fract_z
  _atom_site_occupancy
  As  As1       1.0  0.8949517011642457  0.9981745481491089  0.9094841480255127  1.0000
  As  As2       1.0  0.1552172303199768  0.6993024945259094  0.6574145555496216  1.0000
  As  As3       1.0  0.3734186589717865  0.5996813774108887  0.26952189207077026  1.0000
  As  As4       1.0  0.021229926496744156  0.04009673371911049  0.7267946600914001  1.0000
  As  As5       1.0  0.6539258360862732  0.40732142329216003  0.010905006900429726  1.0000
  Mn  Mn1       1.0  0.450819879770279  0.4760887324810028  0.6191267371177673  1.0000
  Mn  Mn2       1.0  0.924426555633545  0.2505045533180237  0.16907185316085807  1.0000
  Mn  Mn3       1.0  0.3583860695362091  0.7107361555099487  0.7351028323173523  1.0000
  Mn  Mn4       1.0  0.8910552263259889  0.7140742540359497  0.914398193359375  1.0000
  Mn  Mn5       1.0  0.33231258392333984  0.7952542304992676  0.6024887561798096  1.0000
  Mn  Mn6       1.0  0.8399819135665895  0.4023855924606323  0.8763239979743958  1.0000
