data_image0
_chemical_formula_structural       As5Mn5O
_chemical_formula_sum              "As5 Mn5 O1"
_cell_length_a       4.877686298644716
_cell_length_b       5.008101503993951
_cell_length_c       3.2032082080841064
_cell_angle_alpha    48.21105241954551
_cell_angle_beta     53.27668628814822
_cell_angle_gamma    83.63792934843642

_space_group_name_H-M_alt    "P 1"
_space_group_IT_number       1

loop_
  _space_group_symop_operation_xyz
  'x, y, z'

loop_
  _atom_site_type_symbol
  _atom_site_label
  _atom_site_symmetry_multiplicity
  _atom_site_fract_x
  _atom_site_fract_y
  _atom_site_fract_z
  _atom_site_occupancy
  As  As1       1.0  0.03640573471784592  0.7869877815246582  0.11526762694120404  1.0000
  As  As2       1.0  0.6747294664382935  0.80608332157135  0.35235732793808  1.0000
  As  As3       1.0  0.12974882125854492  0.1680240035057068  0.15688753128051758  1.0000
  As  As4       1.0  0.6757093667984009  0.44687673449516296  0.2577279806137085  1.0000
  As  As5       1.0  0.6863825917243958  0.5564683675765991  0.9611352682113647  1.0000
  Mn  Mn1       1.0  0.6791714429855347  0.3087568879127503  0.6227120757102965  1.0000
  Mn  Mn2       1.0  0.17117111384868622  0.9889276027679443  0.0667489394545554  1.0000
  Mn  Mn3       1.0  0.635310173034668  0.7255002260208129  0.8188775181770327  1.0000
  Mn  Mn4       1.0  0.158285990357399  0.6806723475456238  0.021125290542841117  1.0000
  Mn  Mn5       1.0  0.19527353346347803  0.8164811730384826  0.669446110725403  1.0000
  O   O1        1.0  0.1716588139533997  0.4970276653766633  0.2827379703521728  1.0000
