data_image0
_chemical_formula_structural       As6IMnOP2
_chemical_formula_sum              "As6 I1 Mn1 O1 P2"
_cell_length_a       6.507380916103262
_cell_length_b       6.682709426644795
_cell_length_c       7.4582839012146
_cell_angle_alpha    63.02254886269796
_cell_angle_beta     62.31550726285219
_cell_angle_gamma    61.83850237647166

_space_group_name_H-M_alt    "P 1"
_space_group_IT_number       1

loop_
  _space_group_symop_operation_xyz
  'x, y, z'

loop_
  _atom_site_type_symbol
  _atom_site_label
  _atom_site_symmetry_multiplicity
  _atom_site_fract_x
  _atom_site_fract_y
  _atom_site_fract_z
  _atom_site_occupancy
  As  As1       1.0  0.25565236806869507  0.3360538184642792  0.3477889597415924  1.0000
  As  As2       1.0  0.5622255206108093  0.6641414165496826  0.7905200123786926  1.0000
  As  As3       1.0  0.5978670716285706  0.6575732231140137  0.7354527711868286  1.0000
  As  As4       1.0  0.2506310939788819  0.7970491051673888  0.7970979809761047  1.0000
  As  As5       1.0  0.7320840358734131  0.45608568191528315  0.8720993399620056  1.0000
  As  As6       1.0  0.048535872250795364  0.5635420083999634  0.5126073360443115  1.0000
  I   I1        1.0  0.5073229074478149  0.5483983159065247  0.07611387223005295  1.0000
  Mn  Mn1       1.0  0.016127925366163254  0.19029450416564941  0.020640404894948006  1.0000
  O   O1        1.0  0.30728811025619507  0.7067644596099854  0.6188099980354309  1.0000
  P   P1        1.0  0.0326530821621418  0.6079856157302856  0.2347983568906784  1.0000
  P   P2        1.0  0.5323814749717712  0.9657640457153319  0.46262261271476746  1.0000
