data_image0
_chemical_formula_structural       As6Mn4O
_chemical_formula_sum              "As6 Mn4 O1"
_cell_length_a       4.393231978005542
_cell_length_b       6.47242426268157
_cell_length_c       6.296341896057129
_cell_angle_alpha    115.66648997353192
_cell_angle_beta     91.56694299725147
_cell_angle_gamma    95.15169006348854

_space_group_name_H-M_alt    "P 1"
_space_group_IT_number       1

loop_
  _space_group_symop_operation_xyz
  'x, y, z'

loop_
  _atom_site_type_symbol
  _atom_site_label
  _atom_site_symmetry_multiplicity
  _atom_site_fract_x
  _atom_site_fract_y
  _atom_site_fract_z
  _atom_site_occupancy
  As  As1       1.0  0.4577828049659729  0.5802739262580872  0.5760354995727539  1.0000
  As  As2       1.0  0.979911744594574  0.5504631996154785  0.5440483093261719  1.0000
  As  As3       1.0  0.468674898147583  0.18997250497341156  0.6127547025680542  1.0000
  As  As4       1.0  0.4791405200958252  0.29072168469429016  0.2422404736280441  1.0000
  As  As5       1.0  0.9535076022148132  0.829636812210083  0.12351957708597182  1.0000
  As  As6       1.0  0.4766342341899872  0.8764224648475647  0.30476289987564076  1.0000
  Mn  Mn1       1.0  0.9791399240493774  0.15568940341472626  0.018965868279337883  1.0000
  Mn  Mn2       1.0  0.9745678901672363  0.08273118734359741  0.13920995593070984  1.0000
  Mn  Mn3       1.0  0.9766351580619812  0.31067922711372375  0.8378044366836546  1.0000
  Mn  Mn4       1.0  0.9657324552536011  0.8402020931243896  0.16942797601222992  1.0000
  O   O1        1.0  0.9518793225288391  0.8754370808601379  0.29367583990097046  1.0000
