data_image0
_chemical_formula_structural       As4IMn3PTeZn
_chemical_formula_sum              "As4 I1 Mn3 P1 Te1 Zn1"
_cell_length_a       6.352156263855317
_cell_length_b       6.357141450491832
_cell_length_c       6.563712120056152
_cell_angle_alpha    58.416629283611954
_cell_angle_beta     66.21062016175865
_cell_angle_gamma    64.26788449067892

_space_group_name_H-M_alt    "P 1"
_space_group_IT_number       1

loop_
  _space_group_symop_operation_xyz
  'x, y, z'

loop_
  _atom_site_type_symbol
  _atom_site_label
  _atom_site_symmetry_multiplicity
  _atom_site_fract_x
  _atom_site_fract_y
  _atom_site_fract_z
  _atom_site_occupancy
  As  As1       1.0  0.602354884147644  0.5711227059364319  0.18590937554836282  1.0000
  As  As2       1.0  0.9217709302902222  0.8370322585105895  0.683879554271698  1.0000
  As  As3       1.0  0.16015908122062683  0.6389132142066956  0.28684043884277355  1.0000
  As  As4       1.0  0.9166659712791443  0.31119611859321594  0.7271325588226318  1.0000
  I   I1        1.0  0.10525057464838028  0.23611317574977872  0.729659378528595  1.0000
  Mn  Mn1       1.0  0.9257615208625793  0.0814991295337677  0.8170741200447083  1.0000
  Mn  Mn2       1.0  0.5965469479560852  0.5489322543144226  0.3246104121208192  1.0000
  Mn  Mn3       1.0  0.6392916440963745  0.43938118219375605  0.26054543256759644  1.0000
  P   P1        1.0  0.10898993909358981  0.9476457238197326  0.9520435929298403  1.0000
  Te  Te1       1.0  0.6225578188896179  0.5488168597221375  0.8505492806434632  1.0000
  Zn  Zn1       1.0  0.14965789020061493  0.740600049495697  0.9835039973258973  1.0000
