data_image0
_chemical_formula_structural       AsAu2Ga2K5
_chemical_formula_sum              "As1 Au2 Ga2 K5"
_cell_length_a       6.794057527375499
_cell_length_b       6.78964431552389
_cell_length_c       7.245438575744629
_cell_angle_alpha    107.21303476306223
_cell_angle_beta     106.54434158845537
_cell_angle_gamma    112.38263968012706

_space_group_name_H-M_alt    "P 1"
_space_group_IT_number       1

loop_
  _space_group_symop_operation_xyz
  'x, y, z'

loop_
  _atom_site_type_symbol
  _atom_site_label
  _atom_site_symmetry_multiplicity
  _atom_site_fract_x
  _atom_site_fract_y
  _atom_site_fract_z
  _atom_site_occupancy
  As  As1       1.0  0.704680323600769  0.10345063358545303  0.9905243515968324  1.0000
  Au  Au1       1.0  0.18310382962226868  0.4278743863105774  0.7388207912445068  1.0000
  Au  Au2       1.0  0.6746154427528381  0.8288185596466064  0.7598320841789246  1.0000
  Ga  Ga1       1.0  0.3058227598667145  0.6065399050712585  0.4900298118591309  1.0000
  Ga  Ga2       1.0  0.3675350844860077  0.843360424041748  0.2401659190654755  1.0000
  K   K1        1.0  0.9577465653419495  0.2639389634132385  0.9861112236976625  1.0000
  K   K2        1.0  0.6849288940429688  0.9144513607025146  0.47831875085830694  1.0000
  K   K3        1.0  0.18008741736412048  0.916807234287262  0.7386888861656189  1.0000
  K   K4        1.0  0.6910582780838013  0.435833603143692  0.4919785857200623  1.0000
  K   K5        1.0  0.9563691020011902  0.3049296736717224  0.19894027709960938  1.0000
