data_image0
_chemical_formula_structural       Au2GaK6Ni
_chemical_formula_sum              "Au2 Ga1 K6 Ni1"
_cell_length_a       7.1155207321370195
_cell_length_b       7.3022771121528605
_cell_length_c       7.442306041717529
_cell_angle_alpha    106.16511883651135
_cell_angle_beta     104.79516285164308
_cell_angle_gamma    111.56830557198246

_space_group_name_H-M_alt    "P 1"
_space_group_IT_number       1

loop_
  _space_group_symop_operation_xyz
  'x, y, z'

loop_
  _atom_site_type_symbol
  _atom_site_label
  _atom_site_symmetry_multiplicity
  _atom_site_fract_x
  _atom_site_fract_y
  _atom_site_fract_z
  _atom_site_occupancy
  Au  Au1       1.0  0.7693625688552856  0.9712563753128052  0.19532793760299688  1.0000
  Au  Au2       1.0  0.461540937423706  0.7950881123542786  0.19742277264595032  1.0000
  Ga  Ga1       1.0  0.16470947861671448  0.2228085845708847  0.5282183289527893  1.0000
  K   K1        1.0  0.2469215542078018  0.7287831902503967  0.5031524300575256  1.0000
  K   K2        1.0  0.9771370887756347  0.21085543930530548  0.022785581648349762  1.0000
  K   K3        1.0  0.9655199646949767  0.730380117893219  0.5721191763877869  1.0000
  K   K4        1.0  0.4767798781394958  0.23396441340446472  0.08130092918872833  1.0000
  K   K5        1.0  0.47525751590728754  0.23710870742797852  0.6990547776222229  1.0000
  K   K6        1.0  0.7531460523605347  0.47749584913253784  0.1777154505252838  1.0000
  Ni  Ni1       1.0  0.45974102616310114  0.5516190528869629  0.6965072751045227  1.0000
