data_image0
_chemical_formula_structural       Au3Ga3K4
_chemical_formula_sum              "Au3 Ga3 K4"
_cell_length_a       6.633755391833313
_cell_length_b       6.894881551748961
_cell_length_c       7.067321300506592
_cell_angle_alpha    107.38917223042318
_cell_angle_beta     107.58325626973115
_cell_angle_gamma    112.67375261730436

_space_group_name_H-M_alt    "P 1"
_space_group_IT_number       1

loop_
  _space_group_symop_operation_xyz
  'x, y, z'

loop_
  _atom_site_type_symbol
  _atom_site_label
  _atom_site_symmetry_multiplicity
  _atom_site_fract_x
  _atom_site_fract_y
  _atom_site_fract_z
  _atom_site_occupancy
  Au  Au1       1.0  0.39942944049835205  0.797962486743927  0.6390189528465271  1.0000
  Au  Au2       1.0  0.18258649110794067  0.7152109742164612  0.09888655692338945  1.0000
  Au  Au3       1.0  0.3241766393184662  0.8394118547439575  0.33637627959251415  1.0000
  Ga  Ga1       1.0  0.9563594460487366  0.4741056263446808  0.6832523941993714  1.0000
  Ga  Ga2       1.0  0.6439821124076843  0.21484673023223877  0.8327805995941163  1.0000
  Ga  Ga3       1.0  0.9458886384963989  0.06737539917230606  0.5995354652404785  1.0000
  K   K1        1.0  0.9197453260421753  0.72630774974823  0.5989359021186829  1.0000
  K   K2        1.0  0.3294256627559662  0.31753209233283997  0.42134141921997076  1.0000
  K   K3        1.0  0.6702770590782166  0.7168633341789246  0.09733859449625017  1.0000
  K   K4        1.0  0.3391624093055725  0.06512932479381561  0.8659452199935914  1.0000
