data_image0
_chemical_formula_structural       AlAsAu3GaK4
_chemical_formula_sum              "Al1 As1 Au3 Ga1 K4"
_cell_length_a       7.446864138629154
_cell_length_b       7.533410601003461
_cell_length_c       7.749841690063477
_cell_angle_alpha    90.83076202839672
_cell_angle_beta     89.22625542282331
_cell_angle_gamma    115.68873002537583

_space_group_name_H-M_alt    "P 1"
_space_group_IT_number       1

loop_
  _space_group_symop_operation_xyz
  'x, y, z'

loop_
  _atom_site_type_symbol
  _atom_site_label
  _atom_site_symmetry_multiplicity
  _atom_site_fract_x
  _atom_site_fract_y
  _atom_site_fract_z
  _atom_site_occupancy
  Al  Al1       1.0  0.029863534495234493  0.16010317206382751  0.7091125845909119  1.0000
  As  As1       1.0  0.8885268568992616  0.4431353211402893  0.21890836954116819  1.0000
  Au  Au1       1.0  0.6733404994010925  0.19927890598773956  0.8738343715667723  1.0000
  Au  Au2       1.0  0.38389927148818975  0.8289408683776855  0.7235002517700195  1.0000
  Au  Au3       1.0  0.6150639057159424  0.9479150772094727  0.2190805524587631  1.0000
  Ga  Ga1       1.0  0.6221098303794861  0.8647002577781677  0.5649232864379883  1.0000
  K   K1        1.0  0.3724274039268494  0.19550807774066925  0.23773655295372007  1.0000
  K   K2        1.0  0.36840006709098816  0.7018495202064514  0.9416286945343016  1.0000
  K   K3        1.0  0.7875678539276124  0.17519840598106384  0.49724686145782465  1.0000
  K   K4        1.0  0.05837415531277657  0.21768943965435028  0.7340743541717529  1.0000
