data_image0
_chemical_formula_structural       AlAsAu2Ga2K3Zn
_chemical_formula_sum              "Al1 As1 Au2 Ga2 K3 Zn1"
_cell_length_a       6.902622470007207
_cell_length_b       7.040476570303648
_cell_length_c       6.884294033050537
_cell_angle_alpha    107.98568378663755
_cell_angle_beta     108.94289567486207
_cell_angle_gamma    111.60969226302556

_space_group_name_H-M_alt    "P 1"
_space_group_IT_number       1

loop_
  _space_group_symop_operation_xyz
  'x, y, z'

loop_
  _atom_site_type_symbol
  _atom_site_label
  _atom_site_symmetry_multiplicity
  _atom_site_fract_x
  _atom_site_fract_y
  _atom_site_fract_z
  _atom_site_occupancy
  Al  Al1       1.0  0.11801534891128541  0.17759402096271515  0.10617361962795258  1.0000
  As  As1       1.0  0.806415617465973  0.8392013907432556  0.10063058137893677  1.0000
  Au  Au1       1.0  0.8031241297721864  0.9854893088340759  0.26854515075683594  1.0000
  Au  Au2       1.0  0.22358693182468417  0.36480242013931274  0.4083267152309418  1.0000
  Ga  Ga1       1.0  0.5580938458442688  0.5907702445983887  0.8110542297363281  1.0000
  Ga  Ga2       1.0  0.08995723724365234  0.6641235947608948  0.6088525056838989  1.0000
  K   K1        1.0  0.8199331164360047  0.3349526524543762  0.008445966988801956  1.0000
  K   K2        1.0  0.5618008971214294  0.636402428150177  0.6007238030433655  1.0000
  K   K3        1.0  0.30476027727127075  0.8415113687515259  0.10334054380655289  1.0000
  Zn  Zn1       1.0  0.5811360478401184  0.07648599147796631  0.10790896415710449  1.0000
