data_image0
_chemical_formula_structural       AsAu3GaK5
_chemical_formula_sum              "As1 Au3 Ga1 K5"
_cell_length_a       7.872206665353767
_cell_length_b       8.20023203554829
_cell_length_c       8.385948181152344
_cell_angle_alpha    90.85499192923304
_cell_angle_beta     90.90753641056823
_cell_angle_gamma    117.3423741262508

_space_group_name_H-M_alt    "P 1"
_space_group_IT_number       1

loop_
  _space_group_symop_operation_xyz
  'x, y, z'

loop_
  _atom_site_type_symbol
  _atom_site_label
  _atom_site_symmetry_multiplicity
  _atom_site_fract_x
  _atom_site_fract_y
  _atom_site_fract_z
  _atom_site_occupancy
  As  As1       1.0  0.5637443661689758  0.090364471077919  0.9326072931289673  1.0000
  Au  Au1       1.0  0.9923847317695618  0.15170861780643463  0.29334068298339844  1.0000
  Au  Au2       1.0  0.7219607830047607  0.2345113605260849  0.26308542490005493  1.0000
  Au  Au3       1.0  0.5594964027404785  0.6154916882514954  0.22853752970695496  1.0000
  Ga  Ga1       1.0  0.837274968624115  0.7437742352485657  0.7331510782241821  1.0000
  K   K1        1.0  0.6883093118667603  0.18421651422977448  0.9303781390190125  1.0000
  K   K2        1.0  0.976134717464447  0.22859854996204376  0.431309312582016  1.0000
  K   K3        1.0  0.4858269989490509  0.9518142342567444  0.4363562762737274  1.0000
  K   K4        1.0  0.45178720355033875  0.8674723505973816  0.9352831244468689  1.0000
  K   K5        1.0  0.3660274147987366  0.23306314647197723  0.6388490200042725  1.0000
