data_image0
_chemical_formula_structural       IOSbTb6
_chemical_formula_sum              "I1 O1 Sb1 Tb6"
_cell_length_a       4.783043640455233
_cell_length_b       7.709032058194974
_cell_length_c       9.719231605529785
_cell_angle_alpha    118.95133249309521
_cell_angle_beta     90.12145501125815
_cell_angle_gamma    94.04608714922047

_space_group_name_H-M_alt    "P 1"
_space_group_IT_number       1

loop_
  _space_group_symop_operation_xyz
  'x, y, z'

loop_
  _atom_site_type_symbol
  _atom_site_label
  _atom_site_symmetry_multiplicity
  _atom_site_fract_x
  _atom_site_fract_y
  _atom_site_fract_z
  _atom_site_occupancy
  I   I1        1.0  0.09123305976390839  0.7382020354270935  0.30780655145645136  1.0000
  O   O1        1.0  0.5863887071609497  0.876734733581543  0.6400099992752075  1.0000
  Sb  Sb1       1.0  0.09477857500314713  0.7140618562698364  0.15444783866405487  1.0000
  Tb  Tb1       1.0  0.5981852412223816  0.9938589334487915  0.7648841738700867  1.0000
  Tb  Tb2       1.0  0.5951747298240662  0.18566350638866425  0.027001166716218005  1.0000
  Tb  Tb3       1.0  0.5968137383460999  0.9288784861564636  0.9396622180938721  1.0000
  Tb  Tb4       1.0  0.09489689767360687  0.931636393070221  0.4011037051677704  1.0000
  Tb  Tb5       1.0  0.600670337677002  0.1255258321762085  0.34115540981292725  1.0000
  Tb  Tb6       1.0  0.08991402387619019  0.25275370478630066  0.8727861046791077  1.0000
