data_image0
_chemical_formula_structural       I2OPbTb5
_chemical_formula_sum              "I2 O1 Pb1 Tb5"
_cell_length_a       4.490066844938594
_cell_length_b       4.721412840798714
_cell_length_c       9.834640502929688
_cell_angle_alpha    103.28097244664346
_cell_angle_beta     90.44551634080285
_cell_angle_gamma    96.06771293048195

_space_group_name_H-M_alt    "P 1"
_space_group_IT_number       1

loop_
  _space_group_symop_operation_xyz
  'x, y, z'

loop_
  _atom_site_type_symbol
  _atom_site_label
  _atom_site_symmetry_multiplicity
  _atom_site_fract_x
  _atom_site_fract_y
  _atom_site_fract_z
  _atom_site_occupancy
  I   I1        1.0  0.14118298888206482  0.8955037593841553  0.32144153118133545  1.0000
  I   I2        1.0  0.6383307576179504  0.3401755392551422  0.5876728892326355  1.0000
  O   O1        1.0  0.6495376825332642  0.08194336295127869  0.35353606939315796  1.0000
  Pb  Pb1       1.0  0.6325441002845764  0.6230912208557129  0.925253689289093  1.0000
  Tb  Tb1       1.0  0.65571528673172  0.22532008588314056  0.533225417137146  1.0000
  Tb  Tb2       1.0  0.13814765214920044  0.8908743858337402  0.6721274256706238  1.0000
  Tb  Tb3       1.0  0.6368483304977417  0.11803145706653595  0.7858617305755615  1.0000
  Tb  Tb4       1.0  0.13228248059749603  0.20498137176036835  0.9970152378082275  1.0000
  Tb  Tb5       1.0  0.13857796788215637  0.8545373678207397  0.11244770139455795  1.0000
