data_image0
_chemical_formula_structural       CIO2Tb5
_chemical_formula_sum              "C1 I1 O2 Tb5"
_cell_length_a       4.745954681427339
_cell_length_b       5.294388506444101
_cell_length_c       12.082772254943848
_cell_angle_alpha    99.17375438257955
_cell_angle_beta     92.073895209337
_cell_angle_gamma    92.6392915532714

_space_group_name_H-M_alt    "P 1"
_space_group_IT_number       1

loop_
  _space_group_symop_operation_xyz
  'x, y, z'

loop_
  _atom_site_type_symbol
  _atom_site_label
  _atom_site_symmetry_multiplicity
  _atom_site_fract_x
  _atom_site_fract_y
  _atom_site_fract_z
  _atom_site_occupancy
  C   C1        1.0  0.3783096969127655  0.031423211097717285  0.9155821204185486  1.0000
  I   I1        1.0  0.889671266078949  0.44460850954055786  0.7708819508552551  1.0000
  O   O1        1.0  0.6274969577789307  0.07554694265127182  0.1690312623977661  1.0000
  O   O2        1.0  0.3702464997768402  0.5629966259002686  0.38516828417778015  1.0000
  Tb  Tb1       1.0  0.8916501402854919  0.7367772459983826  0.6659391522407532  1.0000
  Tb  Tb2       1.0  0.38207995891571045  0.5969589948654175  0.6549612879753113  1.0000
  Tb  Tb3       1.0  0.902488648891449  0.5970698595046997  0.27538540959358215  1.0000
  Tb  Tb4       1.0  0.8808489441871643  0.8504874110221863  0.49638852477073675  1.0000
  Tb  Tb5       1.0  0.37547793984413147  0.870962381362915  0.523431122303009  1.0000
