data_image0
_chemical_formula_structural       OTb8
_chemical_formula_sum              "O1 Tb8"
_cell_length_a       4.49188490789421
_cell_length_b       6.676976303048918
_cell_length_c       6.473881244659424
_cell_angle_alpha    127.13816924606918
_cell_angle_beta     98.34695741625993
_cell_angle_gamma    89.58693529797463

_space_group_name_H-M_alt    "P 1"
_space_group_IT_number       1

loop_
  _space_group_symop_operation_xyz
  'x, y, z'

loop_
  _atom_site_type_symbol
  _atom_site_label
  _atom_site_symmetry_multiplicity
  _atom_site_fract_x
  _atom_site_fract_y
  _atom_site_fract_z
  _atom_site_occupancy
  O   O1        1.0  0.11912520974874496  0.8251876831054688  0.5515876412391661  1.0000
  Tb  Tb1       1.0  0.5945898294448853  0.894740879535675  0.0722225904464721  1.0000
  Tb  Tb2       1.0  0.6182718276977539  0.2971363365650177  0.17374685406684875  1.0000
  Tb  Tb3       1.0  0.6130392551422119  0.3581078350543976  0.39426958560943604  1.0000
  Tb  Tb4       1.0  0.6811583042144775  0.6702471375465393  0.39287111163139343  1.0000
  Tb  Tb5       1.0  0.10308733582496643  0.40448805689811707  0.4952642023563385  1.0000
  Tb  Tb6       1.0  0.6103852987289429  0.35755690932273865  0.5471054911613464  1.0000
  Tb  Tb7       1.0  0.08464416116476059  0.3025737702846527  0.37119102478027344  1.0000
  Tb  Tb8       1.0  0.12410351634025574  0.8361069560050964  0.0032245821785181245  1.0000
