data_image0
_chemical_formula_structural       CsH4Nd2O5S4
_chemical_formula_sum              "Cs1 H4 Nd2 O5 S4"
_cell_length_a       6.206346496079646
_cell_length_b       6.999586114376568
_cell_length_c       7.577653408050537
_cell_angle_alpha    113.1008595509212
_cell_angle_beta     112.30505390337053
_cell_angle_gamma    89.70744390371064

_space_group_name_H-M_alt    "P 1"
_space_group_IT_number       1

loop_
  _space_group_symop_operation_xyz
  'x, y, z'

loop_
  _atom_site_type_symbol
  _atom_site_label
  _atom_site_symmetry_multiplicity
  _atom_site_fract_x
  _atom_site_fract_y
  _atom_site_fract_z
  _atom_site_occupancy
  Cs  Cs1       1.0  0.021449457854032516  0.16078802943229675  0.4963449835777282  1.0000
  H   H1        1.0  0.6182639002799988  0.28139883279800415  0.43868818879127497  1.0000
  H   H2        1.0  0.8619601130485535  0.32207411527633667  0.9113767743110656  1.0000
  H   H3        1.0  0.6176628470420837  0.8197059035301208  0.10499700903892516  1.0000
  H   H4        1.0  0.49285823106765747  0.33424651622772217  0.8575068116188048  1.0000
  Nd  Nd1       1.0  0.11201533675193787  0.23136423528194427  0.08019288629293442  1.0000
  Nd  Nd2       1.0  0.15768833458423615  0.6539881825447083  0.8558024168014525  1.0000
  O   O1        1.0  0.7853721976280212  0.8800945281982422  0.23977862298488614  1.0000
  O   O2        1.0  0.5348374247550964  0.2465706467628479  0.36525979638099665  1.0000
  O   O3        1.0  0.6830450892448425  0.22314341366291046  0.015374932438135145  1.0000
  O   O4        1.0  0.3016666769981384  0.5415879487991333  0.09982874244451521  1.0000
  O   O5        1.0  0.8147760033607483  0.5408677458763123  0.9798967242240905  1.0000
  S   S1        1.0  0.3697952330112457  0.8237903714179993  0.46036303043365473  1.0000
  S   S2        1.0  0.42088982462882996  0.8633801341056824  0.776169717311859  1.0000
  S   S3        1.0  0.5081025958061218  0.5356500744819641  0.01204918138682842  1.0000
  S   S4        1.0  0.616629958152771  0.8230162262916565  0.25063785910606384  1.0000
