data_image0
_chemical_formula_structural       CsH3MnNNdO4S4Sb
_chemical_formula_sum              "Cs1 H3 Mn1 N1 Nd1 O4 S4 Sb1"
_cell_length_a       6.0444093486367825
_cell_length_b       6.846854432867299
_cell_length_c       6.828516006469727
_cell_angle_alpha    65.31556119966805
_cell_angle_beta     65.01363529015018
_cell_angle_gamma    64.31835300372511

_space_group_name_H-M_alt    "P 1"
_space_group_IT_number       1

loop_
  _space_group_symop_operation_xyz
  'x, y, z'

loop_
  _atom_site_type_symbol
  _atom_site_label
  _atom_site_symmetry_multiplicity
  _atom_site_fract_x
  _atom_site_fract_y
  _atom_site_fract_z
  _atom_site_occupancy
  Cs  Cs1       1.0  0.7481409311294556  0.8103792071342468  0.9169471263885498  1.0000
  H   H1        1.0  0.9512155652046205  0.06400506943464279  0.4199093282222748  1.0000
  H   H2        1.0  0.3939979374408722  0.34096449613571167  0.7443563938140869  1.0000
  H   H3        1.0  0.49403262138366705  0.7857103943824768  0.31093114614486694  1.0000
  Mn  Mn1       1.0  0.5007718205451965  0.8915928602218628  0.46235090494155884  1.0000
  N   N1        1.0  0.5339189171791077  0.7474939227104187  0.6165580749511719  1.0000
  Nd  Nd1       1.0  0.040998663753271145  0.9223220944404601  0.5799921751022339  1.0000
  O   O1        1.0  0.6625043153762817  0.7371845841407776  0.8478706479072571  1.0000
  O   O2        1.0  0.6599304676055908  0.6714054346084595  0.5012430548667908  1.0000
  O   O3        1.0  0.3990507125854492  0.5708616971969604  0.06117677688598633  1.0000
  O   O4        1.0  0.05148698389530182  0.5716224312782288  0.39847126603126526  1.0000
  S   S1        1.0  0.6571773886680603  0.1350119709968567  0.8432734608650208  1.0000
  S   S2        1.0  0.2554769814014435  0.18006281554698944  0.968931257724762  1.0000
  S   S3        1.0  0.7552545666694641  0.6868788599967957  0.22844244539737701  1.0000
  S   S4        1.0  0.31237807869911194  0.8382266759872437  0.06689880043268204  1.0000
  Sb  Sb1       1.0  0.6501312851905823  0.36132752895355225  0.7965620160102844  1.0000
