data_image0
_chemical_formula_structural       BH3Nd2O7S2U
_chemical_formula_sum              "B1 H3 Nd2 O7 S2 U1"
_cell_length_a       5.464631839027687
_cell_length_b       6.192754165650751
_cell_length_c       7.072819232940674
_cell_angle_alpha    119.21742758374877
_cell_angle_beta     111.50199886313311
_cell_angle_gamma    84.67890793594677

_space_group_name_H-M_alt    "P 1"
_space_group_IT_number       1

loop_
  _space_group_symop_operation_xyz
  'x, y, z'

loop_
  _atom_site_type_symbol
  _atom_site_label
  _atom_site_symmetry_multiplicity
  _atom_site_fract_x
  _atom_site_fract_y
  _atom_site_fract_z
  _atom_site_occupancy
  B   B1        1.0  0.6668267250061035  0.08428578078746796  0.14305081963539124  1.0000
  H   H1        1.0  0.6046388149261475  0.75649094581604  0.17153479158878332  1.0000
  H   H2        1.0  0.04269157350063324  0.7899223566055298  0.25071990489959717  1.0000
  H   H3        1.0  0.9158941507339478  0.49785494804382324  0.5040343403816223  1.0000
  Nd  Nd1       1.0  0.3420329988002777  0.2062033861875534  0.6352570056915283  1.0000
  Nd  Nd2       1.0  0.3834388852119446  0.7517119646072388  0.9629632234573364  1.0000
  O   O1        1.0  0.8736039400100708  0.2917467951774597  0.954184353351593  1.0000
  O   O2        1.0  0.8226615190505981  0.4968920648097992  0.6652353405952454  1.0000
  O   O3        1.0  0.7809417843818665  0.7132840752601624  0.952370285987854  1.0000
  O   O4        1.0  0.7052645087242126  0.5101661682128906  0.4473051130771637  1.0000
  O   O5        1.0  0.8453598618507385  0.8395064473152161  0.20120447874069214  1.0000
  O   O6        1.0  0.10302336513996124  0.22743631899356842  0.6780581474304199  1.0000
  O   O7        1.0  0.5441538095474243  0.555474579334259  0.26978790760040283  1.0000
  S   S1        1.0  0.4158611595630646  0.5879335999488831  0.9482840299606323  1.0000
  S   S2        1.0  0.2571912407875061  0.5786318182945251  0.11430215090513235  1.0000
  U   U1        1.0  0.28056269884109497  0.03405492752790451  0.36091548204421997  1.0000
