data_image0
_chemical_formula_structural       H2NO7S5Sb
_chemical_formula_sum              "H2 N1 O7 S5 Sb1"
_cell_length_a       5.566163625168563
_cell_length_b       6.753062689025484
_cell_length_c       7.795912265777588
_cell_angle_alpha    111.33296312983563
_cell_angle_beta     106.94647518312317
_cell_angle_gamma    90.36955993902933

_space_group_name_H-M_alt    "P 1"
_space_group_IT_number       1

loop_
  _space_group_symop_operation_xyz
  'x, y, z'

loop_
  _atom_site_type_symbol
  _atom_site_label
  _atom_site_symmetry_multiplicity
  _atom_site_fract_x
  _atom_site_fract_y
  _atom_site_fract_z
  _atom_site_occupancy
  H   H1        1.0  0.18251082301139832  0.009935066103935242  0.2906184196472168  1.0000
  H   H2        1.0  0.36370590329170227  0.5316054821014404  0.649464249610901  1.0000
  N   N1        1.0  0.4370083510875702  0.9507273435592651  0.3822732269763947  1.0000
  O   O1        1.0  0.07417619973421097  0.28600773215293884  0.38802665472030645  1.0000
  O   O2        1.0  0.6506105065345764  0.13994674384593964  0.7793835401535035  1.0000
  O   O3        1.0  0.6670694947242737  0.17319566011428833  0.06058072671294213  1.0000
  O   O4        1.0  0.7982914447784424  0.34079888463020325  0.672683358192444  1.0000
  O   O5        1.0  0.3430027365684509  0.6175333261489868  0.2151913791894913  1.0000
  O   O6        1.0  0.41441214084625244  0.6948477029800415  0.031910669058561325  1.0000
  O   O7        1.0  0.19899515807628632  0.3543010652065277  0.9936017394065858  1.0000
  S   S1        1.0  0.5541349053382874  0.04231684282422066  0.6355082392692567  1.0000
  S   S2        1.0  0.5093003511428833  0.6321611404418945  0.9362735748291017  1.0000
  S   S3        1.0  0.506281852722168  0.6575779318809509  0.4838018119335175  1.0000
  S   S4        1.0  0.77611243724823  0.45758679509162903  0.41982406377792364  1.0000
  S   S5        1.0  0.22749558091163635  0.8170756101608276  0.6381058096885682  1.0000
  Sb  Sb1       1.0  0.8988160490989685  0.18738122284412384  0.25276461243629456  1.0000
