data_image0
_chemical_formula_structural       H3MnO7S3SbSc
_chemical_formula_sum              "H3 Mn1 O7 S3 Sb1 Sc1"
_cell_length_a       5.919681218766725
_cell_length_b       6.767518163126918
_cell_length_c       6.621876239776611
_cell_angle_alpha    67.5146247837209
_cell_angle_beta     65.61651562280962
_cell_angle_gamma    64.96304152757263

_space_group_name_H-M_alt    "P 1"
_space_group_IT_number       1

loop_
  _space_group_symop_operation_xyz
  'x, y, z'

loop_
  _atom_site_type_symbol
  _atom_site_label
  _atom_site_symmetry_multiplicity
  _atom_site_fract_x
  _atom_site_fract_y
  _atom_site_fract_z
  _atom_site_occupancy
  H   H1        1.0  0.8482505083084106  0.3833220899105072  0.9052141904830933  1.0000
  H   H2        1.0  0.3989296853542328  0.7693846225738525  0.08890412747859955  1.0000
  H   H3        1.0  0.07455646246671677  0.30057868361473083  0.4059421420097351  1.0000
  Mn  Mn1       1.0  0.5745023488998413  0.8426020741462708  0.9165562391281128  1.0000
  O   O1        1.0  0.2583504021167755  0.12229426205158234  0.8893349170684814  1.0000
  O   O2        1.0  0.721545934677124  0.38300374150276184  0.17743211984634405  1.0000
  O   O3        1.0  0.24297632277011869  0.9698502421379089  0.1580839902162552  1.0000
  O   O4        1.0  0.2285349071025848  0.8538381457328796  0.6371648907661438  1.0000
  O   O5        1.0  0.5894417762756348  0.5947578549385071  0.4111922085285187  1.0000
  O   O6        1.0  0.6099181175231934  0.12365177273750305  0.7817502021789551  1.0000
  O   O7        1.0  0.21117852628231049  0.9413357377052307  0.6183347105979919  1.0000
  S   S1        1.0  0.4994347691535949  0.3375803232192993  0.368257075548172  1.0000
  S   S2        1.0  0.9651551842689513  0.05339406803250313  0.38574320077896124  1.0000
  S   S3        1.0  0.008019908331334591  0.968420684337616  0.8005707263946533  1.0000
  Sb  Sb1       1.0  0.818286120891571  0.8354296684265137  0.14600545167922974  1.0000
  Sc  Sc1       1.0  0.08882225304841995  0.31442391872406006  0.5762455463409424  1.0000
