data_image0
_chemical_formula_structural       H3LaNdO6S4Sb
_chemical_formula_sum              "H3 La1 Nd1 O6 S4 Sb1"
_cell_length_a       5.933345734301935
_cell_length_b       7.539876424966621
_cell_length_c       8.110013008117676
_cell_angle_alpha    114.92041669186084
_cell_angle_beta     111.94289857967003
_cell_angle_gamma    90.09543704443844

_space_group_name_H-M_alt    "P 1"
_space_group_IT_number       1

loop_
  _space_group_symop_operation_xyz
  'x, y, z'

loop_
  _atom_site_type_symbol
  _atom_site_label
  _atom_site_symmetry_multiplicity
  _atom_site_fract_x
  _atom_site_fract_y
  _atom_site_fract_z
  _atom_site_occupancy
  H   H1        1.0  0.582358181476593  0.2777058184146881  0.9600376486778259  1.0000
  H   H2        1.0  0.449826180934906  0.3807689249515533  0.643175482749939  1.0000
  H   H3        1.0  0.1531239002943039  0.6734561920166016  0.45968189835548395  1.0000
  La  La1       1.0  0.09881748259067534  0.4957598745822906  0.904233992099762  1.0000
  Nd  Nd1       1.0  0.09455993771553035  0.7878646850585936  0.6613686084747314  1.0000
  O   O1        1.0  0.6360519528388977  0.6077867150306702  0.8129604458808899  1.0000
  O   O2        1.0  0.44264155626296997  0.36479306221008295  0.8433384895324707  1.0000
  O   O3        1.0  0.08204238116741179  0.24937757849693296  0.3075970411300659  1.0000
  O   O4        1.0  0.630377471446991  0.6443823575973511  0.45137208700180054  1.0000
  O   O5        1.0  0.9799550771713257  0.38994604349136347  0.14093412458896637  1.0000
  O   O6        1.0  0.5122146010398865  0.06519865989685059  0.09918732941150668  1.0000
  S   S1        1.0  0.8771869540214539  0.3821683824062347  0.12751586735248566  1.0000
  S   S2        1.0  0.6447704434394836  0.06530387699604034  0.8449623584747314  1.0000
  S   S3        1.0  0.6785441637039185  0.8092896938323973  0.4910157024860382  1.0000
  S   S4        1.0  0.3971065878868103  0.9818156361579894  0.19073529541492457  1.0000
  Sb  Sb1       1.0  0.5750787258148193  0.5682247281074524  0.047176893800497055  1.0000
