data_image0
_chemical_formula_structural       Al4IMg2PtZn
_chemical_formula_sum              "Al4 I1 Mg2 Pt1 Zn1"
_cell_length_a       6.550259695845942
_cell_length_b       6.480178206362262
_cell_length_c       7.0286102294921875
_cell_angle_alpha    77.50560417729248
_cell_angle_beta     72.78077141151601
_cell_angle_gamma    69.10400080130022

_space_group_name_H-M_alt    "P 1"
_space_group_IT_number       1

loop_
  _space_group_symop_operation_xyz
  'x, y, z'

loop_
  _atom_site_type_symbol
  _atom_site_label
  _atom_site_symmetry_multiplicity
  _atom_site_fract_x
  _atom_site_fract_y
  _atom_site_fract_z
  _atom_site_occupancy
  Al  Al1       1.0  0.06263579428195953  0.9079328775405884  0.5918020009994507  1.0000
  Al  Al2       1.0  0.5654168725013733  0.4639451801776886  0.6465054750442505  1.0000
  Al  Al3       1.0  0.5236532688140869  0.3364279568195343  0.3474283814430237  1.0000
  Al  Al4       1.0  0.06782699376344681  0.4484773874282837  0.8656601309776306  1.0000
  I   I1        1.0  0.5612834095954895  0.4018354117870331  0.42634281516075134  1.0000
  Mg  Mg1       1.0  0.9400905370712281  0.27482151985168457  0.9781785607337952  1.0000
  Mg  Mg2       1.0  0.05120760574936867  0.017017068341374397  0.2719838321208954  1.0000
  Pt  Pt1       1.0  0.5646228790283203  0.14196401834487915  0.22200374305248258  1.0000
  Zn  Zn1       1.0  0.02888092212378979  0.8159561157226562  0.29705381393432617  1.0000
