data_image0
_chemical_formula_structural       Al3AsClGaILiLu
_chemical_formula_sum              "Al3 As1 Cl1 Ga1 I1 Li1 Lu1"
_cell_length_a       5.604024563256939
_cell_length_b       5.460295530301464
_cell_length_c       6.454572677612305
_cell_angle_alpha    65.70818575318263
_cell_angle_beta     68.04256687586815
_cell_angle_gamma    59.2303659274376

_space_group_name_H-M_alt    "P 1"
_space_group_IT_number       1

loop_
  _space_group_symop_operation_xyz
  'x, y, z'

loop_
  _atom_site_type_symbol
  _atom_site_label
  _atom_site_symmetry_multiplicity
  _atom_site_fract_x
  _atom_site_fract_y
  _atom_site_fract_z
  _atom_site_occupancy
  Al  Al1       1.0  0.879420578479767  0.03796088322997093  0.5204943418502808  1.0000
  Al  Al2       1.0  0.43097287416458135  0.17327843606472015  0.9506626129150392  1.0000
  Al  Al3       1.0  0.8951758146286012  0.05590289086103439  0.13839475810527796  1.0000
  As  As1       1.0  0.8577231764793397  0.041649654507637024  0.1943455785512924  1.0000
  Cl  Cl1       1.0  0.42911615967750555  0.9726788997650146  0.6897563338279724  1.0000
  Ga  Ga1       1.0  0.9382745623588563  0.0215544905513525  0.8322217464447023  1.0000
  I   I1        1.0  0.38498878479003906  0.2500036656856537  0.5752683877944946  1.0000
  Li  Li1       1.0  0.6810106039047241  0.9074316620826721  0.6022560000419617  1.0000
  Lu  Lu1       1.0  0.2222043871879578  0.4536851644515991  0.6751826405525208  1.0000
