data_image0
_chemical_formula_structural       Al3Mg4PbZr
_chemical_formula_sum              "Al3 Mg4 Pb1 Zr1"
_cell_length_a       6.194737253587355
_cell_length_b       6.02302051701996
_cell_length_c       6.468940734863281
_cell_angle_alpha    69.30572542772873
_cell_angle_beta     69.88307400446367
_cell_angle_gamma    72.11706595458402

_space_group_name_H-M_alt    "P 1"
_space_group_IT_number       1

loop_
  _space_group_symop_operation_xyz
  'x, y, z'

loop_
  _atom_site_type_symbol
  _atom_site_label
  _atom_site_symmetry_multiplicity
  _atom_site_fract_x
  _atom_site_fract_y
  _atom_site_fract_z
  _atom_site_occupancy
  Al  Al1       1.0  0.05079495161771774  0.757347583770752  0.6452671885490417  1.0000
  Al  Al2       1.0  0.9794302582740784  0.032747767865657806  0.881447732448578  1.0000
  Al  Al3       1.0  0.017326559871435165  0.13130024075508118  0.1070869341492653  1.0000
  Mg  Mg1       1.0  0.024625251069664955  0.06996646523475647  0.27300649881362915  1.0000
  Mg  Mg2       1.0  0.5440160036087036  0.8823450803756714  0.6189661026000977  1.0000
  Mg  Mg3       1.0  0.04337770491838455  0.22325056791305542  0.2775656282901764  1.0000
  Mg  Mg4       1.0  0.2618909180164337  0.8471516370773315  0.17636436223983767  1.0000
  Pb  Pb1       1.0  0.5411737561225891  0.7839226126670837  0.5862632393836975  1.0000
  Zr  Zr1       1.0  0.5139704942703247  0.40728068351745605  0.44413810968399053  1.0000
