data_image0
_chemical_formula_structural       Al4AsMg4
_chemical_formula_sum              "Al4 As1 Mg4"
_cell_length_a       6.0611600283662295
_cell_length_b       6.0458219549603385
_cell_length_c       6.2134833335876465
_cell_angle_alpha    61.62397507643405
_cell_angle_beta     61.99294029017292
_cell_angle_gamma    62.896293903268756

_space_group_name_H-M_alt    "P 1"
_space_group_IT_number       1

loop_
  _space_group_symop_operation_xyz
  'x, y, z'

loop_
  _atom_site_type_symbol
  _atom_site_label
  _atom_site_symmetry_multiplicity
  _atom_site_fract_x
  _atom_site_fract_y
  _atom_site_fract_z
  _atom_site_occupancy
  Al  Al1       1.0  0.08504296094179153  0.31221088767051697  0.25738444924354553  1.0000
  Al  Al2       1.0  0.06906197220087051  0.05327574908733368  0.8266397118568419  1.0000
  Al  Al3       1.0  0.5739205479621887  0.1291571706533432  0.3169640898704529  1.0000
  Al  Al4       1.0  0.9617794752120972  0.07867617160081863  0.4030655920505524  1.0000
  As  As1       1.0  0.25459206104278564  0.6005125641822815  0.940851330757141  1.0000
  Mg  Mg1       1.0  0.2807881832122803  0.14174969494342804  0.18345019221305847  1.0000
  Mg  Mg2       1.0  0.5758256912231445  0.11459213495254518  0.7788822054862975  1.0000
  Mg  Mg3       1.0  0.7790218591690063  0.4176200032234192  0.05447090417146682  1.0000
  Mg  Mg4       1.0  0.6501619815826416  0.20217862725257874  0.6479918360710144  1.0000
