data_image0
_chemical_formula_structural       CoH2Ho4PTbZn
_chemical_formula_sum              "Co1 H2 Ho4 P1 Tb1 Zn1"
_cell_length_a       5.238350106531039
_cell_length_b       5.780648996331171
_cell_length_c       8.280960083007812
_cell_angle_alpha    118.10316516580973
_cell_angle_beta     89.85048784435192
_cell_angle_gamma    89.3988900437431

_space_group_name_H-M_alt    "P 1"
_space_group_IT_number       1

loop_
  _space_group_symop_operation_xyz
  'x, y, z'

loop_
  _atom_site_type_symbol
  _atom_site_label
  _atom_site_symmetry_multiplicity
  _atom_site_fract_x
  _atom_site_fract_y
  _atom_site_fract_z
  _atom_site_occupancy
  Co  Co1       1.0  0.4678420126438141  0.26490518450737  0.7662010788917542  1.0000
  H   H1        1.0  0.9654501676559448  0.14622041583061218  0.6414902210235596  1.0000
  H   H2        1.0  0.9868378043174744  0.9786430597305298  0.021050449460744913  1.0000
  Ho  Ho1       1.0  0.4732157588005066  0.9753150939941406  0.7859585881233215  1.0000
  Ho  Ho2       1.0  0.9660148024559021  0.7105616927146912  0.050922308117151316  1.0000
  Ho  Ho3       1.0  0.9677873253822327  0.830803394317627  0.2824602425098419  1.0000
  Ho  Ho4       1.0  0.9687440395355225  0.30026862025260925  0.7297029495239259  1.0000
  P   P1        1.0  0.9623581171035767  0.14771319925785065  0.5536370873451233  1.0000
  Tb  Tb1       1.0  0.47925588488578796  0.3537505269050598  0.007353888824582114  1.0000
  Zn  Zn1       1.0  0.46935155987739563  0.8419269323348999  0.39592081308364874  1.0000
