data_image0
_chemical_formula_structural       HHo3IPPb2TiZr
_chemical_formula_sum              "H1 Ho3 I1 P1 Pb2 Ti1 Zr1"
_cell_length_a       5.842141142886427
_cell_length_b       7.37241737886501
_cell_length_c       7.925415992736816
_cell_angle_alpha    119.50921864447768
_cell_angle_beta     89.35847369783755
_cell_angle_gamma    89.70970392147271

_space_group_name_H-M_alt    "P 1"
_space_group_IT_number       1

loop_
  _space_group_symop_operation_xyz
  'x, y, z'

loop_
  _atom_site_type_symbol
  _atom_site_label
  _atom_site_symmetry_multiplicity
  _atom_site_fract_x
  _atom_site_fract_y
  _atom_site_fract_z
  _atom_site_occupancy
  H   H1        1.0  0.615975022315979  0.5905594229698181  0.9217430353164674  1.0000
  Ho  Ho1       1.0  0.11292579025030136  0.7507492303848267  0.03721695020794874  1.0000
  Ho  Ho2       1.0  0.6130052804946899  0.7276178002357483  0.7260569334030151  1.0000
  Ho  Ho3       1.0  0.6133159399032593  0.28698498010635376  0.6452402472496033  1.0000
  I   I1        1.0  0.11363977938890457  0.8352676630020142  0.3252551853656769  1.0000
  P   P1        1.0  0.11439663171768188  0.8795843124389648  0.18592621386051184  1.0000
  Pb  Pb1       1.0  0.6150760650634766  0.33651861548423767  0.6770551204681396  1.0000
  Pb  Pb2       1.0  0.11599119007587433  0.903651237487793  0.7335342764854431  1.0000
  Ti  Ti1       1.0  0.6142296195030212  0.9049188494682312  0.16801118850708013  1.0000
  Zr  Zr1       1.0  0.11678734421730042  0.3656771183013916  0.26926514506340027  1.0000
