data_image0
_chemical_formula_structural       As3Ho3P2ZnZr
_chemical_formula_sum              "As3 Ho3 P2 Zn1 Zr1"
_cell_length_a       5.495424913454011
_cell_length_b       5.944169477842899
_cell_length_c       9.321474075317383
_cell_angle_alpha    98.41236746029335
_cell_angle_beta     89.45292449576596
_cell_angle_gamma    103.58004270084118

_space_group_name_H-M_alt    "P 1"
_space_group_IT_number       1

loop_
  _space_group_symop_operation_xyz
  'x, y, z'

loop_
  _atom_site_type_symbol
  _atom_site_label
  _atom_site_symmetry_multiplicity
  _atom_site_fract_x
  _atom_site_fract_y
  _atom_site_fract_z
  _atom_site_occupancy
  As  As1       1.0  0.008341739885509014  0.22812849283218384  0.649553656578064  1.0000
  As  As2       1.0  0.518535852432251  0.1575920730829239  0.23259498178958893  1.0000
  As  As3       1.0  0.5091262459754944  0.7080227732658386  0.9825013875961304  1.0000
  Ho  Ho1       1.0  0.01776757463812828  0.24319715797901154  0.367758184671402  1.0000
  Ho  Ho2       1.0  0.5156221389770508  0.698394238948822  0.05957794561982155  1.0000
  Ho  Ho3       1.0  0.995950222015381  0.09607663750648499  0.005049594212323428  1.0000
  P   P1        1.0  0.01010713167488575  0.860578715801239  0.3515259921550751  1.0000
  P   P2        1.0  0.00809338316321373  0.07150755822658539  0.16094045341014862  1.0000
  Zn  Zn1       1.0  0.5091025233268738  0.4739619493484497  0.5089994072914124  1.0000
  Zr  Zr1       1.0  0.5253945589065552  0.7572339773178101  0.7912072539329529  1.0000
