data_image0
_chemical_formula_structural       HHo8S
_chemical_formula_sum              "H1 Ho8 S1"
_cell_length_a       4.355127149822735
_cell_length_b       5.3649806237257245
_cell_length_c       7.8797607421875
_cell_angle_alpha    96.32168332930668
_cell_angle_beta     102.24858160308206
_cell_angle_gamma    114.54468825155442

_space_group_name_H-M_alt    "P 1"
_space_group_IT_number       1

loop_
  _space_group_symop_operation_xyz
  'x, y, z'

loop_
  _atom_site_type_symbol
  _atom_site_label
  _atom_site_symmetry_multiplicity
  _atom_site_fract_x
  _atom_site_fract_y
  _atom_site_fract_z
  _atom_site_occupancy
  H   H1        1.0  0.07664506882429124  0.12195306271314622  0.049771491438150406  1.0000
  Ho  Ho1       1.0  0.5677765607833862  0.38406553864479065  0.16802942752838135  1.0000
  Ho  Ho2       1.0  0.06767895072698593  0.8832851052284241  0.7704461812973022  1.0000
  Ho  Ho3       1.0  0.5794373750686646  0.22748687863349917  0.24728713929653168  1.0000
  Ho  Ho4       1.0  0.32415536046028137  0.6457746624946594  0.6549413800239563  1.0000
  Ho  Ho5       1.0  0.07747451215982437  0.6571244597434998  0.32773953676223755  1.0000
  Ho  Ho6       1.0  0.5909987092018127  0.8653223514556885  0.5879741907119751  1.0000
  Ho  Ho7       1.0  0.5691257119178772  0.014256368391215803  0.2086103856563568  1.0000
  Ho  Ho8       1.0  0.5833869576454163  0.6577392816543579  0.47420674562454224  1.0000
  S   S1        1.0  0.07219051569700252  0.89508855342865  0.9761229753494263  1.0000
