data_image0
_chemical_formula_structural       As3Ho3PPbSZn
_chemical_formula_sum              "As3 Ho3 P1 Pb1 S1 Zn1"
_cell_length_a       5.0825675454438946
_cell_length_b       7.3946013596831675
_cell_length_c       7.772190093994141
_cell_angle_alpha    121.67524308822753
_cell_angle_beta     88.46144866017593
_cell_angle_gamma    90.23612422409359

_space_group_name_H-M_alt    "P 1"
_space_group_IT_number       1

loop_
  _space_group_symop_operation_xyz
  'x, y, z'

loop_
  _atom_site_type_symbol
  _atom_site_label
  _atom_site_symmetry_multiplicity
  _atom_site_fract_x
  _atom_site_fract_y
  _atom_site_fract_z
  _atom_site_occupancy
  As  As1       1.0  0.03392650559544563  0.6720553040504456  0.07905581593513489  1.0000
  As  As2       1.0  0.03677450120449066  0.6347643136978149  0.5813395977020264  1.0000
  As  As3       1.0  0.5253636837005615  0.6494560837745667  0.2776528596878052  1.0000
  Ho  Ho1       1.0  0.031253181397914886  0.8974922299385071  0.19290363788604742  1.0000
  Ho  Ho2       1.0  0.5277388095855713  0.22116266191005707  0.5764328837394714  1.0000
  Ho  Ho3       1.0  0.034484777599573135  0.8000168800354004  0.5044932961463929  1.0000
  P   P1        1.0  0.5381978154182434  0.9274777173995972  0.01959916204214102  1.0000
  Pb  Pb1       1.0  0.534979522228241  0.5333612561225891  0.7220966219902039  1.0000
  S   S1        1.0  0.02815304882824421  0.953443706035614  0.8874335885047913  1.0000
  Zn  Zn1       1.0  0.5325197577476501  0.7903051376342773  0.5225444436073303  1.0000
