data_image0
_chemical_formula_structural       Ho9S
_chemical_formula_sum              "Ho9 S1"
_cell_length_a       4.389777685882772
_cell_length_b       5.779569848132504
_cell_length_c       8.481961250305176
_cell_angle_alpha    109.84745797667334
_cell_angle_beta     89.43660981768146
_cell_angle_gamma    93.88648230319549

_space_group_name_H-M_alt    "P 1"
_space_group_IT_number       1

loop_
  _space_group_symop_operation_xyz
  'x, y, z'

loop_
  _atom_site_type_symbol
  _atom_site_label
  _atom_site_symmetry_multiplicity
  _atom_site_fract_x
  _atom_site_fract_y
  _atom_site_fract_z
  _atom_site_occupancy
  Ho  Ho1       1.0  0.7377293109893799  0.484412282705307  0.894368588924408  1.0000
  Ho  Ho2       1.0  0.26623672246932983  0.7243951559066772  0.3153510093688965  1.0000
  Ho  Ho3       1.0  0.7652263641357422  0.4433900713920593  0.2692687511444092  1.0000
  Ho  Ho4       1.0  0.7605454921722412  0.9407760500907898  0.07969903945922852  1.0000
  Ho  Ho5       1.0  0.7664251923561096  0.7085198760032654  0.2994123101234436  1.0000
  Ho  Ho6       1.0  0.7648153305053711  0.6344904899597168  0.8207613825798035  1.0000
  Ho  Ho7       1.0  0.7565245628356934  0.8152669072151184  0.16166380047798157  1.0000
  Ho  Ho8       1.0  0.2646593749523163  0.8271967768669128  0.4925639033317566  1.0000
  Ho  Ho9       1.0  0.2644239068031311  0.04430614039301872  0.5846753716468811  1.0000
  S   S1        1.0  0.2676719129085541  0.5629637241363525  0.8451794385910034  1.0000
