data_image0
_chemical_formula_structural       Al2As2Ca5Ga2
_chemical_formula_sum              "Al2 As2 Ca5 Ga2"
_cell_length_a       5.647399969826071
_cell_length_b       8.14703346807987
_cell_length_c       9.23105525970459
_cell_angle_alpha    120.80189371206635
_cell_angle_beta     89.66113039590255
_cell_angle_gamma    89.14500517058896

_space_group_name_H-M_alt    "P 1"
_space_group_IT_number       1

loop_
  _space_group_symop_operation_xyz
  'x, y, z'

loop_
  _atom_site_type_symbol
  _atom_site_label
  _atom_site_symmetry_multiplicity
  _atom_site_fract_x
  _atom_site_fract_y
  _atom_site_fract_z
  _atom_site_occupancy
  Al  Al1       1.0  0.007264431565999986  0.5050194263458252  0.17576612532138824  1.0000
  Al  Al2       1.0  0.7970359921455384  0.8107614517211914  0.3211026191711425  1.0000
  As  As1       1.0  0.4816007018089295  0.3272808790206909  0.09064507484436035  1.0000
  As  As2       1.0  0.9822911620140077  0.10513374209403992  0.9206149578094482  1.0000
  Ca  Ca1       1.0  0.4932036995887757  0.3195280432701111  0.3874243497848511  1.0000
  Ca  Ca2       1.0  0.9874598979949952  0.6005833148956299  0.851430356502533  1.0000
  Ca  Ca3       1.0  0.9833754301071168  0.47518408298492426  0.49741849303245544  1.0000
  Ca  Ca4       1.0  0.4878061413764954  0.09354784339666367  0.9163497090339661  1.0000
  Ca  Ca5       1.0  0.9807503223419191  0.7393186092376709  0.6068846583366394  1.0000
  Ga  Ga1       1.0  0.486811637878418  0.25371161103248596  0.4337483048439026  1.0000
  Ga  Ga2       1.0  0.4909637868404389  0.8136633038520813  0.8769113421440125  1.0000
