data_image0
_chemical_formula_structural       Al2As2Ca5GaGe
_chemical_formula_sum              "Al2 As2 Ca5 Ga1 Ge1"
_cell_length_a       4.67190381458592
_cell_length_b       8.567732616359779
_cell_length_c       10.03536605834961
_cell_angle_alpha    121.78145140906497
_cell_angle_beta     88.97773325633005
_cell_angle_gamma    88.64625110501879

_space_group_name_H-M_alt    "P 1"
_space_group_IT_number       1

loop_
  _space_group_symop_operation_xyz
  'x, y, z'

loop_
  _atom_site_type_symbol
  _atom_site_label
  _atom_site_symmetry_multiplicity
  _atom_site_fract_x
  _atom_site_fract_y
  _atom_site_fract_z
  _atom_site_occupancy
  Al  Al1       1.0  0.16399045288562775  0.5961627960205078  0.8823028802871704  1.0000
  Al  Al2       1.0  0.5098139643669128  0.5540480017662048  0.9826437830924988  1.0000
  As  As1       1.0  0.17278465628623962  0.8685705661773682  0.39040848612785334  1.0000
  As  As2       1.0  0.18209083378314972  0.9643936753273009  0.1417324095964431  1.0000
  Ca  Ca1       1.0  0.6823046207427979  0.3319893777370453  0.3690513074398041  1.0000
  Ca  Ca2       1.0  0.6819718480110168  0.6871079206466675  0.48681357502937317  1.0000
  Ca  Ca3       1.0  0.6756418943405151  0.3385189473628998  0.13185542821884152  1.0000
  Ca  Ca4       1.0  0.17356552183628082  0.1658683568239212  0.9958046674728394  1.0000
  Ca  Ca5       1.0  0.17397524416446686  0.12430887669324873  0.568281352519989  1.0000
  Ga  Ga1       1.0  0.1706501841545105  0.722476065158844  0.4428791105747223  1.0000
  Ge  Ge1       1.0  0.6961230635643005  0.10398399084806442  0.7441060543060303  1.0000
