data_image0
_chemical_formula_structural       As6Ca2Ge3
_chemical_formula_sum              "As6 Ca2 Ge3"
_cell_length_a       4.664294565960776
_cell_length_b       6.9141473958512165
_cell_length_c       7.660353660583496
_cell_angle_alpha    127.3556566993213
_cell_angle_beta     87.65526698341807
_cell_angle_gamma    90.4904450386898

_space_group_name_H-M_alt    "P 1"
_space_group_IT_number       1

loop_
  _space_group_symop_operation_xyz
  'x, y, z'

loop_
  _atom_site_type_symbol
  _atom_site_label
  _atom_site_symmetry_multiplicity
  _atom_site_fract_x
  _atom_site_fract_y
  _atom_site_fract_z
  _atom_site_occupancy
  As  As1       1.0  0.5271622538566589  0.2082143872976303  0.9784742593765259  1.0000
  As  As2       1.0  0.5264936089515686  0.48071005940437317  0.22721061110496518  1.0000
  As  As3       1.0  0.02489835023880005  0.2769275903701782  0.7111961841583252  1.0000
  As  As4       1.0  0.5272541046142578  0.43667837977409363  0.7845289707183838  1.0000
  As  As5       1.0  0.02440824918448925  0.5937384963035583  0.5323590636253357  1.0000
  As  As6       1.0  0.025620974600315094  0.4047677516937256  0.22341549396514893  1.0000
  Ca  Ca1       1.0  0.5185778141021729  0.267544686794281  0.4607747197151184  1.0000
  Ca  Ca2       1.0  0.025013403967022896  0.776091456413269  0.44005212187767023  1.0000
  Ge  Ge1       1.0  0.02278386428952217  0.8395975232124329  0.9776791930198669  1.0000
  Ge  Ge2       1.0  0.5288683772087097  0.8694403171539307  0.32436901330947876  1.0000
  Ge  Ge3       1.0  0.5274181365966797  0.234688863158226  0.693605899810791  1.0000
