data_image0
_chemical_formula_structural       Al3As7Ge
_chemical_formula_sum              "Al3 As7 Ge1"
_cell_length_a       4.76023517325836
_cell_length_b       6.995085867712393
_cell_length_c       9.382477760314941
_cell_angle_alpha    118.36955123218978
_cell_angle_beta     87.03003959870841
_cell_angle_gamma    88.27700479257828

_space_group_name_H-M_alt    "P 1"
_space_group_IT_number       1

loop_
  _space_group_symop_operation_xyz
  'x, y, z'

loop_
  _atom_site_type_symbol
  _atom_site_label
  _atom_site_symmetry_multiplicity
  _atom_site_fract_x
  _atom_site_fract_y
  _atom_site_fract_z
  _atom_site_occupancy
  Al  Al1       1.0  0.8692355751991272  0.05118608474731445  0.6111632585525513  1.0000
  Al  Al2       1.0  0.36889660358428955  0.5346595048904419  0.3535383939743042  1.0000
  Al  Al3       1.0  0.8653154373168945  0.9547663927078247  0.6722904443740845  1.0000
  As  As1       1.0  0.8619936108589172  0.5285282135009766  0.8217923045158386  1.0000
  As  As2       1.0  0.36961349844932556  0.8251065611839294  0.6727690100669861  1.0000
  As  As3       1.0  0.36444684863090515  0.04819662496447563  0.10073380917310715  1.0000
  As  As4       1.0  0.8667736649513245  0.061627455055713654  0.29492294788360596  1.0000
  As  As5       1.0  0.8655300736427307  0.9881446361541748  0.832000732421875  1.0000
  As  As6       1.0  0.8658168911933899  0.6041786074638367  0.5104110836982727  1.0000
  As  As7       1.0  0.3635542690753937  0.04088364914059639  0.5070484280586243  1.0000
  Ge  Ge1       1.0  0.3748266398906708  0.36878564953804016  0.7714365720748901  1.0000
