data_image0
_chemical_formula_structural       Al2As6Ca2Ge
_chemical_formula_sum              "Al2 As6 Ca2 Ge1"
_cell_length_a       5.25421841095962
_cell_length_b       7.402724654358768
_cell_length_c       8.974954605102539
_cell_angle_alpha    119.76595071317985
_cell_angle_beta     89.75268738317071
_cell_angle_gamma    89.59950874723982

_space_group_name_H-M_alt    "P 1"
_space_group_IT_number       1

loop_
  _space_group_symop_operation_xyz
  'x, y, z'

loop_
  _atom_site_type_symbol
  _atom_site_label
  _atom_site_symmetry_multiplicity
  _atom_site_fract_x
  _atom_site_fract_y
  _atom_site_fract_z
  _atom_site_occupancy
  Al  Al1       1.0  0.9693212509155273  0.3095720410346985  0.679912805557251  1.0000
  Al  Al2       1.0  0.48415476083755493  0.15171170234680176  0.5018796324729919  1.0000
  As  As1       1.0  0.9792004227638245  0.8950188755989075  0.17082281410694128  1.0000
  As  As2       1.0  0.47995975613594055  0.9236482381820679  0.7265543341636658  1.0000
  As  As3       1.0  0.48821231722831726  0.5725383758544922  0.4606156051158905  1.0000
  As  As4       1.0  0.24681812524795532  0.5600648522377014  0.27837231755256653  1.0000
  As  As5       1.0  0.9928867816925049  0.8363313674926758  0.9444949626922607  1.0000
  As  As6       1.0  0.9790375232696533  0.8724343180656433  0.48549866676330566  1.0000
  Ca  Ca1       1.0  0.9839387536048889  0.14065825939178467  0.8442726135253906  1.0000
  Ca  Ca2       1.0  0.4822080731391907  0.3344902992248535  0.7369658946990967  1.0000
  Ge  Ge1       1.0  0.48403432965278625  0.3291373550891876  0.6709418892860414  1.0000
