data_image0
_chemical_formula_structural       As6CaGe3Hg
_chemical_formula_sum              "As6 Ca1 Ge3 Hg1"
_cell_length_a       5.814996031359759
_cell_length_b       6.439272996030688
_cell_length_c       6.762873649597168
_cell_angle_alpha    138.21117288905103
_cell_angle_beta     86.07497062560687
_cell_angle_gamma    87.61408729938331

_space_group_name_H-M_alt    "P 1"
_space_group_IT_number       1

loop_
  _space_group_symop_operation_xyz
  'x, y, z'

loop_
  _atom_site_type_symbol
  _atom_site_label
  _atom_site_symmetry_multiplicity
  _atom_site_fract_x
  _atom_site_fract_y
  _atom_site_fract_z
  _atom_site_occupancy
  As  As1       1.0  0.4543738961219787  0.08436842262744908  0.24927116930484775  1.0000
  As  As2       1.0  0.4548093676567077  0.5681431293487549  0.6690471768379211  1.0000
  As  As3       1.0  0.4567046463489532  0.946432888507843  0.32898566126823425  1.0000
  As  As4       1.0  0.4587478339672088  0.577897608280182  0.837287724018097  1.0000
  As  As5       1.0  0.9645040035247802  0.02206945605576023  0.7379033565521239  1.0000
  As  As6       1.0  0.9536843299865722  0.8993322849273682  0.4893460273742676  1.0000
  Ca  Ca1       1.0  0.958898901939392  0.07807946205139148  0.3529124557971954  1.0000
  Ge  Ge1       1.0  0.9735284447669982  0.5583168268203735  0.1441600024700165  1.0000
  Ge  Ge2       1.0  0.9695557951927184  0.8172289133071899  0.5057424902915955  1.0000
  Ge  Ge3       1.0  0.47633650898933405  0.31680241227149963  0.9423586130142212  1.0000
  Hg  Hg1       1.0  0.45637217164039606  0.5769508481025696  0.255614310503006  1.0000
