data_image0
_chemical_formula_structural       HHo4PPbPd2PtZr
_chemical_formula_sum              "H1 Ho4 P1 Pb1 Pd2 Pt1 Zr1"
_cell_length_a       5.786992979777345
_cell_length_b       6.246520264918506
_cell_length_c       7.111163139343262
_cell_angle_alpha    88.95589886504584
_cell_angle_beta     88.77783486596127
_cell_angle_gamma    90.01920032622402

_space_group_name_H-M_alt    "P 1"
_space_group_IT_number       1

loop_
  _space_group_symop_operation_xyz
  'x, y, z'

loop_
  _atom_site_type_symbol
  _atom_site_label
  _atom_site_symmetry_multiplicity
  _atom_site_fract_x
  _atom_site_fract_y
  _atom_site_fract_z
  _atom_site_occupancy
  H   H1        1.0  0.29021915793418884  0.9284637570381163  0.4346849024295807  1.0000
  Ho  Ho1       1.0  0.2766425311565399  0.09892788529396056  0.34317412972450256  1.0000
  Ho  Ho2       1.0  0.7856929302215576  0.9300156235694884  0.5283810496330261  1.0000
  Ho  Ho3       1.0  0.8030892014503479  0.17352628707885742  0.41319510340690613  1.0000
  Ho  Ho4       1.0  0.7862631678581238  0.12653879821300507  0.9946147799491882  1.0000
  P   P1        1.0  0.2863556146621704  0.4221783876419067  0.2541729211807251  1.0000
  Pb  Pb1       1.0  0.2772398889064789  0.8633570075035094  0.8156422972679138  1.0000
  Pd  Pd1       1.0  0.7813683748245239  0.7806459069252013  0.2393626570701599  1.0000
  Pd  Pd2       1.0  0.7819864153862  0.9064781665802001  0.5648676753044128  1.0000
  Pt  Pt1       1.0  0.2804930806159973  0.16680918633937836  0.12903283536434174  1.0000
  Zr  Zr1       1.0  0.7733855247497559  0.9740031957626342  0.853879988193512  1.0000
