data_image0
_chemical_formula_structural       HHo5PPb2PdZr
_chemical_formula_sum              "H1 Ho5 P1 Pb2 Pd1 Zr1"
_cell_length_a       4.686970797696505
_cell_length_b       6.239954542878783
_cell_length_c       6.651636123657227
_cell_angle_alpha    112.29647293823656
_cell_angle_beta     100.94804997403753
_cell_angle_gamma    101.20519159362759

_space_group_name_H-M_alt    "P 1"
_space_group_IT_number       1

loop_
  _space_group_symop_operation_xyz
  'x, y, z'

loop_
  _atom_site_type_symbol
  _atom_site_label
  _atom_site_symmetry_multiplicity
  _atom_site_fract_x
  _atom_site_fract_y
  _atom_site_fract_z
  _atom_site_occupancy
  H   H1        1.0  0.8676323294639587  0.1679258793592453  0.45848968625068665  1.0000
  Ho  Ho1       1.0  0.7975293397903442  0.9903072118759154  0.7719217538833618  1.0000
  Ho  Ho2       1.0  0.3265833258628845  0.3017597794532776  0.6069843173027039  1.0000
  Ho  Ho3       1.0  0.3390207290649414  0.31628233194351196  0.38518211245536804  1.0000
  Ho  Ho4       1.0  0.30312836170196533  0.06873027235269547  0.09662716090679169  1.0000
  Ho  Ho5       1.0  0.46445152163505554  0.9665795564651488  0.7690867185592651  1.0000
  P   P1        1.0  0.329829603433609  0.4638251662254333  0.8267839550971985  1.0000
  Pb  Pb1       1.0  0.055020030587911606  0.6906108856201172  0.4894106686115265  1.0000
  Pb  Pb2       1.0  0.8443366885185242  0.5294708013534546  0.897609293460846  1.0000
  Pd  Pd1       1.0  0.8158979415893555  0.12744799256324768  0.8801385760307312  1.0000
  Zr  Zr1       1.0  0.9681867957115173  0.24264003336429593  0.2218881696462631  1.0000
