data_image0
_chemical_formula_structural       Ge4Pd7
_chemical_formula_sum              "Ge4 Pd7"
_cell_length_a       4.839084178140725
_cell_length_b       4.837474343795649
_cell_length_c       5.696015357971191
_cell_angle_alpha    105.38187711076989
_cell_angle_beta     99.32703653550149
_cell_angle_gamma    91.32145618345196

_space_group_name_H-M_alt    "P 1"
_space_group_IT_number       1

loop_
  _space_group_symop_operation_xyz
  'x, y, z'

loop_
  _atom_site_type_symbol
  _atom_site_label
  _atom_site_symmetry_multiplicity
  _atom_site_fract_x
  _atom_site_fract_y
  _atom_site_fract_z
  _atom_site_occupancy
  Ge  Ge1       1.0  0.34450867772102356  0.5338743925094604  0.8376312255859375  1.0000
  Ge  Ge2       1.0  0.8490128517150879  0.7303491830825806  0.09816981852054596  1.0000
  Ge  Ge3       1.0  0.3472840487957001  0.022713718935847282  0.5508396029472351  1.0000
  Ge  Ge4       1.0  0.8490820527076721  0.11997456848621368  0.4282638728618622  1.0000
  Pd  Pd1       1.0  0.3535439372062683  0.37371566891670227  0.5834930539131165  1.0000
  Pd  Pd2       1.0  0.34706348180770874  0.7249649167060852  0.20882166922092438  1.0000
  Pd  Pd3       1.0  0.8484639525413513  0.19606851041316986  0.29444631934165955  1.0000
  Pd  Pd4       1.0  0.34732291102409363  0.6505751013755798  0.5235053300857544  1.0000
  Pd  Pd5       1.0  0.35099509358406067  0.013147413730621338  0.9589211344718933  1.0000
  Pd  Pd6       1.0  0.8515638113021851  0.8114559054374695  0.7815794944763184  1.0000
  Pd  Pd7       1.0  0.3459019660949707  0.4665926694869995  0.1759338229894638  1.0000
