data_image0
_chemical_formula_structural       HHo4P2Pd4
_chemical_formula_sum              "H1 Ho4 P2 Pd4"
_cell_length_a       4.517443576589394
_cell_length_b       4.865982069249365
_cell_length_c       7.048975944519043
_cell_angle_alpha    90.21602659076461
_cell_angle_beta     89.32274446534858
_cell_angle_gamma    121.27820577023726

_space_group_name_H-M_alt    "P 1"
_space_group_IT_number       1

loop_
  _space_group_symop_operation_xyz
  'x, y, z'

loop_
  _atom_site_type_symbol
  _atom_site_label
  _atom_site_symmetry_multiplicity
  _atom_site_fract_x
  _atom_site_fract_y
  _atom_site_fract_z
  _atom_site_occupancy
  H   H1        1.0  0.7098450064659119  0.0003705367271322757  0.01763908378779888  1.0000
  Ho  Ho1       1.0  0.20010875165462494  0.3404283821582794  0.08715583384037016  1.0000
  Ho  Ho2       1.0  0.21793341636657715  0.295742005109787  0.43962547183036804  1.0000
  Ho  Ho3       1.0  0.1956072449684143  0.48885682225227356  0.624846339225769  1.0000
  Ho  Ho4       1.0  0.2032109946012497  0.08174728602170944  0.9361963868141175  1.0000
  P   P1        1.0  0.6975085735321045  0.3081246018409729  0.1826285719871521  1.0000
  P   P2        1.0  0.7345321178436279  0.8727439641952515  0.7981957197189331  1.0000
  Pd  Pd1       1.0  0.2099197953939438  0.9413073658943176  0.6629526019096375  1.0000
  Pd  Pd2       1.0  0.7031725645065308  0.16303157806396484  0.6005231142044067  1.0000
  Pd  Pd3       1.0  0.7023159861564636  0.2961590886116028  0.00038331543328240514  1.0000
  Pd  Pd4       1.0  0.48218303918838507  0.8042248487472534  0.7676944136619568  1.0000
