data_image0
_chemical_formula_structural       HHo4P2Pd2PrPt
_chemical_formula_sum              "H1 Ho4 P2 Pd2 Pr1 Pt1"
_cell_length_a       5.562775017951553
_cell_length_b       4.810838636617153
_cell_length_c       6.0212249755859375
_cell_angle_alpha    70.0485212749904
_cell_angle_beta     69.7616698205825
_cell_angle_gamma    60.27303221681421

_space_group_name_H-M_alt    "P 1"
_space_group_IT_number       1

loop_
  _space_group_symop_operation_xyz
  'x, y, z'

loop_
  _atom_site_type_symbol
  _atom_site_label
  _atom_site_symmetry_multiplicity
  _atom_site_fract_x
  _atom_site_fract_y
  _atom_site_fract_z
  _atom_site_occupancy
  H   H1        1.0  0.8344027996063232  0.5501407384872437  0.4476052224636078  1.0000
  Ho  Ho1       1.0  0.26750391721725464  0.8085571527481079  0.8905259966850281  1.0000
  Ho  Ho2       1.0  0.01820126734673977  0.7654891014099121  0.03420683741569519  1.0000
  Ho  Ho3       1.0  0.3456778824329376  0.2978191673755646  0.07788906991481781  1.0000
  Ho  Ho4       1.0  0.506733238697052  0.5225182175636292  0.0840299054980278  1.0000
  P   P1        1.0  0.5067042112350464  0.7144602537155151  0.1773512214422226  1.0000
  P   P2        1.0  0.696384847164154  0.782949686050415  0.2305964082479477  1.0000
  Pd  Pd1       1.0  0.2529389560222626  0.09021317958831787  0.5017898678779602  1.0000
  Pd  Pd2       1.0  0.3397272825241089  0.9502816200256348  0.9485437870025635  1.0000
  Pr  Pr1       1.0  0.0005133152008056641  0.5733016133308411  0.9780018925666809  1.0000
  Pt  Pt1       1.0  0.829410195350647  0.08425233513116837  0.32612574100494385  1.0000
