data_image0
_chemical_formula_structural       Ge5Pd6
_chemical_formula_sum              "Ge5 Pd6"
_cell_length_a       4.0124039593710865
_cell_length_b       4.59045640436606
_cell_length_c       5.194868564605713
_cell_angle_alpha    90.33893029385905
_cell_angle_beta     95.7340390020658
_cell_angle_gamma    88.41561529960735

_space_group_name_H-M_alt    "P 1"
_space_group_IT_number       1

loop_
  _space_group_symop_operation_xyz
  'x, y, z'

loop_
  _atom_site_type_symbol
  _atom_site_label
  _atom_site_symmetry_multiplicity
  _atom_site_fract_x
  _atom_site_fract_y
  _atom_site_fract_z
  _atom_site_occupancy
  Ge  Ge1       1.0  0.7116933465003967  0.5385889410972595  0.8534305691719055  1.0000
  Ge  Ge2       1.0  0.7149637341499329  0.9879084825515747  0.934903085231781  1.0000
  Ge  Ge3       1.0  0.2042001187801361  0.8921030163764954  0.5584388971328735  1.0000
  Ge  Ge4       1.0  0.2156388312578201  0.7831334471702576  0.8404211401939392  1.0000
  Ge  Ge5       1.0  0.7203548550605774  0.6158499717712402  0.682004988193512  1.0000
  Pd  Pd1       1.0  0.2153937369585037  0.07675480097532272  0.5411344170570374  1.0000
  Pd  Pd2       1.0  0.7117486000061035  0.3904133439064026  0.733112633228302  1.0000
  Pd  Pd3       1.0  0.21527400612831113  0.5489338636398315  0.33577102422714233  1.0000
  Pd  Pd4       1.0  0.7182716131210327  0.5027576088905334  0.17406293749809265  1.0000
  Pd  Pd5       1.0  0.7102418541908264  0.0441797710955143  0.5916363596916199  1.0000
  Pd  Pd6       1.0  0.21982595324516294  0.8264543414115906  0.9599207043647766  1.0000
