data_image0
_chemical_formula_structural       IV5
_chemical_formula_sum              "I1 V5"
_cell_length_a       4.228488738723235
_cell_length_b       4.377782356997814
_cell_length_c       8.080510139465332
_cell_angle_alpha    91.21793175631072
_cell_angle_beta     92.63675139862342
_cell_angle_gamma    98.57275753077307

_space_group_name_H-M_alt    "P 1"
_space_group_IT_number       1

loop_
  _space_group_symop_operation_xyz
  'x, y, z'

loop_
  _atom_site_type_symbol
  _atom_site_label
  _atom_site_symmetry_multiplicity
  _atom_site_fract_x
  _atom_site_fract_y
  _atom_site_fract_z
  _atom_site_occupancy
  I   I1        1.0  0.3045027554035187  0.18674689531326294  0.5877993106842041  1.0000
  V   V1        1.0  0.8196319937705994  0.2848952114582062  0.3954148292541504  1.0000
  V   V2        1.0  0.3183514475822449  0.5407577753067017  0.32750412821769714  1.0000
  V   V3        1.0  0.8131309151649475  0.7097345590591431  0.7008888721466064  1.0000
  V   V4        1.0  0.32120025157928467  0.32067015767097473  0.8572260141372681  1.0000
  V   V5        1.0  0.3222390413284302  0.4735206961631775  0.26361769437789917  1.0000
