data_image0
_chemical_formula_structural       CdCeCl2Ge2MnMoRhTeV
_chemical_formula_sum              "Cd1 Ce1 Cl2 Ge2 Mn1 Mo1 Rh1 Te1 V1"
_cell_length_a       4.358970957617324
_cell_length_b       6.282685948523017
_cell_length_c       10.183022499084473
_cell_angle_alpha    89.94947498698282
_cell_angle_beta     89.05602109490364
_cell_angle_gamma    90.94567594662607

_space_group_name_H-M_alt    "P 1"
_space_group_IT_number       1

loop_
  _space_group_symop_operation_xyz
  'x, y, z'

loop_
  _atom_site_type_symbol
  _atom_site_label
  _atom_site_symmetry_multiplicity
  _atom_site_fract_x
  _atom_site_fract_y
  _atom_site_fract_z
  _atom_site_occupancy
  Cd  Cd1       1.0  0.027772411704063416  0.18335379660129547  0.2866312265396118  1.0000
  Ce  Ce1       1.0  0.5265203714370728  0.31769514083862305  0.28938236832618713  1.0000
  Cl  Cl1       1.0  0.526735246181488  0.9539843201637268  0.7832744121551515  1.0000
  Cl  Cl2       1.0  0.7314389944076538  0.5918704271316528  0.7905988693237305  1.0000
  Ge  Ge1       1.0  0.03188365697860718  0.8341209292411804  0.22400428354740143  1.0000
  Ge  Ge2       1.0  0.531322717666626  0.9017695188522339  0.021002456545829773  1.0000
  Mn  Mn1       1.0  0.03325263783335686  0.5165765881538391  0.27365219593048096  1.0000
  Mo  Mo1       1.0  0.5320612192153931  0.9103293418884277  0.5205751657485962  1.0000
  Rh  Rh1       1.0  0.5378623604774475  0.4180547893047333  0.5201650261878967  1.0000
  Te  Te1       1.0  0.022256342694163322  0.7648210525512695  0.016985874623060226  1.0000
  V   V1        1.0  0.5266661643981934  0.0012052059173583984  0.15944033861160278  1.0000
