data_image0
_chemical_formula_structural       Cd3ClGeHInRhSbVZn
_chemical_formula_sum              "Cd3 Cl1 Ge1 H1 In1 Rh1 Sb1 V1 Zn1"
_cell_length_a       6.317140304064709
_cell_length_b       7.033126955179814
_cell_length_c       10.503484725952148
_cell_angle_alpha    90.26117887750176
_cell_angle_beta     89.49507835611719
_cell_angle_gamma    111.29776437367502

_space_group_name_H-M_alt    "P 1"
_space_group_IT_number       1

loop_
  _space_group_symop_operation_xyz
  'x, y, z'

loop_
  _atom_site_type_symbol
  _atom_site_label
  _atom_site_symmetry_multiplicity
  _atom_site_fract_x
  _atom_site_fract_y
  _atom_site_fract_z
  _atom_site_occupancy
  Cd  Cd1       1.0  0.1553635597229004  0.4074510931968689  0.45601367950439453  1.0000
  Cd  Cd2       1.0  0.6736547946929932  0.9053041934967041  0.6288281083106995  1.0000
  Cd  Cd3       1.0  0.37009453773498535  0.21225617825984955  0.1283750981092453  1.0000
  Cl  Cl1       1.0  0.8576753735542297  0.3479686677455902  0.9562530517578125  1.0000
  Ge  Ge1       1.0  0.08041628450155258  0.5567326545715332  0.36802664399147034  1.0000
  H   H1        1.0  0.8601021766662598  0.22422635555267334  0.8035165667533875  1.0000
  In  In1       1.0  0.14721861481666565  0.898551344871521  0.45276468992233276  1.0000
  Rh  Rh1       1.0  0.5197638273239136  0.6886919140815735  0.3582860827445984  1.0000
  Sb  Sb1       1.0  0.16077810525894165  0.9033778309822083  0.7065420150756836  1.0000
  V   V1        1.0  0.6547136902809143  0.8968820571899414  0.20347920060157776  1.0000
  Zn  Zn1       1.0  0.0137089304625988  0.5277048349380493  0.960516631603241  1.0000
