data_image0
_chemical_formula_structural       Ca2Cd3CrGaIn3Mo
_chemical_formula_sum              "Ca2 Cd3 Cr1 Ga1 In3 Mo1"
_cell_length_a       5.929442923933419
_cell_length_b       7.712446681689202
_cell_length_c       7.6539740562438965
_cell_angle_alpha    121.33702528225346
_cell_angle_beta     89.40874459321219
_cell_angle_gamma    90.12982758894927

_space_group_name_H-M_alt    "P 1"
_space_group_IT_number       1

loop_
  _space_group_symop_operation_xyz
  'x, y, z'

loop_
  _atom_site_type_symbol
  _atom_site_label
  _atom_site_symmetry_multiplicity
  _atom_site_fract_x
  _atom_site_fract_y
  _atom_site_fract_z
  _atom_site_occupancy
  Ca  Ca1       1.0  0.5853123664855957  0.9389781951904297  0.9674008488655091  1.0000
  Ca  Ca2       1.0  0.5861470103263855  0.3783067762851715  0.71583092212677  1.0000
  Cd  Cd1       1.0  0.5847499966621399  0.37123262882232666  0.15127004683017733  1.0000
  Cd  Cd2       1.0  0.08725958317518234  0.6130865812301636  0.40224474668502813  1.0000
  Cd  Cd3       1.0  0.5873121619224548  0.10341814905405045  0.822961151599884  1.0000
  Cr  Cr1       1.0  0.08596094697713852  0.8740875720977783  0.7209692001342773  1.0000
  Ga  Ga1       1.0  0.5871874094009399  0.9851305484771729  0.37794372439384466  1.0000
  In  In1       1.0  0.08136918395757675  0.9317675828933716  0.45540142059326183  1.0000
  In  In2       1.0  0.08817960321903229  0.6165105700492859  0.7152691483497621  1.0000
  In  In3       1.0  0.5834272503852844  0.38746577501296997  0.4488525986671448  1.0000
  Mo  Mo1       1.0  0.08753695338964462  0.40858426690101624  0.9760344624519348  1.0000
