data_image0
_chemical_formula_structural       CdClIn2Na2ORhScSnW
_chemical_formula_sum              "Cd1 Cl1 In2 Na2 O1 Rh1 Sc1 Sn1 W1"
_cell_length_a       5.614646531790928
_cell_length_b       6.361275100543495
_cell_length_c       8.835814476013184
_cell_angle_alpha    90.39167406590038
_cell_angle_beta     89.37114710935515
_cell_angle_gamma    89.56169780377542

_space_group_name_H-M_alt    "P 1"
_space_group_IT_number       1

loop_
  _space_group_symop_operation_xyz
  'x, y, z'

loop_
  _atom_site_type_symbol
  _atom_site_label
  _atom_site_symmetry_multiplicity
  _atom_site_fract_x
  _atom_site_fract_y
  _atom_site_fract_z
  _atom_site_occupancy
  Cd  Cd1       1.0  0.2983105778694153  0.9216961264610292  0.5904096364974976  1.0000
  Cl  Cl1       1.0  0.07468391954898834  0.7949247956275941  0.8644217252731323  1.0000
  In  In1       1.0  0.2589869499206543  0.9540205001831056  0.3533298075199127  1.0000
  In  In2       1.0  0.8057006001472473  0.27085062861442566  0.4458613395690918  1.0000
  Na  Na1       1.0  0.2442986965179443  0.45902505517005926  0.3598815798759461  1.0000
  Na  Na2       1.0  0.2809180021286011  0.924555003643036  0.05020138621330261  1.0000
  O   O1        1.0  0.20977126061916349  0.14521247148513794  0.03760293498635292  1.0000
  Rh  Rh1       1.0  0.7325998544692993  0.9570676088333131  0.4246717095375061  1.0000
  Sc  Sc1       1.0  0.799486517906189  0.9311287403106691  0.6664706468582153  1.0000
  Sn  Sn1       1.0  0.7974722981452942  0.4225438833236695  0.21647396683692932  1.0000
  W   W1        1.0  0.4223154783248901  0.6039600372314453  0.3551139235496521  1.0000
