data_image0
_chemical_formula_structural       CCd2GaIIn3Pt2Sn
_chemical_formula_sum              "C1 Cd2 Ga1 I1 In3 Pt2 Sn1"
_cell_length_a       5.666395468902641
_cell_length_b       7.694765759465941
_cell_length_c       7.534066677093506
_cell_angle_alpha    122.70631431883565
_cell_angle_beta     93.86104346373179
_cell_angle_gamma    89.62776822429065

_space_group_name_H-M_alt    "P 1"
_space_group_IT_number       1

loop_
  _space_group_symop_operation_xyz
  'x, y, z'

loop_
  _atom_site_type_symbol
  _atom_site_label
  _atom_site_symmetry_multiplicity
  _atom_site_fract_x
  _atom_site_fract_y
  _atom_site_fract_z
  _atom_site_occupancy
  C   C1        1.0  0.5124727487564087  0.13979201018810272  0.12492273002862932  1.0000
  Cd  Cd1       1.0  0.01948786899447441  0.6282772421836853  0.28838303685188293  1.0000
  Cd  Cd2       1.0  0.5036980509757996  0.64654141664505  0.27997592091560364  1.0000
  Ga  Ga1       1.0  0.5321578979492188  0.6367310285568237  0.9450876116752626  1.0000
  I   I1        1.0  0.7418105602264404  0.6365773677825928  0.3986687064170838  1.0000
  In  In1       1.0  0.7295904755592346  0.45230159163475037  0.15140306949615479  1.0000
  In  In2       1.0  0.015558668412268162  0.1403394192457199  0.8449055552482606  1.0000
  In  In3       1.0  0.020556433126330376  0.4631796181201935  0.15931130945682528  1.0000
  Pt  Pt1       1.0  0.022070109844207764  0.6603187322616577  0.15529754757881165  1.0000
  Pt  Pt2       1.0  0.2393115609884262  0.8785361647605896  0.6139877438545227  1.0000
  Sn  Sn1       1.0  0.5106120109558105  0.6605328321456909  0.6256152987480164  1.0000
