data_image0
_chemical_formula_structural       ClGeInMoNaRh2Sc2WZn
_chemical_formula_sum              "Cl1 Ge1 In1 Mo1 Na1 Rh2 Sc2 W1 Zn1"
_cell_length_a       5.419109660200064
_cell_length_b       5.514706943513742
_cell_length_c       10.029316902160645
_cell_angle_alpha    91.05105140395882
_cell_angle_beta     90.70268171501623
_cell_angle_gamma    109.67420506020132

_space_group_name_H-M_alt    "P 1"
_space_group_IT_number       1

loop_
  _space_group_symop_operation_xyz
  'x, y, z'

loop_
  _atom_site_type_symbol
  _atom_site_label
  _atom_site_symmetry_multiplicity
  _atom_site_fract_x
  _atom_site_fract_y
  _atom_site_fract_z
  _atom_site_occupancy
  Cl  Cl1       1.0  0.642271101474762  0.7232439517974854  0.8374106287956238  1.0000
  Ge  Ge1       1.0  0.14303845167160034  0.22215130925178528  0.3697664737701416  1.0000
  In  In1       1.0  0.8192982077598572  0.04605488106608391  0.5567138195037842  1.0000
  Mo  Mo1       1.0  0.9685224890708923  0.19889475405216217  0.5038378238677979  1.0000
  Na  Na1       1.0  0.9736151099205017  0.20769967138767242  0.29510265588760376  1.0000
  Rh  Rh1       1.0  0.4732342064380646  0.7016541361808777  0.989094614982605  1.0000
  Rh  Rh2       1.0  0.24802465736865997  0.7050210237503052  0.7807543277740479  1.0000
  Sc  Sc1       1.0  0.28592395782470703  0.3742678761482239  0.9305571913719177  1.0000
  Sc  Sc2       1.0  0.9472184777259827  0.7034708261489868  0.636790931224823  1.0000
  W   W1        1.0  0.6093451380729675  0.22108203172683716  0.3394986689090729  1.0000
  Zn  Zn1       1.0  0.28898927569389343  0.38044294714927673  0.105290487408638  1.0000
