data_image0
_chemical_formula_structural       IrLu10Si
_chemical_formula_sum              "Ir1 Lu10 Si1"
_cell_length_a       4.190279687704919
_cell_length_b       7.495481239850103
_cell_length_c       8.106496810913086
_cell_angle_alpha    117.62150651761468
_cell_angle_beta     88.78448698559383
_cell_angle_gamma    88.65853851086136

_space_group_name_H-M_alt    "P 1"
_space_group_IT_number       1

loop_
  _space_group_symop_operation_xyz
  'x, y, z'

loop_
  _atom_site_type_symbol
  _atom_site_label
  _atom_site_symmetry_multiplicity
  _atom_site_fract_x
  _atom_site_fract_y
  _atom_site_fract_z
  _atom_site_occupancy
  Ir  Ir1       1.0  0.7376575469970703  0.6049288511276245  0.5070940852165222  1.0000
  Lu  Lu1       1.0  0.21984635293483734  0.2877880930900574  0.7382276654243469  1.0000
  Lu  Lu2       1.0  0.723312497138977  0.9935253858566283  0.8747125267982483  1.0000
  Lu  Lu3       1.0  0.23507000505924225  0.5805665850639343  0.12570108473300934  1.0000
  Lu  Lu4       1.0  0.22510327398777008  0.023828800767660138  0.4314218759536743  1.0000
  Lu  Lu5       1.0  0.2280864268541336  0.24102272093296048  0.2417614758014679  1.0000
  Lu  Lu6       1.0  0.7246031165122986  0.02167701534926891  0.6917437314987183  1.0000
  Lu  Lu7       1.0  0.7212154269218445  0.7038466334342955  0.17477437853813166  1.0000
  Lu  Lu8       1.0  0.2154974490404129  0.03624153509736061  0.18361787497997284  1.0000
  Lu  Lu9       1.0  0.7229066491127014  0.16509668529033658  0.7786527276039124  1.0000
  Lu  Lu10      1.0  0.22468352317810059  0.19562640786170957  0.6158735752105713  1.0000
  Si  Si1       1.0  0.7258726954460144  0.8512152433395385  0.06805863231420511  1.0000
