data_image0
_chemical_formula_structural       Ir2Lu9Si
_chemical_formula_sum              "Ir2 Lu9 Si1"
_cell_length_a       4.287897066282055
_cell_length_b       7.302046440745449
_cell_length_c       7.953690528869629
_cell_angle_alpha    118.43603076757665
_cell_angle_beta     89.88565206418346
_cell_angle_gamma    89.46626160426655

_space_group_name_H-M_alt    "P 1"
_space_group_IT_number       1

loop_
  _space_group_symop_operation_xyz
  'x, y, z'

loop_
  _atom_site_type_symbol
  _atom_site_label
  _atom_site_symmetry_multiplicity
  _atom_site_fract_x
  _atom_site_fract_y
  _atom_site_fract_z
  _atom_site_occupancy
  Ir  Ir1       1.0  0.08849440515041351  0.3038020730018616  0.5758808851242065  1.0000
  Ir  Ir2       1.0  0.6004613041877747  0.9916629195213319  0.9329995512962341  1.0000
  Lu  Lu1       1.0  0.6030242443084717  0.7142851948738099  0.5771058797836304  1.0000
  Lu  Lu2       1.0  0.5899466872215271  0.22374075651168826  0.38909170031547546  1.0000
  Lu  Lu3       1.0  0.08810335397720337  0.6546741724014282  0.572130024433136  1.0000
  Lu  Lu4       1.0  0.5962652564048767  0.8626091480255128  0.28970181941986084  1.0000
  Lu  Lu5       1.0  0.10457870364189148  0.5659199953079224  0.9281079173088074  1.0000
  Lu  Lu6       1.0  0.09894474595785141  0.20895841717720035  0.8809657692909241  1.0000
  Lu  Lu7       1.0  0.10010000318288803  0.640685498714447  0.02570423297584057  1.0000
  Lu  Lu8       1.0  0.5955429077148438  0.5231571793556213  0.15918245911598206  1.0000
  Lu  Lu9       1.0  0.591504693031311  0.2821325361728668  0.5789430141448975  1.0000
  Si  Si1       1.0  0.09916316717863083  0.26748159527778625  0.25824394822120667  1.0000
