data_image0
_chemical_formula_structural       IrLu11
_chemical_formula_sum              "Ir1 Lu11"
_cell_length_a       4.233370219289883
_cell_length_b       6.846419830805841
_cell_length_c       7.3102922439575195
_cell_angle_alpha    119.9498791211732
_cell_angle_beta     89.88846272318986
_cell_angle_gamma    92.54350508713696

_space_group_name_H-M_alt    "P 1"
_space_group_IT_number       1

loop_
  _space_group_symop_operation_xyz
  'x, y, z'

loop_
  _atom_site_type_symbol
  _atom_site_label
  _atom_site_symmetry_multiplicity
  _atom_site_fract_x
  _atom_site_fract_y
  _atom_site_fract_z
  _atom_site_occupancy
  Ir  Ir1       1.0  0.9599904417991638  0.923185169696808  0.5246686339378356  1.0000
  Lu  Lu1       1.0  0.9376375079154968  0.16736860573291779  0.3893952071666717  1.0000
  Lu  Lu2       1.0  0.49590355157852173  0.5705514550209045  0.9084746241569518  1.0000
  Lu  Lu3       1.0  0.9543089866638184  0.24733504652976993  0.23935541510581967  1.0000
  Lu  Lu4       1.0  0.958437442779541  0.5580655932426453  0.6750640273094176  1.0000
  Lu  Lu5       1.0  0.48777973651885986  0.5719959139823914  0.9063395261764525  1.0000
  Lu  Lu6       1.0  0.4639590084552765  0.18732191622257233  0.6986480355262754  1.0000
  Lu  Lu7       1.0  0.9709442257881165  0.7577307820320129  0.013768416829407213  1.0000
  Lu  Lu8       1.0  0.45200222730636597  0.010366968810558319  0.5875436663627625  1.0000
  Lu  Lu9       1.0  0.4644891619682312  0.7687761187553406  0.4120612740516662  1.0000
  Lu  Lu10      1.0  0.22892357409000397  0.5770229697227478  0.18590810894966123  1.0000
  Lu  Lu11      1.0  0.45487180352211  0.36765050888061523  0.07563547790050507  1.0000
