data_image0
_chemical_formula_structural       Ir3Lu9
_chemical_formula_sum              "Ir3 Lu9"
_cell_length_a       4.31650184853871
_cell_length_b       7.041990225140771
_cell_length_c       7.272686004638672
_cell_angle_alpha    119.42117073572533
_cell_angle_beta     87.79355631530892
_cell_angle_gamma    91.44624811263913

_space_group_name_H-M_alt    "P 1"
_space_group_IT_number       1

loop_
  _space_group_symop_operation_xyz
  'x, y, z'

loop_
  _atom_site_type_symbol
  _atom_site_label
  _atom_site_symmetry_multiplicity
  _atom_site_fract_x
  _atom_site_fract_y
  _atom_site_fract_z
  _atom_site_occupancy
  Ir  Ir1       1.0  0.9431121945381165  0.5291210412979126  0.06668560951948169  1.0000
  Ir  Ir2       1.0  0.4169856905937195  0.9495416879653931  0.6535165309906006  1.0000
  Ir  Ir3       1.0  0.9476456642150879  0.543738603591919  0.7594114542007446  1.0000
  Lu  Lu1       1.0  0.44524624943733215  0.6056988835334778  0.2601818144321442  1.0000
  Lu  Lu2       1.0  0.9403492212295532  0.7256745100021362  0.35592278838157654  1.0000
  Lu  Lu3       1.0  0.4447471499443054  0.8811121582984924  0.2937088310718537  1.0000
  Lu  Lu4       1.0  0.9453489780426025  0.4456987679004669  0.30416154861450195  1.0000
  Lu  Lu5       1.0  0.4469662010669708  0.5072742700576782  0.26821643114089966  1.0000
  Lu  Lu6       1.0  0.456024706363678  0.10031218081712723  0.9602466225624083  1.0000
  Lu  Lu7       1.0  0.44301894307136536  0.5254136919975281  0.912843108177185  1.0000
  Lu  Lu8       1.0  0.9559297561645508  0.2477145940065384  0.8230745196342468  1.0000
  Lu  Lu9       1.0  0.9444849491119385  0.05442376062273979  0.29082372784614563  1.0000
