data_image0
_chemical_formula_structural       ClIr5Si6
_chemical_formula_sum              "Cl1 Ir5 Si6"
_cell_length_a       4.713190977172456
_cell_length_b       6.459379315512417
_cell_length_c       7.130797863006592
_cell_angle_alpha    125.52157355512546
_cell_angle_beta     90.83946583134335
_cell_angle_gamma    87.31607348633707

_space_group_name_H-M_alt    "P 1"
_space_group_IT_number       1

loop_
  _space_group_symop_operation_xyz
  'x, y, z'

loop_
  _atom_site_type_symbol
  _atom_site_label
  _atom_site_symmetry_multiplicity
  _atom_site_fract_x
  _atom_site_fract_y
  _atom_site_fract_z
  _atom_site_occupancy
  Cl  Cl1       1.0  0.018518298864364624  0.7287144064903259  0.44351243972778326  1.0000
  Ir  Ir1       1.0  0.06382341682910919  0.7386611104011536  0.00211415346711874  1.0000
  Ir  Ir2       1.0  0.5525894165039062  0.9618942141532898  0.3969742953777314  1.0000
  Ir  Ir3       1.0  0.0629059299826622  0.11052590608596802  0.9302942752838136  1.0000
  Ir  Ir4       1.0  0.06900571286678314  0.6034163236618042  0.11000391095876695  1.0000
  Ir  Ir5       1.0  0.5536336898803711  0.03559049591422081  0.8097631931304933  1.0000
  Si  Si1       1.0  0.5614457130432129  0.6740079522132874  0.8130292892456056  1.0000
  Si  Si2       1.0  0.5533091425895691  0.5658770799636841  0.4240784943103791  1.0000
  Si  Si3       1.0  0.5594651699066162  0.44341278076171875  0.03226049244403839  1.0000
  Si  Si4       1.0  0.5358505249023438  0.18749795854091644  0.4684132933616639  1.0000
  Si  Si5       1.0  0.06818170845508575  0.031232573091983795  0.0925874337553978  1.0000
  Si  Si6       1.0  0.06010875105857849  0.4292149245738983  0.5220481753349304  1.0000
