data_image0
_chemical_formula_structural       Ir4LuSi7
_chemical_formula_sum              "Ir4 Lu1 Si7"
_cell_length_a       4.627614634241196
_cell_length_b       6.714411498985915
_cell_length_c       7.240050792694092
_cell_angle_alpha    119.70869396691153
_cell_angle_beta     90.28880214636504
_cell_angle_gamma    88.60712429767732

_space_group_name_H-M_alt    "P 1"
_space_group_IT_number       1

loop_
  _space_group_symop_operation_xyz
  'x, y, z'

loop_
  _atom_site_type_symbol
  _atom_site_label
  _atom_site_symmetry_multiplicity
  _atom_site_fract_x
  _atom_site_fract_y
  _atom_site_fract_z
  _atom_site_occupancy
  Ir  Ir1       1.0  0.5857356190681458  0.3761415481567383  0.3158893287181854  1.0000
  Ir  Ir2       1.0  0.5756632089614868  0.396419882774353  0.8411161303520203  1.0000
  Ir  Ir3       1.0  0.5691971182823181  0.18340188264846802  0.5759962797164917  1.0000
  Ir  Ir4       1.0  0.06800179928541183  0.4214181900024414  0.04857582598924637  1.0000
  Lu  Lu1       1.0  0.07770417630672455  0.08759113401174545  0.03283517062664032  1.0000
  Si  Si1       1.0  0.5785041451454163  0.9068237543106079  0.7986741065979004  1.0000
  Si  Si2       1.0  0.5714415311813354  0.22081252932548523  0.8121318221092224  1.0000
  Si  Si3       1.0  0.5852769017219543  0.7556036710739136  0.7335154414176941  1.0000
  Si  Si4       1.0  0.08316648751497269  0.3068549931049347  0.7754602432250977  1.0000
  Si  Si5       1.0  0.0719650611281395  0.9034414291381836  0.8388952016830444  1.0000
  Si  Si6       1.0  0.42115694284439087  0.6647265553474426  0.050158534198999405  1.0000
  Si  Si7       1.0  0.07926163077354431  0.6214521527290344  0.2281825840473175  1.0000
