data_image0
_chemical_formula_structural       In3PZn2Zr
_chemical_formula_sum              "In3 P1 Zn2 Zr1"
_cell_length_a       5.247197787743371
_cell_length_b       5.297537090162588
_cell_length_c       6.928103446960449
_cell_angle_alpha    113.14200961356929
_cell_angle_beta     89.83920286410806
_cell_angle_gamma    106.13271623455157

_space_group_name_H-M_alt    "P 1"
_space_group_IT_number       1

loop_
  _space_group_symop_operation_xyz
  'x, y, z'

loop_
  _atom_site_type_symbol
  _atom_site_label
  _atom_site_symmetry_multiplicity
  _atom_site_fract_x
  _atom_site_fract_y
  _atom_site_fract_z
  _atom_site_occupancy
  In  In1       1.0  0.549955427646637  0.34720271825790405  0.3538606464862823  1.0000
  In  In2       1.0  0.055006597191095345  0.4129071533679962  0.8632916212081908  1.0000
  In  In3       1.0  0.5558568835258484  0.5518024563789368  0.9767106175422667  1.0000
  P   P1        1.0  0.058954797685146325  0.4922334849834442  0.4781567454338073  1.0000
  Zn  Zn1       1.0  0.5548385381698608  0.3421347737312317  0.4263960719108581  1.0000
  Zn  Zn2       1.0  0.05613381788134574  0.6058675050735474  0.883657395839691  1.0000
  Zr  Zr1       1.0  0.5578230619430542  0.44666174054145813  0.8451680541038512  1.0000
