data_image0
_chemical_formula_structural       As3In2PZn
_chemical_formula_sum              "As3 In2 P1 Zn1"
_cell_length_a       4.68456081919426
_cell_length_b       5.62788216740029
_cell_length_c       6.342556953430176
_cell_angle_alpha    67.5621759518472
_cell_angle_beta     63.81811531503174
_cell_angle_gamma    68.57266982592706

_space_group_name_H-M_alt    "P 1"
_space_group_IT_number       1

loop_
  _space_group_symop_operation_xyz
  'x, y, z'

loop_
  _atom_site_type_symbol
  _atom_site_label
  _atom_site_symmetry_multiplicity
  _atom_site_fract_x
  _atom_site_fract_y
  _atom_site_fract_z
  _atom_site_occupancy
  As  As1       1.0  0.8704137206077576  0.9650819897651672  0.7080759406089783  1.0000
  As  As2       1.0  0.5912551879882812  0.3720540404319763  0.5280227065086365  1.0000
  As  As3       1.0  0.4219008684158325  0.041357554495334625  0.875122606754303  1.0000
  In  In1       1.0  0.0866444930434227  0.47931426763534546  0.567706823348999  1.0000
  In  In2       1.0  0.4054950177669525  0.6074774265289307  0.1340051144361496  1.0000
  P   P1        1.0  0.9437652230262756  0.019901098683476448  0.48559483885765076  1.0000
  Zn  Zn1       1.0  0.9257875084877014  0.7380518317222595  0.1830647736787796  1.0000
