data_image0
_chemical_formula_structural       Ho8O5Tb
_chemical_formula_sum              "Ho8 O5 Tb1"
_cell_length_a       4.897645565944236
_cell_length_b       6.280564309099589
_cell_length_c       8.06543254852295
_cell_angle_alpha    105.22199531449164
_cell_angle_beta     93.8228962788745
_cell_angle_gamma    87.61952758955958

_space_group_name_H-M_alt    "P 1"
_space_group_IT_number       1

loop_
  _space_group_symop_operation_xyz
  'x, y, z'

loop_
  _atom_site_type_symbol
  _atom_site_label
  _atom_site_symmetry_multiplicity
  _atom_site_fract_x
  _atom_site_fract_y
  _atom_site_fract_z
  _atom_site_occupancy
  Ho  Ho1       1.0  0.35018110275268555  0.016931867226958275  0.21505048871040344  1.0000
  Ho  Ho2       1.0  0.870684027671814  0.2704925537109375  0.5362884998321533  1.0000
  Ho  Ho3       1.0  0.3667314052581787  0.4920562803745269  0.5226559638977051  1.0000
  Ho  Ho4       1.0  0.42642247676849365  0.8069893717765808  0.3255627751350403  1.0000
  Ho  Ho5       1.0  0.8211967945098877  0.8089590668678284  0.7147848010063171  1.0000
  Ho  Ho6       1.0  0.8255271911621094  0.574312150478363  0.9215418696403503  1.0000
  Ho  Ho7       1.0  0.3196656703948975  0.061238337308168404  0.4309101700782776  1.0000
  Ho  Ho8       1.0  0.289167195558548  0.23799525201320645  0.7246146202087402  1.0000
  O   O1        1.0  0.2054106891155243  0.14719071984291077  0.9374484419822693  1.0000
  O   O2        1.0  0.7468631267547607  0.2986767292022705  0.23031935095787048  1.0000
  O   O3        1.0  0.8794373273849487  0.7289941310882568  0.4495179355144501  1.0000
  O   O4        1.0  0.7031575441360474  0.2818550765514374  0.21279481053352356  1.0000
  O   O5        1.0  0.24959872663021088  0.750410258769989  0.14279069006443024  1.0000
  Tb  Tb1       1.0  0.07504787296056747  0.7894976139068604  0.24854372441768646  1.0000
