data_image0
_chemical_formula_structural       Ho6O6Tb2
_chemical_formula_sum              "Ho6 O6 Tb2"
_cell_length_a       4.86878359995608
_cell_length_b       7.460503683333593
_cell_length_c       8.063984870910645
_cell_angle_alpha    107.9343908422763
_cell_angle_beta     91.18731692284743
_cell_angle_gamma    88.27504687512354

_space_group_name_H-M_alt    "P 1"
_space_group_IT_number       1

loop_
  _space_group_symop_operation_xyz
  'x, y, z'

loop_
  _atom_site_type_symbol
  _atom_site_label
  _atom_site_symmetry_multiplicity
  _atom_site_fract_x
  _atom_site_fract_y
  _atom_site_fract_z
  _atom_site_occupancy
  Ho  Ho1       1.0  0.5181887745857239  0.5515427589416504  0.8734990358352661  1.0000
  Ho  Ho2       1.0  0.9962257146835327  0.9628270268440247  0.27831482887268066  1.0000
  Ho  Ho3       1.0  0.8431418538093567  0.5080358386039734  0.5408192276954651  1.0000
  Ho  Ho4       1.0  0.19702588021755219  0.8030571341514587  0.5053882002830505  1.0000
  Ho  Ho5       1.0  0.6869473457336426  0.7388513684272766  0.5294799208641052  1.0000
  Ho  Ho6       1.0  0.6962195634841919  0.3048572838306427  0.7054932117462158  1.0000
  O   O1        1.0  0.47032687067985535  0.48540011048316956  0.18361486494541168  1.0000
  O   O2        1.0  0.97105872631073  0.22446309030056  0.9140558242797852  1.0000
  O   O3        1.0  0.40309152007102966  0.14251919090747833  0.22158241271972656  1.0000
  O   O4        1.0  0.880325436592102  0.7063151001930237  0.3479377031326294  1.0000
  O   O5        1.0  0.4630647599697113  0.00927537027746439  0.38724225759506226  1.0000
  O   O6        1.0  0.31425052881240845  0.5154117941856384  0.37600404024124146  1.0000
  Tb  Tb1       1.0  0.19497844576835632  0.0328746996819973  0.5389478206634521  1.0000
  Tb  Tb2       1.0  0.19080550968647003  0.2542928159236908  0.18815603852272034  1.0000
