data_image0
_chemical_formula_structural       Ho2O9Re2Te
_chemical_formula_sum              "Ho2 O9 Re2 Te1"
_cell_length_a       5.752458100230982
_cell_length_b       6.928215986608852
_cell_length_c       6.8050031661987305
_cell_angle_alpha    123.32343019938946
_cell_angle_beta     99.45825698599495
_cell_angle_gamma    89.09604091090154

_space_group_name_H-M_alt    "P 1"
_space_group_IT_number       1

loop_
  _space_group_symop_operation_xyz
  'x, y, z'

loop_
  _atom_site_type_symbol
  _atom_site_label
  _atom_site_symmetry_multiplicity
  _atom_site_fract_x
  _atom_site_fract_y
  _atom_site_fract_z
  _atom_site_occupancy
  Ho  Ho1       1.0  0.7899325489997864  0.3034968674182892  0.631135880947113  1.0000
  Ho  Ho2       1.0  0.7882152795791626  0.7989087104797363  0.7779825329780579  1.0000
  O   O1        1.0  0.7524341940879822  0.04946335777640343  0.20700125396251678  1.0000
  O   O2        1.0  0.6758031845092773  0.9913962483406067  0.225396990776062  1.0000
  O   O3        1.0  0.5899514555931091  0.018415292724967003  0.9526688456535339  1.0000
  O   O4        1.0  0.16745077073574066  0.31919071078300476  0.702560544013977  1.0000
  O   O5        1.0  0.18232618272304535  0.7020298838615417  0.4636045694351197  1.0000
  O   O6        1.0  0.9034949541091919  0.4969980716705322  0.8365012407302856  1.0000
  O   O7        1.0  0.21501336991786957  0.9718247652053833  0.9843012094497681  1.0000
  O   O8        1.0  0.7083425521850586  0.9065858721733093  0.4694846272468567  1.0000
  O   O9        1.0  0.7369332313537598  0.7761878371238708  0.4162178039550782  1.0000
  Re  Re1       1.0  0.2403348684310913  0.608041524887085  0.3893784284591675  1.0000
  Re  Re2       1.0  0.2215224951505661  0.6390482783317566  0.8406884670257568  1.0000
  Te  Te1       1.0  0.7579549551010132  0.7980406284332275  0.005159987136721611  1.0000
