data_image0
_chemical_formula_structural       Ho2O8ReSeTe2
_chemical_formula_sum              "Ho2 O8 Re1 Se1 Te2"
_cell_length_a       5.478174347972324
_cell_length_b       7.551845691590857
_cell_length_c       7.394777774810791
_cell_angle_alpha    119.61782103284902
_cell_angle_beta     92.39175245648433
_cell_angle_gamma    90.09307926427012

_space_group_name_H-M_alt    "P 1"
_space_group_IT_number       1

loop_
  _space_group_symop_operation_xyz
  'x, y, z'

loop_
  _atom_site_type_symbol
  _atom_site_label
  _atom_site_symmetry_multiplicity
  _atom_site_fract_x
  _atom_site_fract_y
  _atom_site_fract_z
  _atom_site_occupancy
  Ho  Ho1       1.0  0.07976508885622025  0.40443420410156244  0.13711285591125486  1.0000
  Ho  Ho2       1.0  0.618687093257904  0.8813325166702269  0.9259853959083558  1.0000
  O   O1        1.0  0.24325454235076904  0.885648488998413  0.49175772070884705  1.0000
  O   O2        1.0  0.021061047911643982  0.049808457493782037  0.3667918145656586  1.0000
  O   O3        1.0  0.15239064395427704  0.7732731699943541  0.5571174621582031  1.0000
  O   O4        1.0  0.6830930709838867  0.7810449600219725  0.8112118840217591  1.0000
  O   O5        1.0  0.02216356247663498  0.24635691940784452  0.8517790436744691  1.0000
  O   O6        1.0  0.5736090540885925  0.5428937673568726  0.6191937923431398  1.0000
  O   O7        1.0  0.48777180910110474  0.42300873994827265  0.9880172610282899  1.0000
  O   O8        1.0  0.10159161686897278  0.2648197114467621  0.6166037917137147  1.0000
  Re  Re1       1.0  0.559014618396759  0.5748792290687561  0.7553906440734864  1.0000
  Se  Se1       1.0  0.13957373797893524  0.7703670859336852  0.30974885821342474  1.0000
  Te  Te1       1.0  0.09823036938905716  0.3535839915275574  0.6054888963699342  1.0000
  Te  Te2       1.0  0.5988527536392212  0.7263417840003967  0.6737086176872255  1.0000
