data_image0
_chemical_formula_structural       Ho6O5Tb2Te
_chemical_formula_sum              "Ho6 O5 Tb2 Te1"
_cell_length_a       5.459466192389586
_cell_length_b       7.381554360452505
_cell_length_c       7.56665563583374
_cell_angle_alpha    116.92622019472189
_cell_angle_beta     91.68136557163614
_cell_angle_gamma    91.54939689050939

_space_group_name_H-M_alt    "P 1"
_space_group_IT_number       1

loop_
  _space_group_symop_operation_xyz
  'x, y, z'

loop_
  _atom_site_type_symbol
  _atom_site_label
  _atom_site_symmetry_multiplicity
  _atom_site_fract_x
  _atom_site_fract_y
  _atom_site_fract_z
  _atom_site_occupancy
  Ho  Ho1       1.0  0.6957127451896667  0.8560755252838135  0.20661659538745875  1.0000
  Ho  Ho2       1.0  0.4638304114341736  0.3629857301712036  0.737298846244812  1.0000
  Ho  Ho3       1.0  0.22785437107086182  0.5672727227210999  0.18508230149745938  1.0000
  Ho  Ho4       1.0  0.44354045391082764  0.37105247378349304  0.8488013744354248  1.0000
  Ho  Ho5       1.0  0.7067147493362427  0.2926819622516632  0.7038698196411133  1.0000
  Ho  Ho6       1.0  0.9495673775672913  0.36013320088386536  0.8987045884132385  1.0000
  O   O1        1.0  0.48709636926651  0.2899307608604431  0.28933894634246826  1.0000
  O   O2        1.0  0.03502817824482918  0.20200367271900177  0.2905331552028656  1.0000
  O   O3        1.0  0.5392317771911621  0.03862974792718887  0.958393394947052  1.0000
  O   O4        1.0  0.9793952703475952  0.9941438436508179  0.42583593726158137  1.0000
  O   O5        1.0  0.49744173884391785  0.19670283794403076  0.723784327507019  1.0000
  Tb  Tb1       1.0  0.9602383971214294  0.8762866854667664  0.5369134545326233  1.0000
  Tb  Tb2       1.0  0.21440346539020538  0.8667088150978088  0.7909718155860901  1.0000
  Te  Te1       1.0  0.9487817883491516  0.8533735275268555  0.433522492647171  1.0000
