data_image0
_chemical_formula_structural       Ho6O5Tb2Te
_chemical_formula_sum              "Ho6 O5 Tb2 Te1"
_cell_length_a       5.4690796423994605
_cell_length_b       7.720991642353486
_cell_length_c       7.53279972076416
_cell_angle_alpha    114.35732691325121
_cell_angle_beta     89.79795800094575
_cell_angle_gamma    90.98612144713292

_space_group_name_H-M_alt    "P 1"
_space_group_IT_number       1

loop_
  _space_group_symop_operation_xyz
  'x, y, z'

loop_
  _atom_site_type_symbol
  _atom_site_label
  _atom_site_symmetry_multiplicity
  _atom_site_fract_x
  _atom_site_fract_y
  _atom_site_fract_z
  _atom_site_occupancy
  Ho  Ho1       1.0  0.8324422836303709  0.7909856438636779  0.6001502871513366  1.0000
  Ho  Ho2       1.0  0.8186410069465637  0.8557412028312682  0.8455345034599303  1.0000
  Ho  Ho3       1.0  0.8367146253585815  0.15372566878795624  0.916439116001129  1.0000
  Ho  Ho4       1.0  0.35090458393096924  0.03391335532069206  0.15108434855937955  1.0000
  Ho  Ho5       1.0  0.8009995818138123  0.19398400187492368  0.31304523348808283  1.0000
  Ho  Ho6       1.0  0.31536510586738586  0.5897888541221619  0.7477773427963256  1.0000
  O   O1        1.0  0.9164616465568541  0.2284499406814575  0.6631510853767394  1.0000
  O   O2        1.0  0.9156833887100219  0.7349092960357666  0.4615636169910431  1.0000
  O   O3        1.0  0.9196506738662719  0.4493663311004638  0.8038612604141234  1.0000
  O   O4        1.0  0.41520923376083374  0.22374986112117765  0.4673810005187988  1.0000
  O   O5        1.0  0.4639666080474853  0.9231020212173461  0.6975437998771666  1.0000
  Tb  Tb1       1.0  0.32361355423927307  0.7017964720726013  0.6952852606773375  1.0000
  Tb  Tb2       1.0  0.2934332489967346  0.7961434125900267  0.6674277782440184  1.0000
  Te  Te1       1.0  0.3143253028392792  0.5508801341056824  0.8071414232254027  1.0000
