data_image0
_chemical_formula_structural       CoGa2HI4Tb3
_chemical_formula_sum              "Co1 Ga2 H1 I4 Tb3"
_cell_length_a       6.687474730492236
_cell_length_b       6.933398352221442
_cell_length_c       8.018634796142578
_cell_angle_alpha    61.18372490551326
_cell_angle_beta     65.27650604708856
_cell_angle_gamma    63.444440250673836

_space_group_name_H-M_alt    "P 1"
_space_group_IT_number       1

loop_
  _space_group_symop_operation_xyz
  'x, y, z'

loop_
  _atom_site_type_symbol
  _atom_site_label
  _atom_site_symmetry_multiplicity
  _atom_site_fract_x
  _atom_site_fract_y
  _atom_site_fract_z
  _atom_site_occupancy
  Co  Co1       1.0  0.8006986379623414  0.34777936339378357  0.9569902420043945  1.0000
  Ga  Ga1       1.0  0.2359949350357056  0.9700213670730591  0.29587870836257935  1.0000
  Ga  Ga2       1.0  0.8004010915756227  0.4404386281967163  0.6285520792007446  1.0000
  H   H1        1.0  0.321294367313385  0.6699633002281189  0.29583215713500977  1.0000
  I   I1        1.0  0.8158224225044252  0.20190519094467163  0.10629534721374512  1.0000
  I   I2        1.0  0.2332732677459717  0.24569113552570343  0.19432833790779114  1.0000
  I   I3        1.0  0.29732072353363037  0.3516303598880768  0.46886587142944336  1.0000
  I   I4        1.0  0.7957172989845277  0.3452851474285126  0.9448127150535583  1.0000
  Tb  Tb1       1.0  0.22828577458858493  0.5704655647277832  0.4553547501564026  1.0000
  Tb  Tb2       1.0  0.7386571764945984  0.7640054225921631  0.5787481069564819  1.0000
  Tb  Tb3       1.0  0.010593954473733902  0.08966745436191559  0.037742309272289276  1.0000
