data_image0
_chemical_formula_structural       FeGa4HI2NiTb2
_chemical_formula_sum              "Fe1 Ga4 H1 I2 Ni1 Tb2"
_cell_length_a       5.803522289409455
_cell_length_b       5.63863833853472
_cell_length_c       6.923738479614258
_cell_angle_alpha    87.56502820081232
_cell_angle_beta     89.31241758578233
_cell_angle_gamma    91.08434282712932

_space_group_name_H-M_alt    "P 1"
_space_group_IT_number       1

loop_
  _space_group_symop_operation_xyz
  'x, y, z'

loop_
  _atom_site_type_symbol
  _atom_site_label
  _atom_site_symmetry_multiplicity
  _atom_site_fract_x
  _atom_site_fract_y
  _atom_site_fract_z
  _atom_site_occupancy
  Fe  Fe1       1.0  0.23165993392467496  0.9787663221359253  0.08000582456588745  1.0000
  Ga  Ga1       1.0  0.5176644921302795  0.810226321220398  0.7801766991615295  1.0000
  Ga  Ga2       1.0  0.013003794476389883  0.4946310222148895  0.7569694519042969  1.0000
  Ga  Ga3       1.0  0.7155917286872864  0.22475777566432953  0.4788108766078949  1.0000
  Ga  Ga4       1.0  0.96732360124588  0.5971997976303101  0.1617545485496521  1.0000
  H   H1        1.0  0.12285602837800978  0.9092743992805481  0.3906956613063812  1.0000
  I   I1        1.0  0.4896923899650573  0.8834146857261658  0.17925599217414856  1.0000
  I   I2        1.0  0.19377751648426056  0.116221122443676  0.6614122986793518  1.0000
  Ni  Ni1       1.0  0.5394279956817627  0.11917711794376373  0.3133835792541504  1.0000
  Tb  Tb1       1.0  0.21446204185485837  0.28057506680488586  0.4209931194782257  1.0000
  Tb  Tb2       1.0  0.8130267858505248  0.6407477855682373  0.2915029227733612  1.0000
