data_image0
_chemical_formula_structural       Ga2Ni3Tb6
_chemical_formula_sum              "Ga2 Ni3 Tb6"
_cell_length_a       5.181281185419518
_cell_length_b       4.488710750197439
_cell_length_c       4.407984256744385
_cell_angle_alpha    138.3742013717707
_cell_angle_beta     109.50063843515709
_cell_angle_gamma    110.3402317690183

_space_group_name_H-M_alt    "P 1"
_space_group_IT_number       1

loop_
  _space_group_symop_operation_xyz
  'x, y, z'

loop_
  _atom_site_type_symbol
  _atom_site_label
  _atom_site_symmetry_multiplicity
  _atom_site_fract_x
  _atom_site_fract_y
  _atom_site_fract_z
  _atom_site_occupancy
  Ga  Ga1       1.0  0.18672107160091403  0.045583587139844936  0.35099750757217413  1.0000
  Ga  Ga2       1.0  0.538884699344635  0.14163543283939364  0.17429786920547485  1.0000
  Ni  Ni1       1.0  0.7256137728691101  0.8118045926094055  0.857870876789093  1.0000
  Ni  Ni2       1.0  0.5189433097839355  0.4251385033130645  0.7290145158767699  1.0000
  Ni  Ni3       1.0  0.21461857855319985  0.9574394822120668  0.07117699086666109  1.0000
  Tb  Tb1       1.0  0.9741578102111816  0.3169836103916168  0.030752729624509825  1.0000
  Tb  Tb2       1.0  0.4376181662082672  0.26417475938797  0.9688159823417664  1.0000
  Tb  Tb3       1.0  0.07388183474540715  0.35564112663269054  0.7529799938201905  1.0000
  Tb  Tb4       1.0  0.6259586215019226  0.663352370262146  0.7247390747070312  1.0000
  Tb  Tb5       1.0  0.19007767736911776  0.0952259078621865  0.6598352193832399  1.0000
  Tb  Tb6       1.0  0.449099600315094  0.46387544274330145  0.6043450236320496  1.0000
