data_image0
_chemical_formula_structural       Ga2Ni2Tb7
_chemical_formula_sum              "Ga2 Ni2 Tb7"
_cell_length_a       6.608451054371374
_cell_length_b       6.06171486759231
_cell_length_c       6.706715106964111
_cell_angle_alpha    59.38121169318605
_cell_angle_beta     59.8805772183782
_cell_angle_gamma    55.65154879215594

_space_group_name_H-M_alt    "P 1"
_space_group_IT_number       1

loop_
  _space_group_symop_operation_xyz
  'x, y, z'

loop_
  _atom_site_type_symbol
  _atom_site_label
  _atom_site_symmetry_multiplicity
  _atom_site_fract_x
  _atom_site_fract_y
  _atom_site_fract_z
  _atom_site_occupancy
  Ga  Ga1       1.0  0.35990086197853083  0.6348302364349365  0.8161765933036804  1.0000
  Ga  Ga2       1.0  0.8755337595939635  0.3562065660953522  0.503021776676178  1.0000
  Ni  Ni1       1.0  0.37870621681213373  0.8738961219787598  0.2506908178329468  1.0000
  Ni  Ni2       1.0  0.3563719987869262  0.44226107001304626  0.7983777523040771  1.0000
  Tb  Tb1       1.0  0.3458472192287445  0.7320336699485779  0.6306468844413757  1.0000
  Tb  Tb2       1.0  0.7421569228172301  0.13243746757507324  0.799839973449707  1.0000
  Tb  Tb3       1.0  0.3545467257499695  0.6810214519500732  0.7908444404602051  1.0000
  Tb  Tb4       1.0  0.8577464818954467  0.2886981964111328  0.35897672176361084  1.0000
  Tb  Tb5       1.0  0.8116479516029357  0.3323254883289337  0.06892266124486923  1.0000
  Tb  Tb6       1.0  0.3703525364398956  0.9116430878639221  0.8095391392707825  1.0000
  Tb  Tb7       1.0  0.8394031524658202  0.5315123200416565  0.5343614220619202  1.0000
