data_image0
_chemical_formula_structural       Ga4H2I2PtTb2
_chemical_formula_sum              "Ga4 H2 I2 Pt1 Tb2"
_cell_length_a       5.58599156884468
_cell_length_b       6.641027783644346
_cell_length_c       6.7549729347229
_cell_angle_alpha    114.00188122476257
_cell_angle_beta     86.97933970990042
_cell_angle_gamma    91.90924356566677

_space_group_name_H-M_alt    "P 1"
_space_group_IT_number       1

loop_
  _space_group_symop_operation_xyz
  'x, y, z'

loop_
  _atom_site_type_symbol
  _atom_site_label
  _atom_site_symmetry_multiplicity
  _atom_site_fract_x
  _atom_site_fract_y
  _atom_site_fract_z
  _atom_site_occupancy
  Ga  Ga1       1.0  0.06718111038208008  0.33780238032341003  0.19579602777957913  1.0000
  Ga  Ga2       1.0  0.0700652003288269  0.3453119099140167  0.8512946963310242  1.0000
  Ga  Ga3       1.0  0.5623724460601807  0.996429979801178  0.06425569206476205  1.0000
  Ga  Ga4       1.0  0.06560225039720535  0.7784723043441772  0.5990808606147766  1.0000
  H   H1        1.0  0.08164793998003006  0.13043415546417236  0.09794598817825317  1.0000
  H   H2        1.0  0.5829296112060547  0.7833236455917358  0.8488114476203918  1.0000
  I   I1        1.0  0.5650146007537842  0.9244369268417358  0.8726668357849121  1.0000
  I   I2        1.0  0.07164730131626129  0.38387784361839294  0.1982893496751785  1.0000
  Pt  Pt1       1.0  0.06412404030561447  0.1985197812318802  0.5348939895629883  1.0000
  Tb  Tb1       1.0  0.5874602198600769  0.5775366425514221  0.1986541301012039  1.0000
  Tb  Tb2       1.0  0.5706559419631958  0.5188606977462769  0.22671957314014432  1.0000
