data_image0
_chemical_formula_structural       AlGa3HI3Tb2Ti
_chemical_formula_sum              "Al1 Ga3 H1 I3 Tb2 Ti1"
_cell_length_a       6.21817931683685
_cell_length_b       6.316528824536389
_cell_length_c       6.6186699867248535
_cell_angle_alpha    106.4595760110106
_cell_angle_beta     102.87601445095811
_cell_angle_gamma    107.75748421213011

_space_group_name_H-M_alt    "P 1"
_space_group_IT_number       1

loop_
  _space_group_symop_operation_xyz
  'x, y, z'

loop_
  _atom_site_type_symbol
  _atom_site_label
  _atom_site_symmetry_multiplicity
  _atom_site_fract_x
  _atom_site_fract_y
  _atom_site_fract_z
  _atom_site_occupancy
  Al  Al1       1.0  0.24526286125183108  0.05160564184188843  0.23258210718631744  1.0000
  Ga  Ga1       1.0  0.786070227622986  0.17285475134849548  0.31737813353538513  1.0000
  Ga  Ga2       1.0  0.2782517373561859  0.8447309136390686  0.8007243275642395  1.0000
  Ga  Ga3       1.0  0.2805417478084564  0.16228504478931427  0.5589741468429565  1.0000
  H   H1        1.0  0.292459636926651  0.17602762579917908  0.7536545991897583  1.0000
  I   I1        1.0  0.27590638399124146  0.8772065043449402  0.976209819316864  1.0000
  I   I2        1.0  0.6019173860549927  0.9870163798332214  0.7555992007255554  1.0000
  I   I3        1.0  0.764891803264618  0.09752091765403748  0.562755286693573  1.0000
  Tb  Tb1       1.0  0.8179182410240174  0.4625539779663086  0.7489004731178284  1.0000
  Tb  Tb2       1.0  0.757136642932892  0.2330794632434845  0.10994607210159302  1.0000
  Ti  Ti1       1.0  0.2652473747730255  0.5929553508758545  0.0470343641936779  1.0000
