data_image0
_chemical_formula_structural       ErF2NbPrS2SbTa
_chemical_formula_sum              "Er1 F2 Nb1 Pr1 S2 Sb1 Ta1"
_cell_length_a       6.130358904706643
_cell_length_b       6.106972397416986
_cell_length_c       6.9150614738464355
_cell_angle_alpha    63.86684540533242
_cell_angle_beta     63.897255611904946
_cell_angle_gamma    59.902494475416724

_space_group_name_H-M_alt    "P 1"
_space_group_IT_number       1

loop_
  _space_group_symop_operation_xyz
  'x, y, z'

loop_
  _atom_site_type_symbol
  _atom_site_label
  _atom_site_symmetry_multiplicity
  _atom_site_fract_x
  _atom_site_fract_y
  _atom_site_fract_z
  _atom_site_occupancy
  Er  Er1       1.0  0.8894616365432739  0.0637020692229271  0.01828090846538539  1.0000
  F   F1        1.0  0.21695451438426971  0.874876081943512  0.7295229434967041  1.0000
  F   F2        1.0  0.8454023003578186  0.527077853679657  0.7542698383331299  1.0000
  Nb  Nb1       1.0  0.4408034384250641  0.5787203311920166  0.9300949573516846  1.0000
  Pr  Pr1       1.0  0.259664922952652  0.4536803066730499  0.4461882710456848  1.0000
  S   S1        1.0  0.09465531259775162  0.27184242010116577  0.20722146332263947  1.0000
  S   S2        1.0  0.5935307145118713  0.7565155029296875  0.20541380345821378  1.0000
  Sb  Sb1       1.0  0.5830639600753784  0.24939168989658356  0.7204110622406005  1.0000
  Ta  Ta1       1.0  0.6248156428337097  0.8205962777137756  0.5360383987426758  1.0000
