data_image0
_chemical_formula_structural       Lu2Nb5PtTh
_chemical_formula_sum              "Lu2 Nb5 Pt1 Th1"
_cell_length_a       5.949281548312697
_cell_length_b       5.9627116757237415
_cell_length_c       6.902174472808838
_cell_angle_alpha    112.31540126144341
_cell_angle_beta     113.05201868513218
_cell_angle_gamma    95.59722844087898

_space_group_name_H-M_alt    "P 1"
_space_group_IT_number       1

loop_
  _space_group_symop_operation_xyz
  'x, y, z'

loop_
  _atom_site_type_symbol
  _atom_site_label
  _atom_site_symmetry_multiplicity
  _atom_site_fract_x
  _atom_site_fract_y
  _atom_site_fract_z
  _atom_site_occupancy
  Lu  Lu1       1.0  0.34497660398483276  0.38109540939331055  0.5590367317199707  1.0000
  Lu  Lu2       1.0  0.35009756684303284  0.38330790400505066  0.05557964742183687  1.0000
  Nb  Nb1       1.0  0.8502635955810547  0.38147106766700745  0.5491100549697877  1.0000
  Nb  Nb2       1.0  0.7810879945755005  0.2615107297897339  0.8999902606010437  1.0000
  Nb  Nb3       1.0  0.8514137268066406  0.8860453963279724  0.562855064868927  1.0000
  Nb  Nb4       1.0  0.9838617444038391  0.6448360681533813  0.24517408013343814  1.0000
  Nb  Nb5       1.0  0.3823511004447937  0.8919777274131775  0.6080273985862732  1.0000
  Pt  Pt1       1.0  0.7772927284240723  0.7753655910491943  0.8905748724937439  1.0000
  Th  Th1       1.0  0.34720632433891296  0.8862413763999939  0.05974572896957404  1.0000
