data_image0
_chemical_formula_structural       Lu2Nb4ORbTh
_chemical_formula_sum              "Lu2 Nb4 O1 Rb1 Th1"
_cell_length_a       4.0263030201114045
_cell_length_b       5.8076374379250595
_cell_length_c       8.28281307220459
_cell_angle_alpha    106.46527391454647
_cell_angle_beta     104.09368070326433
_cell_angle_gamma    90.11295023918683

_space_group_name_H-M_alt    "P 1"
_space_group_IT_number       1

loop_
  _space_group_symop_operation_xyz
  'x, y, z'

loop_
  _atom_site_type_symbol
  _atom_site_label
  _atom_site_symmetry_multiplicity
  _atom_site_fract_x
  _atom_site_fract_y
  _atom_site_fract_z
  _atom_site_occupancy
  Lu  Lu1       1.0  0.9714639186859131  0.4627852737903595  0.5990156531333923  1.0000
  Lu  Lu2       1.0  0.14947162568569183  0.2364589273929596  0.9337390661239624  1.0000
  Nb  Nb1       1.0  0.9549993276596069  0.9440283179283142  0.5290170311927795  1.0000
  Nb  Nb2       1.0  0.36681970953941345  0.6016736626625061  0.35598695278167725  1.0000
  Nb  Nb3       1.0  0.3603173494338989  0.11373788118362427  0.35301485657691956  1.0000
  Nb  Nb4       1.0  0.5465407371520996  0.8539373278617859  0.7406027317047119  1.0000
  O   O1        1.0  0.12404653429985046  0.8074511289596558  0.8780316114425659  1.0000
  Rb  Rb1       1.0  0.7841497659683228  0.2936270833015442  0.19118259847164154  1.0000
  Th  Th1       1.0  0.7293243408203125  0.7495872974395752  0.08767694234848022  1.0000
