data_image0
_chemical_formula_structural       CdCl2CoCuGeHfSb2
_chemical_formula_sum              "Cd1 Cl2 Co1 Cu1 Ge1 Hf1 Sb2"
_cell_length_a       3.943237935912609
_cell_length_b       7.854159563788108
_cell_length_c       7.904660701751709
_cell_angle_alpha    115.0487027771605
_cell_angle_beta     100.59370851532691
_cell_angle_gamma    101.46114553166007

_space_group_name_H-M_alt    "P 1"
_space_group_IT_number       1

loop_
  _space_group_symop_operation_xyz
  'x, y, z'

loop_
  _atom_site_type_symbol
  _atom_site_label
  _atom_site_symmetry_multiplicity
  _atom_site_fract_x
  _atom_site_fract_y
  _atom_site_fract_z
  _atom_site_occupancy
  Cd  Cd1       1.0  0.4277142286300659  0.7576377391815186  0.04806385561823856  1.0000
  Cl  Cl1       1.0  0.4061008393764496  0.8864132165908813  0.44658064842224127  1.0000
  Cl  Cl2       1.0  0.011827470734715462  0.9924010038375854  0.8931658267974855  1.0000
  Co  Co1       1.0  0.18819791078567505  0.38421669602394104  0.03445799648761752  1.0000
  Cu  Cu1       1.0  0.6070834398269653  0.22180965542793274  0.15968346595764163  1.0000
  Ge  Ge1       1.0  0.7665728330612183  0.5292049646377563  0.12802533805370336  1.0000
  Hf  Hf1       1.0  0.5786450505256653  0.1747860312461853  0.7960191369056702  1.0000
  Sb  Sb1       1.0  0.18112924695014954  0.33745649456977844  0.35482436418533325  1.0000
  Sb  Sb2       1.0  0.8232908248901367  0.5020501017570496  0.776799201965332  1.0000
