data_image0
_chemical_formula_structural       CdCl2CuHInReSb2
_chemical_formula_sum              "Cd1 Cl2 Cu1 H1 In1 Re1 Sb2"
_cell_length_a       6.07649462657138
_cell_length_b       6.076488332775469
_cell_length_c       6.065248966217041
_cell_angle_alpha    99.84219277731799
_cell_angle_beta     99.64676302554376
_cell_angle_gamma    97.95607040094977

_space_group_name_H-M_alt    "P 1"
_space_group_IT_number       1

loop_
  _space_group_symop_operation_xyz
  'x, y, z'

loop_
  _atom_site_type_symbol
  _atom_site_label
  _atom_site_symmetry_multiplicity
  _atom_site_fract_x
  _atom_site_fract_y
  _atom_site_fract_z
  _atom_site_occupancy
  Cd  Cd1       1.0  0.35464975237846375  0.620673418045044  0.6395290493965149  1.0000
  Cl  Cl1       1.0  0.43526729941368103  0.6627117991447449  0.1624922752380371  1.0000
  Cl  Cl2       1.0  0.5230653285980225  0.06099747121334076  0.8007253408432007  1.0000
  Cu  Cu1       1.0  0.8043673038482666  0.6765150427818298  0.3518308103084564  1.0000
  H   H1        1.0  0.470871239900589  0.3342345058917999  0.5040493011474609  1.0000
  In  In1       1.0  0.04801955819129944  0.20605915784835815  0.8681020736694336  1.0000
  Re  Re1       1.0  0.7423517107963562  0.2784006893634796  0.5168355703353882  1.0000
  Sb  Sb1       1.0  0.9090142846107483  0.6102474331855774  0.7246097326278687  1.0000
  Sb  Sb2       1.0  0.003870698157697916  0.06256505846977234  0.32888081669807434  1.0000
