data_image0
_chemical_formula_structural       As2GaP5Pb3Pt
_chemical_formula_sum              "As2 Ga1 P5 Pb3 Pt1"
_cell_length_a       4.231392718611565
_cell_length_b       7.310720854911349
_cell_length_c       8.259181022644043
_cell_angle_alpha    95.06789856514716
_cell_angle_beta     88.39378867414025
_cell_angle_gamma    86.83537434780173

_space_group_name_H-M_alt    "P 1"
_space_group_IT_number       1

loop_
  _space_group_symop_operation_xyz
  'x, y, z'

loop_
  _atom_site_type_symbol
  _atom_site_label
  _atom_site_symmetry_multiplicity
  _atom_site_fract_x
  _atom_site_fract_y
  _atom_site_fract_z
  _atom_site_occupancy
  As  As1       1.0  0.2861476242542267  0.31053370237350464  0.7476406097412109  1.0000
  As  As2       1.0  0.7838327884674072  0.6329859495162964  0.7534123063087463  1.0000
  Ga  Ga1       1.0  0.2937985956668854  0.3864325284957886  0.765305757522583  1.0000
  P   P1        1.0  0.30319011211395264  0.7695617079734802  0.3009432554244995  1.0000
  P   P2        1.0  0.8041342496871948  0.8753296732902527  0.6417853236198425  1.0000
  P   P3        1.0  0.7851453423500061  0.24547272920608523  0.4390113651752472  1.0000
  P   P4        1.0  0.7708451747894287  0.12299837917089464  0.07653189450502396  1.0000
  P   P5        1.0  0.29295051097869873  0.765512228012085  0.9108280539512634  1.0000
  Pb  Pb1       1.0  0.7931057810783386  0.8606004118919373  0.09357487410306932  1.0000
  Pb  Pb2       1.0  0.7787657380104065  0.13925933837890625  0.9269855618476868  1.0000
  Pb  Pb3       1.0  0.28717949986457825  0.888298273086548  0.5245992541313171  1.0000
  Pt  Pt1       1.0  0.3126429617404938  0.7879021167755127  0.5182090401649475  1.0000
