data_image0
_chemical_formula_structural       As2P5Pb2Ru2Zr
_chemical_formula_sum              "As2 P5 Pb2 Ru2 Zr1"
_cell_length_a       6.41808880676952
_cell_length_b       8.060708891501305
_cell_length_c       8.576900482177734
_cell_angle_alpha    117.0058323135059
_cell_angle_beta     107.73300120055688
_cell_angle_gamma    90.45404026396533

_space_group_name_H-M_alt    "P 1"
_space_group_IT_number       1

loop_
  _space_group_symop_operation_xyz
  'x, y, z'

loop_
  _atom_site_type_symbol
  _atom_site_label
  _atom_site_symmetry_multiplicity
  _atom_site_fract_x
  _atom_site_fract_y
  _atom_site_fract_z
  _atom_site_occupancy
  As  As1       1.0  0.916902244091034  0.6085474491119385  0.282431036233902  1.0000
  As  As2       1.0  0.20651786029338837  0.9543761014938354  0.07198197394609451  1.0000
  P   P1        1.0  0.24446409940719607  0.4291553497314453  0.6689477562904358  1.0000
  P   P2        1.0  0.7281734347343445  0.0792066752910614  0.5090628862380981  1.0000
  P   P3        1.0  0.9781591892242433  0.1302161067724228  0.8079955577850342  1.0000
  P   P4        1.0  0.49522590637207037  0.9460785388946533  0.1301407366991043  1.0000
  P   P5        1.0  0.7255427241325378  0.036053139716386795  0.717079222202301  1.0000
  Pb  Pb1       1.0  0.5180532932281494  0.4729493260383606  0.44037073850631714  1.0000
  Pb  Pb2       1.0  0.7198324799537659  0.9195381999015808  0.777209997177124  1.0000
  Ru  Ru1       1.0  0.22871057689189914  0.9061434864997864  0.7059580087661743  1.0000
  Ru  Ru2       1.0  0.7198638319969177  0.7029733657836914  0.17219668626785273  1.0000
  Zr  Zr1       1.0  0.7329440116882324  0.3031274378299713  0.5295172333717346  1.0000
