data_image0
_chemical_formula_structural       CoLuP5Pb2Ru2Sm
_chemical_formula_sum              "Co1 Lu1 P5 Pb2 Ru2 Sm1"
_cell_length_a       5.107201917143219
_cell_length_b       7.544195866667578
_cell_length_c       9.228446006774902
_cell_angle_alpha    94.12705082024692
_cell_angle_beta     98.1923163472154
_cell_angle_gamma    89.60284113253049

_space_group_name_H-M_alt    "P 1"
_space_group_IT_number       1

loop_
  _space_group_symop_operation_xyz
  'x, y, z'

loop_
  _atom_site_type_symbol
  _atom_site_label
  _atom_site_symmetry_multiplicity
  _atom_site_fract_x
  _atom_site_fract_y
  _atom_site_fract_z
  _atom_site_occupancy
  Co  Co1       1.0  0.4096783697605133  0.9829617142677306  0.6458542346954346  1.0000
  Lu  Lu1       1.0  0.413688063621521  0.3265452682971954  0.6155171394348145  1.0000
  P   P1        1.0  0.9111170768737793  0.3598827719688415  0.014908683486282813  1.0000
  P   P2        1.0  0.9149215221405029  0.36935982108116144  0.5575286149978638  1.0000
  P   P3        1.0  0.40677741169929504  0.41833087801933283  0.3237495720386505  1.0000
  P   P4        1.0  0.4271314740180969  0.14004820585250854  0.9960910081863403  1.0000
  P   P5        1.0  0.9320772290229797  0.7953799962997435  0.10542450845241547  1.0000
  Pb  Pb1       1.0  0.9095225930213928  0.7462705373764037  0.3239839971065521  1.0000
  Pb  Pb2       1.0  0.9200789928436279  0.3479688167572021  0.0016681108390912292  1.0000
  Ru  Ru1       1.0  0.9086449146270752  0.6308051943778991  0.8046143651008606  1.0000
  Ru  Ru2       1.0  0.4076223373413086  0.48460820317268366  0.5506278276443481  1.0000
  Sm  Sm1       1.0  0.4216183125972748  0.7909323573112487  0.9582170844078064  1.0000
