data_image0
_chemical_formula_structural       P3Ru9
_chemical_formula_sum              "P3 Ru9"
_cell_length_a       5.569935322657803
_cell_length_b       5.492829324131601
_cell_length_c       7.488697528839111
_cell_angle_alpha    118.06739610174498
_cell_angle_beta     92.482540341169
_cell_angle_gamma    116.0003994714475

_space_group_name_H-M_alt    "P 1"
_space_group_IT_number       1

loop_
  _space_group_symop_operation_xyz
  'x, y, z'

loop_
  _atom_site_type_symbol
  _atom_site_label
  _atom_site_symmetry_multiplicity
  _atom_site_fract_x
  _atom_site_fract_y
  _atom_site_fract_z
  _atom_site_occupancy
  P   P1        1.0  0.020390920341014862  0.5421412587165833  0.15774905681610107  1.0000
  P   P2        1.0  0.7284592390060425  0.6248362064361572  0.1813168674707413  1.0000
  P   P3        1.0  0.9330587387084961  0.6476491689682007  0.40261596441268926  1.0000
  Ru  Ru1       1.0  0.4087686538696289  0.5317271947860718  0.3830880820751191  1.0000
  Ru  Ru2       1.0  0.40692850947380066  0.11947420984506607  0.643850564956665  1.0000
  Ru  Ru3       1.0  0.5963069200515747  0.9531726837158203  0.8904347419738771  1.0000
  Ru  Ru4       1.0  0.9040043354034424  0.8323283195495605  0.34462845325469965  1.0000
  Ru  Ru5       1.0  0.25501829385757446  0.5911862850189209  0.5850525498390198  1.0000
  Ru  Ru6       1.0  0.5531753897666931  0.4955514073371887  0.02840574271976948  1.0000
  Ru  Ru7       1.0  0.11449705064296722  0.30115485191345215  0.6069352626800537  1.0000
  Ru  Ru8       1.0  0.10429065674543381  0.889536440372467  0.07493234425783164  1.0000
  Ru  Ru9       1.0  0.9015474915504456  0.34234383702278137  0.3138524889945984  1.0000
