data_image0
_chemical_formula_structural       As2P4PdRu2SnTiZr
_chemical_formula_sum              "As2 P4 Pd1 Ru2 Sn1 Ti1 Zr1"
_cell_length_a       4.903517118051245
_cell_length_b       5.035420085874873
_cell_length_c       6.2037787437438965
_cell_angle_alpha    96.15140452583934
_cell_angle_beta     94.07845285683258
_cell_angle_gamma    104.23180853527026

_space_group_name_H-M_alt    "P 1"
_space_group_IT_number       1

loop_
  _space_group_symop_operation_xyz
  'x, y, z'

loop_
  _atom_site_type_symbol
  _atom_site_label
  _atom_site_symmetry_multiplicity
  _atom_site_fract_x
  _atom_site_fract_y
  _atom_site_fract_z
  _atom_site_occupancy
  As  As1       1.0  0.9861542582511902  0.07067915797233582  0.5376923680305481  1.0000
  As  As2       1.0  0.42551589012145996  0.5838606953620911  0.22994339466094968  1.0000
  P   P1        1.0  0.6182847619056702  0.4588765501976013  0.26929399371147156  1.0000
  P   P2        1.0  0.4744654893875122  0.7577477693557739  0.7029225826263428  1.0000
  P   P3        1.0  0.7680336236953735  0.13141661882400513  0.14924302697181702  1.0000
  P   P4        1.0  0.1645406186580658  0.5755876898765564  0.14805835485458374  1.0000
  Pd  Pd1       1.0  0.3196304440498352  0.9191555380821228  0.1180741861462593  1.0000
  Ru  Ru1       1.0  0.831294059753418  0.8057676553726196  0.14888007938861847  1.0000
  Ru  Ru2       1.0  0.0692073404788971  0.28613996505737305  0.9783355593681334  1.0000
  Sn  Sn1       1.0  0.018606528639793396  0.22169244289398193  0.39685216546058655  1.0000
  Ti  Ti1       1.0  0.6331579685211182  0.10915132611989975  0.06988354027271271  1.0000
  Zr  Zr1       1.0  0.9901229739189148  0.7844838500022888  0.008828689344227314  1.0000
