data_image0
_chemical_formula_structural       P4Ru8
_chemical_formula_sum              "P4 Ru8"
_cell_length_a       5.127713742882438
_cell_length_b       6.577466680183859
_cell_length_c       7.102234840393066
_cell_angle_alpha    118.81619857364886
_cell_angle_beta     90.87958105328698
_cell_angle_gamma    92.14584918906357

_space_group_name_H-M_alt    "P 1"
_space_group_IT_number       1

loop_
  _space_group_symop_operation_xyz
  'x, y, z'

loop_
  _atom_site_type_symbol
  _atom_site_label
  _atom_site_symmetry_multiplicity
  _atom_site_fract_x
  _atom_site_fract_y
  _atom_site_fract_z
  _atom_site_occupancy
  P   P1        1.0  0.06249919161200523  0.16308867931365967  0.68531733751297  1.0000
  P   P2        1.0  0.2623478174209595  0.20305503904819489  0.42750892043113714  1.0000
  P   P3        1.0  0.8001127243041992  0.04932771250605583  0.726322591304779  1.0000
  P   P4        1.0  0.5351451635360718  0.7974084615707397  0.7440832853317262  1.0000
  Ru  Ru1       1.0  0.5280604958534241  0.9604213237762451  0.4492595195770265  1.0000
  Ru  Ru2       1.0  0.8072280883789062  0.318795770406723  0.7668693065643312  1.0000
  Ru  Ru3       1.0  0.291886568069458  0.18568500876426697  0.4395808875560761  1.0000
  Ru  Ru4       1.0  0.7856147885322571  0.6877329349517822  0.666242778301239  1.0000
  Ru  Ru5       1.0  0.2774125337600708  0.187992125749588  0.035193730145692846  1.0000
  Ru  Ru6       1.0  0.8149915337562561  0.8616329431533813  0.8503857254981996  1.0000
  Ru  Ru7       1.0  0.7717429399490356  0.5929837822914124  0.06893093883991246  1.0000
  Ru  Ru8       1.0  0.29649627208709717  0.7228268384933472  0.390252321958542  1.0000
