data_image0
_chemical_formula_structural       CsDyI3K2PSZn
_chemical_formula_sum              "Cs1 Dy1 I3 K2 P1 S1 Zn1"
_cell_length_a       6.064833713116214
_cell_length_b       9.243475745050642
_cell_length_c       9.165335655212402
_cell_angle_alpha    121.81771642772657
_cell_angle_beta     89.19602014928303
_cell_angle_gamma    90.17741170855011

_space_group_name_H-M_alt    "P 1"
_space_group_IT_number       1

loop_
  _space_group_symop_operation_xyz
  'x, y, z'

loop_
  _atom_site_type_symbol
  _atom_site_label
  _atom_site_symmetry_multiplicity
  _atom_site_fract_x
  _atom_site_fract_y
  _atom_site_fract_z
  _atom_site_occupancy
  Cs  Cs1       1.0  0.5088114738464355  0.6201140880584717  0.1593677550554275  1.0000
  Dy  Dy1       1.0  0.5215286016464233  0.6712979078292846  0.5150219798088074  1.0000
  I   I1        1.0  0.015780944377183914  0.9360009431838988  0.47598183155059814  1.0000
  I   I2        1.0  0.010137819685041904  0.39813745021820063  0.5692384839057922  1.0000
  I   I3        1.0  0.016859952360391617  0.627626597881317  0.7254711985588074  1.0000
  K   K1        1.0  0.014441796578466892  0.074551522731781  0.19265098869800568  1.0000
  K   K2        1.0  0.514879047870636  0.0368012860417366  0.20018556714057922  1.0000
  P   P1        1.0  0.9966824650764468  0.44782873988151545  0.20134122669696802  1.0000
  S   S1        1.0  0.5162590146064759  0.08422468602657317  0.3081982135772705  1.0000
  Zn  Zn1       1.0  0.00938316248357296  0.04104464128613471  0.4728275239467621  1.0000
