data_image0
_chemical_formula_structural       CoDy2I3K2PS
_chemical_formula_sum              "Co1 Dy2 I3 K2 P1 S1"
_cell_length_a       5.726971201758785
_cell_length_b       7.470364774288915
_cell_length_c       8.780908584594727
_cell_angle_alpha    94.28178626368775
_cell_angle_beta     90.00774434953405
_cell_angle_gamma    89.94545339722846

_space_group_name_H-M_alt    "P 1"
_space_group_IT_number       1

loop_
  _space_group_symop_operation_xyz
  'x, y, z'

loop_
  _atom_site_type_symbol
  _atom_site_label
  _atom_site_symmetry_multiplicity
  _atom_site_fract_x
  _atom_site_fract_y
  _atom_site_fract_z
  _atom_site_occupancy
  Co  Co1       1.0  0.5393139123916626  0.5329727530479431  0.6052843928337097  1.0000
  Dy  Dy1       1.0  0.04952683672308922  0.7909665107727051  0.7974574565887451  1.0000
  Dy  Dy2       1.0  0.6306480765342712  0.2764337360858917  0.5993439555168152  1.0000
  I   I1        1.0  0.9009022116661072  0.9296475052833557  0.11007224768400192  1.0000
  I   I2        1.0  0.040674787014722824  0.4951038360595703  0.3461707830429077  1.0000
  I   I3        1.0  0.5492029786109924  0.5273398160934448  0.47245854139328003  1.0000
  K   K1        1.0  0.4134172201156616  0.05018667131662369  0.8960769772529602  1.0000
  K   K2        1.0  0.9263827204704285  0.2412114143371582  0.10306631028652191  1.0000
  P   P1        1.0  0.4013288617134094  0.9302148222923279  0.09652624279260634  1.0000
  S   S1        1.0  0.22049610316753387  0.8751248717308044  0.5960426330566406  1.0000
