data_image0
_chemical_formula_structural       DyI4K2PS2
_chemical_formula_sum              "Dy1 I4 K2 P1 S2"
_cell_length_a       7.577173714840887
_cell_length_b       8.30420970682668
_cell_length_c       9.075257301330566
_cell_angle_alpha    116.38982933353894
_cell_angle_beta     112.79368687773889
_cell_angle_gamma    89.53941166028604

_space_group_name_H-M_alt    "P 1"
_space_group_IT_number       1

loop_
  _space_group_symop_operation_xyz
  'x, y, z'

loop_
  _atom_site_type_symbol
  _atom_site_label
  _atom_site_symmetry_multiplicity
  _atom_site_fract_x
  _atom_site_fract_y
  _atom_site_fract_z
  _atom_site_occupancy
  Dy  Dy1       1.0  0.1576477438211441  0.3463836312294007  0.9789927005767822  1.0000
  I   I1        1.0  0.6411267518997192  0.34622430801391607  0.8481117486953735  1.0000
  I   I2        1.0  0.9569694995880127  0.8827327489852906  0.4266924560070038  1.0000
  I   I3        1.0  0.3501041531562805  0.07851523160934448  0.3573473393917084  1.0000
  I   I4        1.0  0.4452299177646637  0.35593691468238836  0.4797948896884918  1.0000
  K   K1        1.0  0.786827027797699  0.5609028339385986  0.006563730537891486  1.0000
  K   K2        1.0  0.692017138004303  0.3445734381675721  0.4868912398815155  1.0000
  P   P1        1.0  0.13287243247032168  0.6791781783103944  0.46704304218292236  1.0000
  S   S1        1.0  0.6562720537185669  0.15636782348155975  0.8667275309562683  1.0000
  S   S2        1.0  0.2795415818691254  0.7109626531600953  0.008785376325249769  1.0000
