data_image0
_chemical_formula_structural       Dy2I3KLaMnSTa
_chemical_formula_sum              "Dy2 I3 K1 La1 Mn1 S1 Ta1"
_cell_length_a       7.3831812772633825
_cell_length_b       7.684690958758335
_cell_length_c       7.888108730316162
_cell_angle_alpha    110.82709603852311
_cell_angle_beta     109.67866638728117
_cell_angle_gamma    104.18746066652169

_space_group_name_H-M_alt    "P 1"
_space_group_IT_number       1

loop_
  _space_group_symop_operation_xyz
  'x, y, z'

loop_
  _atom_site_type_symbol
  _atom_site_label
  _atom_site_symmetry_multiplicity
  _atom_site_fract_x
  _atom_site_fract_y
  _atom_site_fract_z
  _atom_site_occupancy
  Dy  Dy1       1.0  0.4932920038700103  0.16712388396263123  0.594956338405609  1.0000
  Dy  Dy2       1.0  0.503747284412384  0.8515791296958923  0.17143553495407113  1.0000
  I   I1        1.0  0.6600460410118103  0.8669885396957397  0.7487775087356567  1.0000
  I   I2        1.0  0.7520302534103394  0.17923374474048615  0.4007394909858703  1.0000
  I   I3        1.0  0.47295072674751276  0.4522304832935333  0.8897731900215148  1.0000
  K   K1        1.0  0.10970985889434813  0.3529464304447174  0.03015895560383802  1.0000
  La  La1       1.0  0.25164738297462463  0.5523759126663208  0.1973119825124741  1.0000
  Mn  Mn1       1.0  0.11230263859033583  0.8559398055076599  0.6010891199111938  1.0000
  S   S1        1.0  0.9123560190200805  0.9716857671737671  0.7428984045982361  1.0000
  Ta  Ta1       1.0  0.7791053056716919  0.46076422929763794  0.6125579476356505  1.0000
