data_image0
_chemical_formula_structural       Dy2Fe2I4KLa
_chemical_formula_sum              "Dy2 Fe2 I4 K1 La1"
_cell_length_a       6.747077622627233
_cell_length_b       8.84034493586494
_cell_length_c       8.962644577026367
_cell_angle_alpha    120.63145654704832
_cell_angle_beta     88.81928153068804
_cell_angle_gamma    89.2662563228268

_space_group_name_H-M_alt    "P 1"
_space_group_IT_number       1

loop_
  _space_group_symop_operation_xyz
  'x, y, z'

loop_
  _atom_site_type_symbol
  _atom_site_label
  _atom_site_symmetry_multiplicity
  _atom_site_fract_x
  _atom_site_fract_y
  _atom_site_fract_z
  _atom_site_occupancy
  Dy  Dy1       1.0  0.01943242736160755  0.6127235293388367  0.01939062587916851  1.0000
  Dy  Dy2       1.0  0.5214200615882874  0.6166364550590515  0.90470951795578  1.0000
  Fe  Fe1       1.0  0.7099723219871521  0.8841105103492737  0.14988024532794952  1.0000
  Fe  Fe2       1.0  0.21686099469661713  0.25945228338241577  0.10244422405958176  1.0000
  I   I1        1.0  0.020666727796196938  0.8611555099487305  0.15131251513957977  1.0000
  I   I2        1.0  0.5169749855995178  0.6283274292945862  0.271860808134079  1.0000
  I   I3        1.0  0.5001872777938843  0.12323938310146332  0.6677762269973755  1.0000
  I   I4        1.0  0.7664384245872498  0.15703102946281433  0.30767232179641724  1.0000
  K   K1        1.0  0.23240959644317627  0.6001207828521729  0.686805248260498  1.0000
  La  La1       1.0  0.02257896400988102  0.10321933776140213  0.5684805512428284  1.0000
