data_image0
_chemical_formula_structural       Dy2I3KP2SSc
_chemical_formula_sum              "Dy2 I3 K1 P2 S1 Sc1"
_cell_length_a       5.782985552803353
_cell_length_b       8.610174367047835
_cell_length_c       8.399839401245117
_cell_angle_alpha    121.67918874548991
_cell_angle_beta     88.97076016830187
_cell_angle_gamma    88.7871667080928

_space_group_name_H-M_alt    "P 1"
_space_group_IT_number       1

loop_
  _space_group_symop_operation_xyz
  'x, y, z'

loop_
  _atom_site_type_symbol
  _atom_site_label
  _atom_site_symmetry_multiplicity
  _atom_site_fract_x
  _atom_site_fract_y
  _atom_site_fract_z
  _atom_site_occupancy
  Dy  Dy1       1.0  0.8979786038398742  0.6341881155967712  0.40096566081047064  1.0000
  Dy  Dy2       1.0  0.6450284123420715  0.6279585361480713  0.8873180150985718  1.0000
  I   I1        1.0  0.9005323648452758  0.29401466250419617  0.22720904648303986  1.0000
  I   I2        1.0  0.3994414210319519  0.3721482455730438  0.0061619216576218605  1.0000
  I   I3        1.0  0.388231098651886  0.6967701315879822  0.9808177947998047  1.0000
  K   K1        1.0  0.40454289317131037  0.3218919038772583  0.29238298535346985  1.0000
  P   P1        1.0  0.8989304304122924  0.0013186900177970529  0.655033528804779  1.0000
  P   P2        1.0  0.9049645662307738  0.11252308636903763  0.9016578197479248  1.0000
  S   S1        1.0  0.892037272453308  0.9256571531295777  0.5432033538818359  1.0000
  Sc  Sc1       1.0  0.3982268273830414  0.9040289521217346  0.15833550691604625  1.0000
