data_image0
_chemical_formula_structural       GeO2Os2Si4Zn
_chemical_formula_sum              "Ge1 O2 Os2 Si4 Zn1"
_cell_length_a       5.565604119181894
_cell_length_b       5.321280826957421
_cell_length_c       5.596149921417236
_cell_angle_alpha    58.916134808419784
_cell_angle_beta     63.255749950187095
_cell_angle_gamma    64.51184741063344

_space_group_name_H-M_alt    "P 1"
_space_group_IT_number       1

loop_
  _space_group_symop_operation_xyz
  'x, y, z'

loop_
  _atom_site_type_symbol
  _atom_site_label
  _atom_site_symmetry_multiplicity
  _atom_site_fract_x
  _atom_site_fract_y
  _atom_site_fract_z
  _atom_site_occupancy
  Ge  Ge1       1.0  0.17997346818447113  0.7899808287620544  0.19150550663471222  1.0000
  O   O1        1.0  0.14994487166404724  0.1089460626244545  0.7859312891960144  1.0000
  O   O2        1.0  0.6547030210494995  0.5891044735908508  0.2362232506275177  1.0000
  Os  Os1       1.0  0.7304852604866028  0.5747087597846985  0.3277475833892822  1.0000
  Os  Os2       1.0  0.9470391273498535  0.13026085495948792  0.5075485706329346  1.0000
  Si  Si1       1.0  0.3941391706466675  0.6877506375312805  0.6152656078338623  1.0000
  Si  Si2       1.0  0.242564857006073  0.977637767791748  0.6567997336387634  1.0000
  Si  Si3       1.0  0.7211058735847473  0.04956384003162384  0.49253320693969727  1.0000
  Si  Si4       1.0  0.5995995998382568  0.6085679531097412  0.7220405340194702  1.0000
  Zn  Zn1       1.0  0.19059324264526367  0.5944888591766357  0.31201812624931335  1.0000
