data_image0
_chemical_formula_structural       CsLaNa3OSi4
_chemical_formula_sum              "Cs1 La1 Na3 O1 Si4"
_cell_length_a       6.704131300889848
_cell_length_b       6.908976634287179
_cell_length_c       7.4150896072387695
_cell_angle_alpha    62.108767717171624
_cell_angle_beta     63.15216462259655
_cell_angle_gamma    62.86474155151019

_space_group_name_H-M_alt    "P 1"
_space_group_IT_number       1

loop_
  _space_group_symop_operation_xyz
  'x, y, z'

loop_
  _atom_site_type_symbol
  _atom_site_label
  _atom_site_symmetry_multiplicity
  _atom_site_fract_x
  _atom_site_fract_y
  _atom_site_fract_z
  _atom_site_occupancy
  Cs  Cs1       1.0  0.5077795386314392  0.2582085132598877  0.623682141304016  1.0000
  La  La1       1.0  0.6030107736587524  0.40762490034103394  0.1746576279401779  1.0000
  Na  Na1       1.0  0.1818041056394577  0.8737379908561707  0.11489480733871453  1.0000
  Na  Na2       1.0  0.37589317560195923  0.8328843712806702  0.9132218360900878  1.0000
  Na  Na3       1.0  0.12163252383470535  0.5934561491012573  0.3922371864318847  1.0000
  O   O1        1.0  0.03936609998345375  0.805102527141571  0.9850963950157164  1.0000
  Si  Si1       1.0  0.19660989940166473  0.4587216079235077  0.860722780227661  1.0000
  Si  Si2       1.0  0.1919979304075241  0.9742705821990967  0.6929998993873595  1.0000
  Si  Si3       1.0  0.6173946857452393  0.11602959036827087  0.8172516226768493  1.0000
  Si  Si4       1.0  0.698255717754364  0.5456238389015198  0.4672667682170867  1.0000
