data_image0
_chemical_formula_structural       Na2O3Si5
_chemical_formula_sum              "Na2 O3 Si5"
_cell_length_a       4.2649789858265486
_cell_length_b       4.484578871006606
_cell_length_c       4.332200527191162
_cell_angle_alpha    90.43041852795744
_cell_angle_beta     84.030513697001
_cell_angle_gamma    88.51988416900893

_space_group_name_H-M_alt    "P 1"
_space_group_IT_number       1

loop_
  _space_group_symop_operation_xyz
  'x, y, z'

loop_
  _atom_site_type_symbol
  _atom_site_label
  _atom_site_symmetry_multiplicity
  _atom_site_fract_x
  _atom_site_fract_y
  _atom_site_fract_z
  _atom_site_occupancy
  Na  Na1       1.0  0.45584478974342346  0.46465450525283813  0.5013934373855591  1.0000
  Na  Na2       1.0  0.19245094060897827  0.5635082721710205  0.4879574775695801  1.0000
  O   O1        1.0  0.8204225301742554  0.6660759449005127  0.8641894459724426  1.0000
  O   O2        1.0  0.044018980115652084  0.5923421382904053  0.6108974814414978  1.0000
  O   O3        1.0  0.45322829484939575  0.431551069021225  0.2952899932861328  1.0000
  Si  Si1       1.0  0.24071112275123596  0.3202493488788605  0.6824615597724915  1.0000
  Si  Si2       1.0  0.43255138397216797  0.18970802426338196  0.14273260533809662  1.0000
  Si  Si3       1.0  0.7494926452636719  0.7219899296760559  0.7048273086547852  1.0000
  Si  Si4       1.0  0.8455008864402771  0.41455861926078796  0.7970678210258484  1.0000
  Si  Si5       1.0  0.22987045347690582  0.12714159488677979  0.37643226981163025  1.0000
