data_image0
_chemical_formula_structural       Na2O2Si6
_chemical_formula_sum              "Na2 O2 Si6"
_cell_length_a       4.176394358344252
_cell_length_b       4.208986543164861
_cell_length_c       5.723438262939453
_cell_angle_alpha    99.55118645652594
_cell_angle_beta     89.09201295237078
_cell_angle_gamma    89.88101405198363

_space_group_name_H-M_alt    "P 1"
_space_group_IT_number       1

loop_
  _space_group_symop_operation_xyz
  'x, y, z'

loop_
  _atom_site_type_symbol
  _atom_site_label
  _atom_site_symmetry_multiplicity
  _atom_site_fract_x
  _atom_site_fract_y
  _atom_site_fract_z
  _atom_site_occupancy
  Na  Na1       1.0  0.9133185744285583  0.4806059002876282  0.7187865376472473  1.0000
  Na  Na2       1.0  0.9391418695449829  0.14671440422534943  0.5524376034736633  1.0000
  O   O1        1.0  0.41694706678390503  0.3569309115409851  0.7150656580924988  1.0000
  O   O2        1.0  0.41877782344818115  0.6662420630455017  0.5443362593650818  1.0000
  Si  Si1       1.0  0.9207759499549866  0.190886452794075  0.8843550682067871  1.0000
  Si  Si2       1.0  0.9196221828460693  0.44700345396995544  0.8688081502914429  1.0000
  Si  Si3       1.0  0.42908158898353577  0.7026544213294983  0.7895357608795166  1.0000
  Si  Si4       1.0  0.9344615936279297  0.8745027780532837  0.5318447947502136  1.0000
  Si  Si5       1.0  0.4233459234237671  0.3779110014438629  0.5856068134307861  1.0000
  Si  Si6       1.0  0.4321650564670563  0.744725227355957  0.4534221589565277  1.0000
