data_image0
_chemical_formula_structural       GeNa2O3Si4
_chemical_formula_sum              "Ge1 Na2 O3 Si4"
_cell_length_a       5.42871676612705
_cell_length_b       5.586191692603611
_cell_length_c       6.544650077819824
_cell_angle_alpha    90.56232378412555
_cell_angle_beta     86.90638655280459
_cell_angle_gamma    90.11515507254566

_space_group_name_H-M_alt    "P 1"
_space_group_IT_number       1

loop_
  _space_group_symop_operation_xyz
  'x, y, z'

loop_
  _atom_site_type_symbol
  _atom_site_label
  _atom_site_symmetry_multiplicity
  _atom_site_fract_x
  _atom_site_fract_y
  _atom_site_fract_z
  _atom_site_occupancy
  Ge  Ge1       1.0  0.36393409967422485  0.416485995054245  0.6808856725692749  1.0000
  Na  Na1       1.0  0.35960355401039124  0.7532159686088562  0.667924702167511  1.0000
  Na  Na2       1.0  0.8700677752494812  0.1965295821428299  0.16419704258441925  1.0000
  O   O1        1.0  0.4098988175392151  0.595843493938446  0.4203222393989563  1.0000
  O   O2        1.0  0.3910398483276367  0.2889895737171173  0.16973310708999634  1.0000
  O   O3        1.0  0.6839370727539062  0.9582797884941101  0.07840973883867264  1.0000
  Si  Si1       1.0  0.8399463891983032  0.11873504519462585  0.19575129449367523  1.0000
  Si  Si2       1.0  0.3361774682998657  0.8193429112434387  0.7818002104759216  1.0000
  Si  Si3       1.0  0.3418090343475342  0.3461739420890808  0.044029396027326584  1.0000
  Si  Si4       1.0  0.3199915587902069  0.12863624095916748  0.2170126736164093  1.0000
