data_image0
_chemical_formula_structural       O4SeSi5
_chemical_formula_sum              "O4 Se1 Si5"
_cell_length_a       4.991973077220848
_cell_length_b       5.0024746033131215
_cell_length_c       6.12309455871582
_cell_angle_alpha    62.090996393255345
_cell_angle_beta     63.47389948768053
_cell_angle_gamma    74.3202329973255

_space_group_name_H-M_alt    "P 1"
_space_group_IT_number       1

loop_
  _space_group_symop_operation_xyz
  'x, y, z'

loop_
  _atom_site_type_symbol
  _atom_site_label
  _atom_site_symmetry_multiplicity
  _atom_site_fract_x
  _atom_site_fract_y
  _atom_site_fract_z
  _atom_site_occupancy
  O   O1        1.0  0.7533938884735107  0.8475998640060425  0.6803308129310608  1.0000
  O   O2        1.0  0.11783822625875473  0.7797958254814148  0.29242897033691406  1.0000
  O   O3        1.0  0.2596858739852905  0.6398130059242249  0.5030508041381836  1.0000
  O   O4        1.0  0.24366655945777893  0.637904167175293  0.02947927638888359  1.0000
  Se  Se1       1.0  0.2709912359714508  0.29792144894599915  0.8234862685203552  1.0000
  Si  Si1       1.0  0.6476197242736816  0.8747879862785339  0.363698273897171  1.0000
  Si  Si2       1.0  0.9538971781730652  0.5268259048461914  0.3289852440357208  1.0000
  Si  Si3       1.0  0.5579020380973816  0.06870400905609131  0.040072571486234665  1.0000
  Si  Si4       1.0  0.720768928527832  0.41722941398620605  0.139905646443367  1.0000
  Si  Si5       1.0  0.7589602470397949  0.09906000643968582  0.005768196657299959  1.0000
