data_image0
_chemical_formula_structural       Er3IP2Pt2Se2Si
_chemical_formula_sum              "Er3 I1 P2 Pt2 Se2 Si1"
_cell_length_a       4.293472515222886
_cell_length_b       7.4978538822657175
_cell_length_c       8.68177604675293
_cell_angle_alpha    99.99956847142991
_cell_angle_beta     95.70560364405179
_cell_angle_gamma    89.78025140594221

_space_group_name_H-M_alt    "P 1"
_space_group_IT_number       1

loop_
  _space_group_symop_operation_xyz
  'x, y, z'

loop_
  _atom_site_type_symbol
  _atom_site_label
  _atom_site_symmetry_multiplicity
  _atom_site_fract_x
  _atom_site_fract_y
  _atom_site_fract_z
  _atom_site_occupancy
  Er  Er1       1.0  0.9109032154083252  0.8298967480659484  0.2980387806892395  1.0000
  Er  Er2       1.0  0.41480058431625366  0.532228946685791  0.6207056641578674  1.0000
  Er  Er3       1.0  0.5098792910575867  0.27139341831207275  0.858135998249054  1.0000
  I   I1        1.0  0.6965652108192444  0.9988014101982116  0.40204861760139465  1.0000
  P   P1        1.0  0.45821788907051086  0.7893099784851073  0.3776712119579315  1.0000
  P   P2        1.0  0.9781460165977478  0.7525991797447205  0.8486676216125488  1.0000
  Pt  Pt1       1.0  0.5125320553779602  0.23952718079090116  0.8134604096412659  1.0000
  Pt  Pt2       1.0  0.15919414162635803  0.7780623435974121  0.90428626537323  1.0000
  Se  Se1       1.0  0.3366754949092865  0.2852800488471985  0.3818795680999756  1.0000
  Se  Se2       1.0  0.969147264957428  0.30561456084251404  0.9173107743263245  1.0000
  Si  Si1       1.0  0.20288032293319702  0.0030318498611450195  0.4575822055339813  1.0000
