data_image0
_chemical_formula_structural       Er3LuNiPbPrPt3Se
_chemical_formula_sum              "Er3 Lu1 Ni1 Pb1 Pr1 Pt3 Se1"
_cell_length_a       5.080746291896616
_cell_length_b       5.801174565348354
_cell_length_c       7.579751014709473
_cell_angle_alpha    89.38353167572835
_cell_angle_beta     89.36797892087915
_cell_angle_gamma    114.35444079157725

_space_group_name_H-M_alt    "P 1"
_space_group_IT_number       1

loop_
  _space_group_symop_operation_xyz
  'x, y, z'

loop_
  _atom_site_type_symbol
  _atom_site_label
  _atom_site_symmetry_multiplicity
  _atom_site_fract_x
  _atom_site_fract_y
  _atom_site_fract_z
  _atom_site_occupancy
  Er  Er1       1.0  0.26235726475715637  0.45976996421813965  0.6799789071083068  1.0000
  Er  Er2       1.0  0.582059919834137  0.21624521911144257  0.5225312113761902  1.0000
  Er  Er3       1.0  0.8084806203842163  0.5317149758338928  0.21060328185558316  1.0000
  Lu  Lu1       1.0  0.7546523809432983  0.8045357465744019  0.7629352211952208  1.0000
  Ni  Ni1       1.0  0.2275848686695099  0.8022269606590271  0.6875531077384948  1.0000
  Pb  Pb1       1.0  0.8578585982322693  0.3677767515182495  0.45654273033142084  1.0000
  Pr  Pr1       1.0  0.32661083340644836  0.2736423909664154  0.796862244606018  1.0000
  Pt  Pt1       1.0  0.021522650495171547  0.08670125156641006  0.02370817586779594  1.0000
  Pt  Pt2       1.0  0.09338852763175964  0.7798668742179871  0.9544187784194945  1.0000
  Pt  Pt3       1.0  0.2595062255859375  0.47484326362609863  0.19013345241546628  1.0000
  Se  Se1       1.0  0.6377602815628052  0.8860394358634949  0.2780020534992218  1.0000
