data_image0
_chemical_formula_structural       In3Pt7S
_chemical_formula_sum              "In3 Pt7 S1"
_cell_length_a       5.112259044936402
_cell_length_b       7.519812481167814
_cell_length_c       7.192509174346924
_cell_angle_alpha    123.79424021010847
_cell_angle_beta     89.63774998965022
_cell_angle_gamma    87.82262861928466

_space_group_name_H-M_alt    "P 1"
_space_group_IT_number       1

loop_
  _space_group_symop_operation_xyz
  'x, y, z'

loop_
  _atom_site_type_symbol
  _atom_site_label
  _atom_site_symmetry_multiplicity
  _atom_site_fract_x
  _atom_site_fract_y
  _atom_site_fract_z
  _atom_site_occupancy
  In  In1       1.0  0.3549073040485382  0.8707654476165771  0.5646350979804993  1.0000
  In  In2       1.0  0.356588751077652  0.6482666730880737  0.8654339909553528  1.0000
  In  In3       1.0  0.36121633648872375  0.7041146755218506  0.07631056010723114  1.0000
  Pt  Pt1       1.0  0.8593369126319885  0.8479417562484741  0.3070664703845978  1.0000
  Pt  Pt2       1.0  0.35645830631256104  0.5906392335891724  0.4779967367649079  1.0000
  Pt  Pt3       1.0  0.8544285893440247  0.725804328918457  0.1318952590227127  1.0000
  Pt  Pt4       1.0  0.8584442138671875  0.14466558396816254  0.4425897896289825  1.0000
  Pt  Pt5       1.0  0.35266074538230896  0.13756971061229706  0.08514975011348724  1.0000
  Pt  Pt6       1.0  0.8570727109909058  0.21075204014778137  0.17878027260303497  1.0000
  Pt  Pt7       1.0  0.863408088684082  0.6014505624771118  0.5467573404312134  1.0000
  S   S1        1.0  0.8571852445602417  0.36057430505752563  0.36950963735580444  1.0000
