data_image0
_chemical_formula_structural       BaIn3Pt6Se
_chemical_formula_sum              "Ba1 In3 Pt6 Se1"
_cell_length_a       4.951100291635661
_cell_length_b       7.6163739406129105
_cell_length_c       7.60575532913208
_cell_angle_alpha    122.69921037982517
_cell_angle_beta     90.10020301000301
_cell_angle_gamma    89.73875764209315

_space_group_name_H-M_alt    "P 1"
_space_group_IT_number       1

loop_
  _space_group_symop_operation_xyz
  'x, y, z'

loop_
  _atom_site_type_symbol
  _atom_site_label
  _atom_site_symmetry_multiplicity
  _atom_site_fract_x
  _atom_site_fract_y
  _atom_site_fract_z
  _atom_site_occupancy
  Ba  Ba1       1.0  0.35925793647766113  0.04149152711033821  0.33700674772262573  1.0000
  In  In1       1.0  0.35292068123817444  0.35875076055526733  0.8948794603347778  1.0000
  In  In2       1.0  0.342447429895401  0.4186002314090728  0.9492282271385193  1.0000
  In  In3       1.0  0.850973069667816  0.9724817276000975  0.66050124168396  1.0000
  Pt  Pt1       1.0  0.8500013351440431  0.8171945214271544  0.700339138507843  1.0000
  Pt  Pt2       1.0  0.3540286719799042  0.29852890968322754  0.43157729506492615  1.0000
  Pt  Pt3       1.0  0.8482680916786193  0.7427230477333069  0.8449324369430542  1.0000
  Pt  Pt4       1.0  0.35320645570755005  0.28392764925956726  0.8297989964485168  1.0000
  Pt  Pt5       1.0  0.34652021527290344  0.6439162492752075  0.22876296937465668  1.0000
  Pt  Pt6       1.0  0.8452990055084229  0.812230348587036  0.006068888586014539  1.0000
  Se  Se1       1.0  0.8537768125534057  0.33774855732917786  0.2615969181060791  1.0000
