data_image0
_chemical_formula_structural       Er2InPPrPt4SeSi
_chemical_formula_sum              "Er2 In1 P1 Pr1 Pt4 Se1 Si1"
_cell_length_a       4.216631073800706
_cell_length_b       5.356921589127929
_cell_length_c       10.859262466430664
_cell_angle_alpha    90.3252462149764
_cell_angle_beta     89.11566238212006
_cell_angle_gamma    87.88151587929853

_space_group_name_H-M_alt    "P 1"
_space_group_IT_number       1

loop_
  _space_group_symop_operation_xyz
  'x, y, z'

loop_
  _atom_site_type_symbol
  _atom_site_label
  _atom_site_symmetry_multiplicity
  _atom_site_fract_x
  _atom_site_fract_y
  _atom_site_fract_z
  _atom_site_occupancy
  Er  Er1       1.0  0.9854580760002136  0.9441770315170288  0.3146452009677887  1.0000
  Er  Er2       1.0  0.4831647574901581  0.4961167573928833  0.4216774106025696  1.0000
  In  In1       1.0  0.49847206473350525  0.5554171800613403  0.6629212498664856  1.0000
  P   P1        1.0  0.5006725192070007  0.5175254940986633  0.15076349675655365  1.0000
  Pr  Pr1       1.0  0.012984574772417545  0.9648347496986389  0.5997515320777893  1.0000
  Pt  Pt1       1.0  0.9732571244239807  0.4816440939903259  0.9470377564430238  1.0000
  Pt  Pt2       1.0  0.012009728699922562  0.7096372246742249  0.7442397475242615  1.0000
  Pt  Pt3       1.0  0.49845001101493835  0.387610524892807  0.05932345986366272  1.0000
  Pt  Pt4       1.0  0.01942778006196022  0.003038198221474886  0.2054692804813385  1.0000
  Se  Se1       1.0  0.9818454384803772  0.1670132875442505  0.8245452642440796  1.0000
  Si  Si1       1.0  0.47572240233421326  0.20868776738643646  0.8892055749893188  1.0000
