data_image0
_chemical_formula_structural       Er2IInPt5Se2
_chemical_formula_sum              "Er2 I1 In1 Pt5 Se2"
_cell_length_a       4.941120105169961
_cell_length_b       6.42069840158249
_cell_length_c       9.675024032592773
_cell_angle_alpha    93.42230772159813
_cell_angle_beta     98.35117710920204
_cell_angle_gamma    89.74287220537832

_space_group_name_H-M_alt    "P 1"
_space_group_IT_number       1

loop_
  _space_group_symop_operation_xyz
  'x, y, z'

loop_
  _atom_site_type_symbol
  _atom_site_label
  _atom_site_symmetry_multiplicity
  _atom_site_fract_x
  _atom_site_fract_y
  _atom_site_fract_z
  _atom_site_occupancy
  Er  Er1       1.0  0.15698085725307465  0.6099345088005066  0.2599945068359375  1.0000
  Er  Er2       1.0  0.1286141276359558  0.9886336326599121  0.8468461036682129  1.0000
  I   I1        1.0  0.7455583810806274  0.8396990895271301  0.782975435256958  1.0000
  In  In1       1.0  0.16938719153404236  0.6190304160118103  0.19780685007572174  1.0000
  Pt  Pt1       1.0  0.6362877488136292  0.4537951350212097  0.4454382061958313  1.0000
  Pt  Pt2       1.0  0.1412840038537979  0.9718962907791138  0.02671602554619313  1.0000
  Pt  Pt3       1.0  0.6648620367050171  0.10748708993196487  0.674714207649231  1.0000
  Pt  Pt4       1.0  0.6452196836471558  0.34029895067214966  0.8660284876823425  1.0000
  Pt  Pt5       1.0  0.6522283554077148  0.6064152121543884  0.705240786075592  1.0000
  Se  Se1       1.0  0.314685583114624  0.6695101261138916  0.7550801634788513  1.0000
  Se  Se2       1.0  0.7311338782310486  0.5750423073768616  0.5736383199691772  1.0000
