data_image0
_chemical_formula_structural       BClGd5Ge2Sc
_chemical_formula_sum              "B1 Cl1 Gd5 Ge2 Sc1"
_cell_length_a       7.013552888390272
_cell_length_b       6.924693712846185
_cell_length_c       7.051552772521973
_cell_angle_alpha    108.81494410093957
_cell_angle_beta     105.50096902483926
_cell_angle_gamma    108.69207212747646

_space_group_name_H-M_alt    "P 1"
_space_group_IT_number       1

loop_
  _space_group_symop_operation_xyz
  'x, y, z'

loop_
  _atom_site_type_symbol
  _atom_site_label
  _atom_site_symmetry_multiplicity
  _atom_site_fract_x
  _atom_site_fract_y
  _atom_site_fract_z
  _atom_site_occupancy
  B   B1        1.0  0.15037506818771365  0.48111185431480413  0.38221701979637146  1.0000
  Cl  Cl1       1.0  0.08023945242166519  0.32548221945762634  0.7455618977546692  1.0000
  Gd  Gd1       1.0  0.5801522135734558  0.3238906264305115  0.24369207024574285  1.0000
  Gd  Gd2       1.0  0.5219691395759584  0.8226430416107179  0.9696047306060792  1.0000
  Gd  Gd3       1.0  0.13991178572177895  0.8275088071823121  0.7532806992530823  1.0000
  Gd  Gd4       1.0  0.11329897493124008  0.32607099413871765  0.07472831010818486  1.0000
  Gd  Gd5       1.0  0.3854624330997468  0.8243680596351625  0.23769834637641915  1.0000
  Ge  Ge1       1.0  0.8610467314720154  0.8244186639785768  0.2141575813293458  1.0000
  Ge  Ge2       1.0  0.024028159677982396  0.8242186903953553  0.23385213315486916  1.0000
  Sc  Sc1       1.0  0.8029333353042603  0.32210418581962585  0.03239059820771217  1.0000
