data_image0
_chemical_formula_structural       C2Cl2Gd4GeSc
_chemical_formula_sum              "C2 Cl2 Gd4 Ge1 Sc1"
_cell_length_a       6.883864462669311
_cell_length_b       6.815421660481182
_cell_length_c       7.160223484039307
_cell_angle_alpha    106.32921165825489
_cell_angle_beta     106.20485756717962
_cell_angle_gamma    109.18673144661072

_space_group_name_H-M_alt    "P 1"
_space_group_IT_number       1

loop_
  _space_group_symop_operation_xyz
  'x, y, z'

loop_
  _atom_site_type_symbol
  _atom_site_label
  _atom_site_symmetry_multiplicity
  _atom_site_fract_x
  _atom_site_fract_y
  _atom_site_fract_z
  _atom_site_occupancy
  C   C1        1.0  0.26451221108436584  0.6710881590843201  0.8337478637695312  1.0000
  C   C2        1.0  0.5552899241447449  0.16447965800762177  0.8245382308959961  1.0000
  Cl  Cl1       1.0  0.355858713388443  0.8742966651916504  0.09369721263647073  1.0000
  Cl  Cl2       1.0  0.7417654395103455  0.15185950696468353  0.5881791114807129  1.0000
  Gd  Gd1       1.0  0.35024410486221313  0.3361474871635437  0.09742510318756104  1.0000
  Gd  Gd2       1.0  0.5580471158027649  0.17192985117435455  0.8346868753433228  1.0000
  Gd  Gd3       1.0  0.048251595348119736  0.6711755990982056  0.827943742275238  1.0000
  Gd  Gd4       1.0  0.08128486573696136  0.16229774057865143  0.8327645659446716  1.0000
  Ge  Ge1       1.0  0.016766084358096123  0.6929240226745605  0.09663697332143784  1.0000
  Sc  Sc1       1.0  0.8539029955863953  0.37829190492630005  0.331311970949173  1.0000
