data_image0
_chemical_formula_structural       CCl4Gd4Ge
_chemical_formula_sum              "C1 Cl4 Gd4 Ge1"
_cell_length_a       6.2775211115338445
_cell_length_b       7.079567285242898
_cell_length_c       7.659223556518555
_cell_angle_alpha    117.33106967516692
_cell_angle_beta     102.80760584620948
_cell_angle_gamma    100.46647930362174

_space_group_name_H-M_alt    "P 1"
_space_group_IT_number       1

loop_
  _space_group_symop_operation_xyz
  'x, y, z'

loop_
  _atom_site_type_symbol
  _atom_site_label
  _atom_site_symmetry_multiplicity
  _atom_site_fract_x
  _atom_site_fract_y
  _atom_site_fract_z
  _atom_site_occupancy
  C   C1        1.0  0.23029528558254245  0.7778177857398987  0.5060369372367859  1.0000
  Cl  Cl1       1.0  0.5764989256858826  0.5456826090812683  0.9902606606483461  1.0000
  Cl  Cl2       1.0  0.24253650009632113  0.3660814166069031  0.8128681182861329  1.0000
  Cl  Cl3       1.0  0.8452475666999818  0.5095385313034058  0.25620877742767334  1.0000
  Cl  Cl4       1.0  0.524408757686615  0.7875882983207703  0.4945152401924134  1.0000
  Gd  Gd1       1.0  0.016574252396821976  0.2496744841337204  0.7266989946365358  1.0000
  Gd  Gd2       1.0  0.742011070251465  0.7655751705169678  0.48917376995086675  1.0000
  Gd  Gd3       1.0  0.7396544218063356  0.2725059390068054  0.4918721020221711  1.0000
  Gd  Gd4       1.0  0.02046898566186428  0.9712392091751099  0.014693800359964372  1.0000
  Ge  Ge1       1.0  0.8355843424797059  0.26225152611732483  0.13726451992988586  1.0000
