data_image0
_chemical_formula_structural       C2ClGd7
_chemical_formula_sum              "C2 Cl1 Gd7"
_cell_length_a       6.0111660527778685
_cell_length_b       6.275597882949568
_cell_length_c       6.679349899291992
_cell_angle_alpha    120.23838062693626
_cell_angle_beta     105.32868768198684
_cell_angle_gamma    98.49998701052759

_space_group_name_H-M_alt    "P 1"
_space_group_IT_number       1

loop_
  _space_group_symop_operation_xyz
  'x, y, z'

loop_
  _atom_site_type_symbol
  _atom_site_label
  _atom_site_symmetry_multiplicity
  _atom_site_fract_x
  _atom_site_fract_y
  _atom_site_fract_z
  _atom_site_occupancy
  C   C1        1.0  0.9303762316703796  0.591109573841095  0.8967365622520448  1.0000
  C   C2        1.0  0.6785211563110352  0.0735933780670166  0.28185969591140747  1.0000
  Cl  Cl1       1.0  0.20240914821624756  0.5641329884529114  0.34647101163864147  1.0000
  Gd  Gd1       1.0  0.6748819947242737  0.9985543489456177  0.07368594408035292  1.0000
  Gd  Gd2       1.0  0.11740873008966446  0.9298936128616333  0.14824062585830697  1.0000
  Gd  Gd3       1.0  0.6779921650886536  0.23093488812446594  0.73498272895813  1.0000
  Gd  Gd4       1.0  0.401260107755661  0.5580253601074219  0.7241565585136415  1.0000
  Gd  Gd5       1.0  0.40673330426216125  0.33579021692276  0.14080585539340973  1.0000
  Gd  Gd6       1.0  0.6923151016235352  0.5409361124038696  0.15591676533222198  1.0000
  Gd  Gd7       1.0  0.1121457889676094  0.023692749440670013  0.7099032402038575  1.0000
