data_image0
_chemical_formula_structural       C2ClGd7
_chemical_formula_sum              "C2 Cl1 Gd7"
_cell_length_a       6.069944593294968
_cell_length_b       6.879996990591406
_cell_length_c       7.367854118347168
_cell_angle_alpha    117.02871317111592
_cell_angle_beta     104.69285274221089
_cell_angle_gamma    91.91132334369995

_space_group_name_H-M_alt    "P 1"
_space_group_IT_number       1

loop_
  _space_group_symop_operation_xyz
  'x, y, z'

loop_
  _atom_site_type_symbol
  _atom_site_label
  _atom_site_symmetry_multiplicity
  _atom_site_fract_x
  _atom_site_fract_y
  _atom_site_fract_z
  _atom_site_occupancy
  C   C1        1.0  0.5521132349967957  0.637534499168396  0.10728226602077484  1.0000
  C   C2        1.0  0.5440107583999634  0.4351741969585419  0.5074941515922546  1.0000
  Cl  Cl1       1.0  0.0314421243965626  0.7916301488876344  0.6111238598823547  1.0000
  Gd  Gd1       1.0  0.0452955923974514  0.14568406343460083  0.14016062021255493  1.0000
  Gd  Gd2       1.0  0.043342527002096176  0.08102733641862869  0.5644811391830444  1.0000
  Gd  Gd3       1.0  0.8052625060081482  0.9011070728302003  0.8189529776573181  1.0000
  Gd  Gd4       1.0  0.5384136438369751  0.5713870525360107  0.6137248277664185  1.0000
  Gd  Gd5       1.0  0.5461836457252502  0.014594703912734987  0.876460611820221  1.0000
  Gd  Gd6       1.0  0.3126915991306305  0.9014450907707215  0.09241873025894172  1.0000
  Gd  Gd7       1.0  0.04407118260860443  0.6339287757873535  0.3698457777500153  1.0000
