data_image0
_chemical_formula_structural       CCl2Gd6Sc
_chemical_formula_sum              "C1 Cl2 Gd6 Sc1"
_cell_length_a       6.902131206309337
_cell_length_b       7.018812569089142
_cell_length_c       7.026810646057129
_cell_angle_alpha    106.97724105291414
_cell_angle_beta     106.07415364432997
_cell_angle_gamma    110.37084075015646

_space_group_name_H-M_alt    "P 1"
_space_group_IT_number       1

loop_
  _space_group_symop_operation_xyz
  'x, y, z'

loop_
  _atom_site_type_symbol
  _atom_site_label
  _atom_site_symmetry_multiplicity
  _atom_site_fract_x
  _atom_site_fract_y
  _atom_site_fract_z
  _atom_site_occupancy
  C   C1        1.0  0.0028833600226789717  0.32123643159866333  0.2382919490337372  1.0000
  Cl  Cl1       1.0  0.25396522879600525  0.8547465801239014  0.22734344005584722  1.0000
  Cl  Cl2       1.0  0.2496994882822037  0.8382232785224915  0.9712184071540831  1.0000
  Gd  Gd1       1.0  0.8282728791236879  0.6661368012428284  0.8556764721870422  1.0000
  Gd  Gd2       1.0  0.05730817094445229  0.8247928619384766  0.47047665715217596  1.0000
  Gd  Gd3       1.0  0.5321012735366821  0.47806957364082336  0.7920106649398804  1.0000
  Gd  Gd4       1.0  0.04530270770192147  0.8335513472557068  0.1386387348175049  1.0000
  Gd  Gd5       1.0  0.5529362559318542  0.8212194442749023  0.34232985973358154  1.0000
  Gd  Gd6       1.0  0.5575515031814575  0.31122341752052307  0.1638971418142319  1.0000
  Sc  Sc1       1.0  0.05157290026545525  0.46768873929977417  0.6570816040039062  1.0000
