data_image0
_chemical_formula_structural       CdGe2RbRuSiZr3
_chemical_formula_sum              "Cd1 Ge2 Rb1 Ru1 Si1 Zr3"
_cell_length_a       4.549580126629293
_cell_length_b       5.374690027506278
_cell_length_c       8.814573287963867
_cell_angle_alpha    91.68533547769125
_cell_angle_beta     89.83190463223744
_cell_angle_gamma    90.92254554715724

_space_group_name_H-M_alt    "P 1"
_space_group_IT_number       1

loop_
  _space_group_symop_operation_xyz
  'x, y, z'

loop_
  _atom_site_type_symbol
  _atom_site_label
  _atom_site_symmetry_multiplicity
  _atom_site_fract_x
  _atom_site_fract_y
  _atom_site_fract_z
  _atom_site_occupancy
  Cd  Cd1       1.0  0.4855749309062958  0.5764190554618835  0.6566590070724487  1.0000
  Ge  Ge1       1.0  0.48301008343696594  0.0933467373251915  0.15987518429756165  1.0000
  Ge  Ge2       1.0  0.9887748956680298  0.09184088557958603  0.5229480862617493  1.0000
  Rb  Rb1       1.0  0.9874852895736694  0.5671713352203369  0.154659703373909  1.0000
  Ru  Ru1       1.0  0.9859526753425598  0.6329665780067444  0.014186115004122257  1.0000
  Si  Si1       1.0  0.5402112007141113  0.030341150239109993  0.6617559194564819  1.0000
  Zr  Zr1       1.0  0.9886161088943481  0.3269715905189514  0.6525171995162964  1.0000
  Zr  Zr2       1.0  0.985835075378418  0.1530153751373291  0.01530696265399456  1.0000
  Zr  Zr3       1.0  0.9818847179412842  0.25761157274246216  0.013293742202222347  1.0000
