data_image0
_chemical_formula_structural       CdGe3WZr4
_chemical_formula_sum              "Cd1 Ge3 W1 Zr4"
_cell_length_a       4.801526424903282
_cell_length_b       7.356149984928455
_cell_length_c       7.383082866668701
_cell_angle_alpha    122.79473374985137
_cell_angle_beta     88.11227986004447
_cell_angle_gamma    90.44011784466049

_space_group_name_H-M_alt    "P 1"
_space_group_IT_number       1

loop_
  _space_group_symop_operation_xyz
  'x, y, z'

loop_
  _atom_site_type_symbol
  _atom_site_label
  _atom_site_symmetry_multiplicity
  _atom_site_fract_x
  _atom_site_fract_y
  _atom_site_fract_z
  _atom_site_occupancy
  Cd  Cd1       1.0  0.7430448532104492  0.42241284251213074  0.2573941349983216  1.0000
  Ge  Ge1       1.0  0.24233548343181613  0.005431677680462599  0.3700695335865021  1.0000
  Ge  Ge2       1.0  0.7574135065078735  0.4220501184463501  0.7367502450942993  1.0000
  Ge  Ge3       1.0  0.7667085528373718  0.09506075829267502  0.1769367754459381  1.0000
  W   W1        1.0  0.7496253848075867  0.9965229034423829  0.42900976538658153  1.0000
  Zr  Zr1       1.0  0.252646803855896  0.42569974064826965  0.07058307528495796  1.0000
  Zr  Zr2       1.0  0.2476221323013306  0.6577174663543701  0.875611960887909  1.0000
  Zr  Zr3       1.0  0.7520155906677246  0.66529780626297  0.7738964557647705  1.0000
  Zr  Zr4       1.0  0.7427377104759216  0.9457516074180603  0.5485376715660095  1.0000
