data_image0
_chemical_formula_structural       Cd4CrGeHgPdU
_chemical_formula_sum              "Cd4 Cr1 Ge1 Hg1 Pd1 U1"
_cell_length_a       2.3275574069868803
_cell_length_b       6.499326481992613
_cell_length_c       7.4475932121276855
_cell_angle_alpha    126.27705169919052
_cell_angle_beta     71.16196330126152
_cell_angle_gamma    55.16521901737969

_space_group_name_H-M_alt    "P 1"
_space_group_IT_number       1

loop_
  _space_group_symop_operation_xyz
  'x, y, z'

loop_
  _atom_site_type_symbol
  _atom_site_label
  _atom_site_symmetry_multiplicity
  _atom_site_fract_x
  _atom_site_fract_y
  _atom_site_fract_z
  _atom_site_occupancy
  Cd  Cd1       1.0  0.31011220812797546  0.5043245553970337  0.023203317075967806  1.0000
  Cd  Cd2       1.0  0.815335273742676  0.4488142132759093  0.5299659967422484  1.0000
  Cd  Cd3       1.0  0.7738114595413208  0.7940638065338135  0.2350967824459076  1.0000
  Cd  Cd4       1.0  0.30210843682289146  0.45552715659141535  0.6106980443000792  1.0000
  Cr  Cr1       1.0  0.8069444298744206  0.9860710501670836  0.9703838825225829  1.0000
  Ge  Ge1       1.0  0.8114764094352722  0.42997390031814575  0.8655917644500732  1.0000
  Hg  Hg1       1.0  0.7827067971229553  0.14431160688400269  0.03338408097624779  1.0000
  Pd  Pd1       1.0  0.28331199288368225  0.9526653289794922  0.3988345265388489  1.0000
  U   U1        1.0  0.8007058501243591  0.16900245845317838  0.590627908706665  1.0000
