data_image0
_chemical_formula_structural       Ge2MoReSiWZr3
_chemical_formula_sum              "Ge2 Mo1 Re1 Si1 W1 Zr3"
_cell_length_a       5.1498646072525665
_cell_length_b       6.883330574198683
_cell_length_c       6.798764705657959
_cell_angle_alpha    123.09894793461143
_cell_angle_beta     88.9140331766963
_cell_angle_gamma    90.57871351247437

_space_group_name_H-M_alt    "P 1"
_space_group_IT_number       1

loop_
  _space_group_symop_operation_xyz
  'x, y, z'

loop_
  _atom_site_type_symbol
  _atom_site_label
  _atom_site_symmetry_multiplicity
  _atom_site_fract_x
  _atom_site_fract_y
  _atom_site_fract_z
  _atom_site_occupancy
  Ge  Ge1       1.0  0.8919342160224915  0.8713799118995667  0.7943765521049498  1.0000
  Ge  Ge2       1.0  0.3917396068572998  0.5169323086738586  0.5147284865379333  1.0000
  Mo  Mo1       1.0  0.6162607073783875  0.01653226464986801  0.9730363488197326  1.0000
  Re  Re1       1.0  0.11912091076374054  0.501613438129425  0.27138638496398926  1.0000
  Si  Si1       1.0  0.12278261035680771  0.7960872650146484  0.48128688335418696  1.0000
  W   W1        1.0  0.6058381795883179  0.011724946089088917  0.010108859278261662  1.0000
  Zr  Zr1       1.0  0.8700563311576843  0.4093421995639801  0.1569829285144806  1.0000
  Zr  Zr2       1.0  0.606194794178009  0.8753697872161865  0.8367559313774108  1.0000
  Zr  Zr3       1.0  0.11879335343837738  0.5131856799125671  0.2760453522205353  1.0000
