data_image0
_chemical_formula_structural       FGaHf3LuPb
_chemical_formula_sum              "F1 Ga1 Hf3 Lu1 Pb1"
_cell_length_a       4.584428832624679
_cell_length_b       2.961597646415308
_cell_length_c       5.903843879699707
_cell_angle_alpha    133.3851867385606
_cell_angle_beta     96.16347558351971
_cell_angle_gamma    126.35734138374413

_space_group_name_H-M_alt    "P 1"
_space_group_IT_number       1

loop_
  _space_group_symop_operation_xyz
  'x, y, z'

loop_
  _atom_site_type_symbol
  _atom_site_label
  _atom_site_symmetry_multiplicity
  _atom_site_fract_x
  _atom_site_fract_y
  _atom_site_fract_z
  _atom_site_occupancy
  F   F1        1.0  0.35609397292137146  0.7044969797134399  0.31132981181144714  1.0000
  Ga  Ga1       1.0  0.7037367820739747  0.06095761060714734  0.37090823054313665  1.0000
  Hf  Hf1       1.0  0.17337161302566528  0.5189818739891052  0.05915148183703423  1.0000
  Hf  Hf2       1.0  0.3376157283782959  0.38942912220954895  0.5944606065750122  1.0000
  Hf  Hf3       1.0  0.44495710730552673  0.8292716145515443  0.02544473670423034  1.0000
  Lu  Lu1       1.0  0.7947410345077515  0.41222080588340765  0.16661706566810608  1.0000
  Pb  Pb1       1.0  0.20980706810951233  0.7580114603042603  0.8602192401885986  1.0000
