data_image0
_chemical_formula_structural       AlH2Mn2Na2O8PZn
_chemical_formula_sum              "Al1 H2 Mn2 Na2 O8 P1 Zn1"
_cell_length_a       6.400538284855229
_cell_length_b       6.274682790570148
_cell_length_c       6.647613048553467
_cell_angle_alpha    62.00567430260388
_cell_angle_beta     61.005667760733196
_cell_angle_gamma    61.17175870529768

_space_group_name_H-M_alt    "P 1"
_space_group_IT_number       1

loop_
  _space_group_symop_operation_xyz
  'x, y, z'

loop_
  _atom_site_type_symbol
  _atom_site_label
  _atom_site_symmetry_multiplicity
  _atom_site_fract_x
  _atom_site_fract_y
  _atom_site_fract_z
  _atom_site_occupancy
  Al  Al1       1.0  0.42367371916770935  0.12868596613407135  0.43879967927932745  1.0000
  H   H1        1.0  0.38293638825416565  0.33452168107032776  0.07014840096235275  1.0000
  H   H2        1.0  0.08997597545385361  0.3513548672199249  0.9141703844070436  1.0000
  Mn  Mn1       1.0  0.2768178582191467  0.9033885598182679  0.8536700010299684  1.0000
  Mn  Mn2       1.0  0.40664368867874146  0.8859436511993409  0.13275331258773804  1.0000
  Na  Na1       1.0  0.564480721950531  0.7305378913879395  0.3921411335468293  1.0000
  Na  Na2       1.0  0.9362752437591553  0.3958180248737335  0.3866833448410035  1.0000
  O   O1        1.0  0.0708678811788559  0.09675788879394531  0.17745353281497955  1.0000
  O   O2        1.0  0.9211544990539551  0.09451914578676224  0.5019038319587708  1.0000
  O   O3        1.0  0.3940576910972595  0.3303534686565399  0.06467004120349884  1.0000
  O   O4        1.0  0.41308724880218506  0.817518949508667  0.43380782008171087  1.0000
  O   O5        1.0  0.6686853170394897  0.13724149763584137  0.7659165859222413  1.0000
  O   O6        1.0  0.9145945310592651  0.8866900205612184  0.4286468923091889  1.0000
  O   O7        1.0  0.29879140853881836  0.6484940648078918  0.051180262118577964  1.0000
  O   O8        1.0  0.03813102468848224  0.8820529580116273  0.9066647887229922  1.0000
  P   P1        1.0  0.12707871198654175  0.6256595253944397  0.8394554853439332  1.0000
  Zn  Zn1       1.0  0.126925528049469  0.21874041855335238  0.46770438551902777  1.0000
