data_image0
_chemical_formula_structural       H3MnNa2NiO8PZn
_chemical_formula_sum              "H3 Mn1 Na2 Ni1 O8 P1 Zn1"
_cell_length_a       6.235418806400394
_cell_length_b       6.4947929913503994
_cell_length_c       6.413040637969971
_cell_angle_alpha    64.13143433361009
_cell_angle_beta     59.04354246823714
_cell_angle_gamma    60.451657872452834

_space_group_name_H-M_alt    "P 1"
_space_group_IT_number       1

loop_
  _space_group_symop_operation_xyz
  'x, y, z'

loop_
  _atom_site_type_symbol
  _atom_site_label
  _atom_site_symmetry_multiplicity
  _atom_site_fract_x
  _atom_site_fract_y
  _atom_site_fract_z
  _atom_site_occupancy
  H   H1        1.0  0.9999716281890869  0.08867976069450378  0.003094423795118911  1.0000
  H   H2        1.0  0.989660382270813  0.4861472249031067  0.469820648431778  1.0000
  H   H3        1.0  0.7560096383094788  0.9564007520675659  0.8802620768547058  1.0000
  Mn  Mn1       1.0  0.26813384890556335  0.9853821992874146  0.9525417089462281  1.0000
  Na  Na1       1.0  0.008638430386781693  0.4839090406894684  0.33263304829597473  1.0000
  Na  Na2       1.0  0.5093373656272888  0.9855448007583618  0.4584504663944245  1.0000
  Ni  Ni1       1.0  0.6782801151275635  0.3082618713378906  0.601682722568512  1.0000
  O   O1        1.0  0.3629249334335327  0.20399509370326996  0.030781364068388942  1.0000
  O   O2        1.0  0.8683515191078186  0.7006434202194214  0.17027691006660461  1.0000
  O   O3        1.0  0.2830735743045807  0.7301862835884094  0.9523393511772157  1.0000
  O   O4        1.0  0.7811015844345093  0.8784948587417603  0.9806935191154481  1.0000
  O   O5        1.0  0.7743990421295166  0.6713784337043762  0.45893865823745733  1.0000
  O   O6        1.0  0.8789982199668884  0.557866632938385  0.4130064845085144  1.0000
  O   O7        1.0  0.8822090029716492  0.3816841244697571  0.9695106744766236  1.0000
  O   O8        1.0  0.2688886821269989  0.4653867781162262  0.9869379997253419  1.0000
  P   P1        1.0  0.7168630957603455  0.8418035507202148  0.6997019052505493  1.0000
  Zn  Zn1       1.0  0.015410701744258404  0.5434374213218689  0.7665402889251709  1.0000
