data_image0
_chemical_formula_structural       H3Mn4O6Zn4
_chemical_formula_sum              "H3 Mn4 O6 Zn4"
_cell_length_a       5.4435368323239555
_cell_length_b       5.569985615962615
_cell_length_c       5.841848850250244
_cell_angle_alpha    65.35925717672306
_cell_angle_beta     63.166858232606046
_cell_angle_gamma    59.49514149701849

_space_group_name_H-M_alt    "P 1"
_space_group_IT_number       1

loop_
  _space_group_symop_operation_xyz
  'x, y, z'

loop_
  _atom_site_type_symbol
  _atom_site_label
  _atom_site_symmetry_multiplicity
  _atom_site_fract_x
  _atom_site_fract_y
  _atom_site_fract_z
  _atom_site_occupancy
  H   H1        1.0  0.2457914799451828  0.7323745489120483  0.36167728900909424  1.0000
  H   H2        1.0  0.30683982372283936  0.44826972484588623  0.0384572297334671  1.0000
  H   H3        1.0  0.23759868741035461  0.03602948412299156  0.9817800521850587  1.0000
  Mn  Mn1       1.0  0.7369061708450317  0.2925754189491272  0.5897682905197144  1.0000
  Mn  Mn2       1.0  0.19880490005016327  0.4176238477230072  0.575882613658905  1.0000
  Mn  Mn3       1.0  0.9411576986312866  0.4366510212421417  0.3107750117778778  1.0000
  Mn  Mn4       1.0  0.20628397166728973  0.7396830916404724  0.7284732460975647  1.0000
  O   O1        1.0  0.09603594243526459  0.39091795682907104  0.8656352162361146  1.0000
  O   O2        1.0  0.5765781998634338  0.7036855816841125  0.8042988777160645  1.0000
  O   O3        1.0  0.04331071674823761  0.15683473646640778  0.2943386733531952  1.0000
  O   O4        1.0  0.3157598078250885  0.46042633056640625  0.9861381053924562  1.0000
  O   O5        1.0  0.40492403507232666  0.43161705136299133  0.4667916893959046  1.0000
  O   O6        1.0  0.6569709181785583  0.1983344405889511  0.5597870945930481  1.0000
  Zn  Zn1       1.0  0.9836140871047974  0.1266094446182251  0.6542233228683472  1.0000
  Zn  Zn2       1.0  0.5138065218925476  0.9291701316833496  0.09492764621973038  1.0000
  Zn  Zn3       1.0  0.002026770729571581  0.8666917681694031  0.9542448520660402  1.0000
  Zn  Zn4       1.0  0.7240628600120544  0.48558887839317316  0.8647308349609376  1.0000
