data_image0
_chemical_formula_structural       H3Mn6O6Zn2
_chemical_formula_sum              "H3 Mn6 O6 Zn2"
_cell_length_a       5.081557928702262
_cell_length_b       6.101431116174315
_cell_length_c       6.264854907989502
_cell_angle_alpha    66.14556147067103
_cell_angle_beta     59.66284932021596
_cell_angle_gamma    63.726534725330765

_space_group_name_H-M_alt    "P 1"
_space_group_IT_number       1

loop_
  _space_group_symop_operation_xyz
  'x, y, z'

loop_
  _atom_site_type_symbol
  _atom_site_label
  _atom_site_symmetry_multiplicity
  _atom_site_fract_x
  _atom_site_fract_y
  _atom_site_fract_z
  _atom_site_occupancy
  H   H1        1.0  0.4138146638870239  0.4539673924446106  0.08870235830545425  1.0000
  H   H2        1.0  0.7783522605895996  0.5005655884742737  0.8918238282203674  1.0000
  H   H3        1.0  0.1281352937221527  0.4998575747013092  0.0672086849808693  1.0000
  Mn  Mn1       1.0  0.300370454788208  0.08856204897165298  0.7012859582901001  1.0000
  Mn  Mn2       1.0  0.615765392780304  0.5493009686470032  0.1842769831418991  1.0000
  Mn  Mn3       1.0  0.6087685823440552  0.6008440256118774  0.2458774447441101  1.0000
  Mn  Mn4       1.0  0.37941277027130127  0.9299072623252869  0.44951698184013367  1.0000
  Mn  Mn5       1.0  0.9919345378875732  0.42185673117637634  0.6631205677986145  1.0000
  Mn  Mn6       1.0  0.08132582157850266  0.6205524206161499  0.4140836298465729  1.0000
  O   O1        1.0  0.7337913513183594  0.14639493823051453  0.05987003445625305  1.0000
  O   O2        1.0  0.8030734658241272  0.24739518761634827  0.44140881299972534  1.0000
  O   O3        1.0  0.2360326051712036  0.9311251044273376  0.5144604444503784  1.0000
  O   O4        1.0  0.28263309597969055  0.9924634695053101  0.7434360384941101  1.0000
  O   O5        1.0  0.734393298625946  0.8640323281288147  0.39735788106918335  1.0000
  O   O6        1.0  0.6189131140708923  0.11923722177743912  0.7740406394004822  1.0000
  Zn  Zn1       1.0  0.5725681185722351  0.8685249090194702  0.8631036877632141  1.0000
  Zn  Zn2       1.0  0.989799439907074  0.27831557393074036  0.08701969683170319  1.0000
