data_image0
_chemical_formula_structural       HMn2MoNaO12
_chemical_formula_sum              "H1 Mn2 Mo1 Na1 O12"
_cell_length_a       5.456123706634955
_cell_length_b       8.13849840435728
_cell_length_c       7.838728904724121
_cell_angle_alpha    123.05196546525707
_cell_angle_beta     92.28595188744117
_cell_angle_gamma    90.74159699743748

_space_group_name_H-M_alt    "P 1"
_space_group_IT_number       1

loop_
  _space_group_symop_operation_xyz
  'x, y, z'

loop_
  _atom_site_type_symbol
  _atom_site_label
  _atom_site_symmetry_multiplicity
  _atom_site_fract_x
  _atom_site_fract_y
  _atom_site_fract_z
  _atom_site_occupancy
  H   H1        1.0  0.006551027297973632  0.04465826228260994  0.255207359790802  1.0000
  Mn  Mn1       1.0  0.5547224879264832  0.7752129435539246  0.6531062722206116  1.0000
  Mn  Mn2       1.0  0.03378220275044441  0.2795681357383728  0.40343940258026123  1.0000
  Mo  Mo1       1.0  0.5442997813224792  0.5172787308692932  0.09734746813774114  1.0000
  Na  Na1       1.0  0.019828040152788162  0.24135547876358035  0.6631866097450256  1.0000
  O   O1        1.0  0.2832815647125244  0.8140561580657959  0.47540646791458135  1.0000
  O   O2        1.0  0.7702029347419739  0.9356428384780884  0.4852384328842163  1.0000
  O   O3        1.0  0.5608218908309937  0.5952571034431458  0.8740913271903992  1.0000
  O   O4        1.0  0.0440153032541275  0.7457298636436462  0.41755059361457825  1.0000
  O   O5        1.0  0.5276667475700378  0.17851082980632782  0.4331234395503998  1.0000
  O   O6        1.0  0.5290669202804565  0.5635190606117249  0.67566978931427  1.0000
  O   O7        1.0  0.5440970063209534  0.32271379232406616  0.6197584867477417  1.0000
  O   O8        1.0  0.04256490245461464  0.19404424726963043  0.6796128749847412  1.0000
  O   O9        1.0  0.034427378326654434  0.8584029078483582  0.10245542973279959  1.0000
  O   O10       1.0  0.0340239554643631  0.18901588022708893  0.10258542001247407  1.0000
  O   O11       1.0  0.5156645774841309  0.29136791825294495  0.9450687766075134  1.0000
  O   O12       1.0  0.5329208374023438  0.44988733530044556  0.9407329559326172  1.0000
