data_image0
_chemical_formula_structural       FeMn2Na3O8RuZn2
_chemical_formula_sum              "Fe1 Mn2 Na3 O8 Ru1 Zn2"
_cell_length_a       6.1831504380980835
_cell_length_b       7.066059917483885
_cell_length_c       6.961702823638916
_cell_angle_alpha    72.22860640685064
_cell_angle_beta     67.46432878134121
_cell_angle_gamma    68.5068369188845

_space_group_name_H-M_alt    "P 1"
_space_group_IT_number       1

loop_
  _space_group_symop_operation_xyz
  'x, y, z'

loop_
  _atom_site_type_symbol
  _atom_site_label
  _atom_site_symmetry_multiplicity
  _atom_site_fract_x
  _atom_site_fract_y
  _atom_site_fract_z
  _atom_site_occupancy
  Fe  Fe1       1.0  0.6199728846549988  0.726760745048523  0.2455554902553558  1.0000
  Mn  Mn1       1.0  0.7017534375190735  0.9015732407569884  0.42571312189102173  1.0000
  Mn  Mn2       1.0  0.005300384480506182  0.6769312024116516  0.5055471658706665  1.0000
  Na  Na1       1.0  0.6870655417442322  0.5413382053375244  0.15241776406764984  1.0000
  Na  Na2       1.0  0.6878088116645813  0.8976051807403563  0.37251606583595276  1.0000
  Na  Na3       1.0  0.20248369872570038  0.6064175367355347  0.9618849754333495  1.0000
  O   O1        1.0  0.573035717010498  0.7579054832458496  0.935058295726776  1.0000
  O   O2        1.0  0.172410249710083  0.16761867702007294  0.3230019509792328  1.0000
  O   O3        1.0  0.09759685397148132  0.24619546532630918  0.08048751950263977  1.0000
  O   O4        1.0  0.9991582036018372  0.5574132800102234  0.14962486922740936  1.0000
  O   O5        1.0  0.9366533160209656  0.662288248538971  0.2660932242870331  1.0000
  O   O6        1.0  0.20812863111495977  0.89552104473114  0.3925844430923462  1.0000
  O   O7        1.0  0.345761775970459  0.5584084391593933  0.4304015636444092  1.0000
  O   O8        1.0  0.694115161895752  0.408181756734848  0.09414508938789368  1.0000
  Ru  Ru1       1.0  0.3536214232444763  0.2850387692451477  0.5661779642105103  1.0000
  Zn  Zn1       1.0  0.35122227668762207  0.7791509032249451  0.567937433719635  1.0000
  Zn  Zn2       1.0  0.19463877379894257  0.012966619804501534  0.6356688737869263  1.0000
