data_image0
_chemical_formula_structural       Ge2I3Li3P2
_chemical_formula_sum              "Ge2 I3 Li3 P2"
_cell_length_a       5.821268010966826
_cell_length_b       6.001986660750696
_cell_length_c       6.790417671203613
_cell_angle_alpha    114.11888824988661
_cell_angle_beta     91.01772633464347
_cell_angle_gamma    99.48038467028901

_space_group_name_H-M_alt    "P 1"
_space_group_IT_number       1

loop_
  _space_group_symop_operation_xyz
  'x, y, z'

loop_
  _atom_site_type_symbol
  _atom_site_label
  _atom_site_symmetry_multiplicity
  _atom_site_fract_x
  _atom_site_fract_y
  _atom_site_fract_z
  _atom_site_occupancy
  Ge  Ge1       1.0  0.12778513133525848  0.6709599494934082  0.41183328628540045  1.0000
  Ge  Ge2       1.0  0.1305983066558838  0.4119165241718292  0.9092425107955934  1.0000
  I   I1        1.0  0.3943308889865875  0.9989316463470459  0.9719547629356385  1.0000
  I   I2        1.0  0.14927619695663452  0.11398881673812866  0.11228925734758378  1.0000
  I   I3        1.0  0.6329835653305054  0.19833438098430634  0.9979555606842042  1.0000
  Li  Li1       1.0  0.09947364032268524  0.9767336845397949  0.037523720413446426  1.0000
  Li  Li2       1.0  0.18493975698947906  0.6745429039001465  0.4069029092788697  1.0000
  Li  Li3       1.0  0.6349432468414307  0.5404840111732483  0.6917927861213685  1.0000
  P   P1        1.0  0.6072773933410645  0.7681046724319458  0.9761847257614137  1.0000
  P   P2        1.0  0.8158192634582518  0.11901857703924179  0.00626002997159958  1.0000
