data_image0
_chemical_formula_structural       GeHfILi3P2S2
_chemical_formula_sum              "Ge1 Hf1 I1 Li3 P2 S2"
_cell_length_a       4.460461654285663
_cell_length_b       5.000795294162354
_cell_length_c       5.709774017333984
_cell_angle_alpha    93.04603039136465
_cell_angle_beta     87.51649907230023
_cell_angle_gamma    92.06828966721679

_space_group_name_H-M_alt    "P 1"
_space_group_IT_number       1

loop_
  _space_group_symop_operation_xyz
  'x, y, z'

loop_
  _atom_site_type_symbol
  _atom_site_label
  _atom_site_symmetry_multiplicity
  _atom_site_fract_x
  _atom_site_fract_y
  _atom_site_fract_z
  _atom_site_occupancy
  Ge  Ge1       1.0  0.6471951603889465  0.33212900161743164  0.5071681141853333  1.0000
  Hf  Hf1       1.0  0.6356925964355469  0.7153916358947754  0.9248828887939453  1.0000
  I   I1        1.0  0.6524736881256104  0.14418071508407593  0.9722318649291992  1.0000
  Li  Li1       1.0  0.1350247859954834  0.9366248250007629  0.5539582967758179  1.0000
  Li  Li2       1.0  0.13518254458904266  0.9294844269752502  0.6394292712211609  1.0000
  Li  Li3       1.0  0.8788663744926453  0.7369036674499512  0.8247582912445068  1.0000
  P   P1        1.0  0.13793684542179108  0.9138216376304626  0.6766730546951295  1.0000
  P   P2        1.0  0.13655702769756317  0.9197017550468445  0.47337910532951355  1.0000
  S   S1        1.0  0.151299387216568  0.3099278211593628  0.7596588730812074  1.0000
  S   S2        1.0  0.6539181470870972  0.4883575439453125  0.2231457531452179  1.0000
