data_image0
_chemical_formula_structural       ILi6PS2
_chemical_formula_sum              "I1 Li6 P1 S2"
_cell_length_a       5.020751630696961
_cell_length_b       4.692555893242611
_cell_length_c       5.9768548011779785
_cell_angle_alpha    128.27736637746776
_cell_angle_beta     106.03023432513353
_cell_angle_gamma    101.22143038253553

_space_group_name_H-M_alt    "P 1"
_space_group_IT_number       1

loop_
  _space_group_symop_operation_xyz
  'x, y, z'

loop_
  _atom_site_type_symbol
  _atom_site_label
  _atom_site_symmetry_multiplicity
  _atom_site_fract_x
  _atom_site_fract_y
  _atom_site_fract_z
  _atom_site_occupancy
  I   I1        1.0  0.8645275831222534  0.9066616892814637  0.3061408400535584  1.0000
  Li  Li1       1.0  0.137370765209198  0.8565965890884399  0.08842907100915912  1.0000
  Li  Li2       1.0  0.3419048488140106  0.18117618560791016  0.41252025961875916  1.0000
  Li  Li3       1.0  0.3413030207157135  0.5540057420730591  0.6729979515075684  1.0000
  Li  Li4       1.0  0.9478163123130798  0.09983801841735838  0.12375640869140624  1.0000
  Li  Li5       1.0  0.8223625421524048  0.8711555004119874  0.25820395350456243  1.0000
  Li  Li6       1.0  0.6232696771621705  0.1384484320878986  0.7140830755233766  1.0000
  P   P1        1.0  0.4656434655189514  0.6044026017189026  0.07938765734434128  1.0000
  S   S1        1.0  0.13635565340518951  0.9917358756065369  0.14597992599010465  1.0000
  S   S2        1.0  0.8403033018112183  0.5225332975387574  0.32818859815597534  1.0000
