data_image0
_chemical_formula_structural       Li4S4Ti2
_chemical_formula_sum              "Li4 S4 Ti2"
_cell_length_a       5.772889200584545
_cell_length_b       5.053523689268418
_cell_length_c       6.324599742889404
_cell_angle_alpha    61.189977099937096
_cell_angle_beta     63.18262530280352
_cell_angle_gamma    60.892823025929324

_space_group_name_H-M_alt    "P 1"
_space_group_IT_number       1

loop_
  _space_group_symop_operation_xyz
  'x, y, z'

loop_
  _atom_site_type_symbol
  _atom_site_label
  _atom_site_symmetry_multiplicity
  _atom_site_fract_x
  _atom_site_fract_y
  _atom_site_fract_z
  _atom_site_occupancy
  Li  Li1       1.0  0.570060670375824  0.6200426816940308  0.0763838067650795  1.0000
  Li  Li2       1.0  0.46075305342674255  0.9945819973945618  0.34617897868156433  1.0000
  Li  Li3       1.0  0.536521315574646  0.27889323234558105  0.23642481863498688  1.0000
  Li  Li4       1.0  0.06512903422117233  0.29357075691223145  0.04527131840586662  1.0000
  S   S1        1.0  0.9466800093650818  0.08595949411392212  0.6090180277824402  1.0000
  S   S2        1.0  0.6180153489112854  0.8281275629997253  0.85463547706604  1.0000
  S   S3        1.0  0.3082742691040039  0.3955477774143219  0.9391443133354187  1.0000
  S   S4        1.0  0.019297659397125244  0.9432252645492554  0.8522666692733765  1.0000
  Ti  Ti1       1.0  0.9622167944908142  0.17418530583381653  0.05680469796061516  1.0000
  Ti  Ti2       1.0  0.8002277612686157  0.22723187506198883  0.8575712442398071  1.0000
