data_image0
_chemical_formula_structural       Li4S2Ti4
_chemical_formula_sum              "Li4 S2 Ti4"
_cell_length_a       4.095970934858296
_cell_length_b       2.708480334906535
_cell_length_c       6.29179573059082
_cell_angle_alpha    59.075260821422646
_cell_angle_beta     73.71895946455204
_cell_angle_gamma    95.89290778393651

_space_group_name_H-M_alt    "P 1"
_space_group_IT_number       1

loop_
  _space_group_symop_operation_xyz
  'x, y, z'

loop_
  _atom_site_type_symbol
  _atom_site_label
  _atom_site_symmetry_multiplicity
  _atom_site_fract_x
  _atom_site_fract_y
  _atom_site_fract_z
  _atom_site_occupancy
  Li  Li1       1.0  0.9589138627052307  0.5410242080688477  0.9216861128807069  1.0000
  Li  Li2       1.0  0.4917166829109192  0.04740370437502861  0.5645936131477357  1.0000
  Li  Li3       1.0  0.2953486442565918  0.5532708168029785  0.461537390947342  1.0000
  Li  Li4       1.0  0.4947081506252289  0.5703962445259094  0.4640057981014252  1.0000
  S   S1        1.0  0.9697648286819458  0.639814555644989  0.6427211165428162  1.0000
  S   S2        1.0  0.3259861469268799  0.7489867210388184  0.4973644614219666  1.0000
  Ti  Ti1       1.0  0.9811083078384399  0.21985451877117157  0.7088406682014466  1.0000
  Ti  Ti2       1.0  0.9865374565124512  0.32587069272994995  0.04842843487858773  1.0000
  Ti  Ti3       1.0  0.9657774567604065  0.7038481831550598  0.2737431526184082  1.0000
  Ti  Ti4       1.0  0.9863458871841431  0.9195171594619751  0.5338484644889832  1.0000
