data_image0
_chemical_formula_structural       GeLi3PS3TiV
_chemical_formula_sum              "Ge1 Li3 P1 S3 Ti1 V1"
_cell_length_a       3.9243911607971023
_cell_length_b       3.6854059133463286
_cell_length_c       4.71886682510376
_cell_angle_alpha    99.3004584250031
_cell_angle_beta     85.7985459814474
_cell_angle_gamma    90.1036985903413

_space_group_name_H-M_alt    "P 1"
_space_group_IT_number       1

loop_
  _space_group_symop_operation_xyz
  'x, y, z'

loop_
  _atom_site_type_symbol
  _atom_site_label
  _atom_site_symmetry_multiplicity
  _atom_site_fract_x
  _atom_site_fract_y
  _atom_site_fract_z
  _atom_site_occupancy
  Ge  Ge1       1.0  0.9151671528816223  0.5344470143318176  0.3423272371292114  1.0000
  Li  Li1       1.0  0.9081782102584839  0.47047126293182373  0.540900468826294  1.0000
  Li  Li2       1.0  0.40535613894462585  0.02861020900309086  0.9043326377868652  1.0000
  Li  Li3       1.0  0.9150002002716064  0.9307770729064941  0.3309565484523773  1.0000
  P   P1        1.0  0.4254308044910431  0.6226592063903809  0.4981526732444763  1.0000
  S   S1        1.0  0.9152105450630188  0.8691523671150208  0.24228622019290924  1.0000
  S   S2        1.0  0.3963421881198883  0.29094943404197693  0.17166820168495178  1.0000
  S   S3        1.0  0.43225330114364624  0.034593913704156876  0.3719480633735657  1.0000
  Ti  Ti1       1.0  0.4100656807422638  0.41258174180984497  0.4362810552120209  1.0000
  V   V1        1.0  0.8953794240951538  0.6143136620521545  0.6865606904029846  1.0000
