data_image0
_chemical_formula_structural       Al2CdGeHNa2PbTi
_chemical_formula_sum              "Al2 Cd1 Ge1 H1 Na2 Pb1 Ti1"
_cell_length_a       6.247008633216143
_cell_length_b       4.738308561227016
_cell_length_c       5.8822479248046875
_cell_angle_alpha    75.03783777996266
_cell_angle_beta     48.414441638797705
_cell_angle_gamma    28.28887758298753

_space_group_name_H-M_alt    "P 1"
_space_group_IT_number       1

loop_
  _space_group_symop_operation_xyz
  'x, y, z'

loop_
  _atom_site_type_symbol
  _atom_site_label
  _atom_site_symmetry_multiplicity
  _atom_site_fract_x
  _atom_site_fract_y
  _atom_site_fract_z
  _atom_site_occupancy
  Al  Al1       1.0  0.6817869544029235  0.3783662021160127  0.8595839142799377  1.0000
  Al  Al2       1.0  0.6491982936859133  0.11003138124942757  0.7431991100311278  1.0000
  Cd  Cd1       1.0  0.8508095741271974  0.7978554964065551  0.18372283875942236  1.0000
  Ge  Ge1       1.0  0.21744264662265778  0.6450222134590149  0.7176122069358826  1.0000
  H   H1        1.0  0.37645024061203003  0.6238399147987366  0.1953961253166198  1.0000
  Na  Na1       1.0  0.7464108467102051  0.3811612725257873  0.2847145795822143  1.0000
  Na  Na2       1.0  0.38623324036598194  0.7290914654731752  0.34376701712608343  1.0000
  Pb  Pb1       1.0  0.2061903178691864  0.35695403814315796  0.29845821857452387  1.0000
  Ti  Ti1       1.0  0.38216400146484375  0.9821369647979736  0.6592890620231628  1.0000
