data_image0
_chemical_formula_structural       Al2CoDyI5
_chemical_formula_sum              "Al2 Co1 Dy1 I5"
_cell_length_a       6.683796642679413
_cell_length_b       6.750577469131024
_cell_length_c       9.611031532287598
_cell_angle_alpha    90.13011850306683
_cell_angle_beta     89.26941532714662
_cell_angle_gamma    90.29654676521181

_space_group_name_H-M_alt    "P 1"
_space_group_IT_number       1

loop_
  _space_group_symop_operation_xyz
  'x, y, z'

loop_
  _atom_site_type_symbol
  _atom_site_label
  _atom_site_symmetry_multiplicity
  _atom_site_fract_x
  _atom_site_fract_y
  _atom_site_fract_z
  _atom_site_occupancy
  Al  Al1       1.0  0.013919743709266186  0.10568197071552277  0.5904723405838013  1.0000
  Al  Al2       1.0  0.8658115863800049  0.8926392197608948  0.5595473647117615  1.0000
  Co  Co1       1.0  0.6507919430732727  0.5617292523384094  0.6267654895782471  1.0000
  Dy  Dy1       1.0  0.8747328519821167  0.3040999174118042  0.18493486940860748  1.0000
  I   I1        1.0  0.8878839612007141  0.6057401895523071  0.46798503398895264  1.0000
  I   I2        1.0  0.24425926804542542  0.24027492105960846  0.49154195189476013  1.0000
  I   I3        1.0  0.8861744403839111  0.28881847858428955  0.07965061813592911  1.0000
  I   I4        1.0  0.38570478558540344  0.19538572430610657  0.30812910199165344  1.0000
  I   I5        1.0  0.38564950227737427  0.06677118688821793  0.21000158786773682  1.0000
