data_image0
_chemical_formula_structural       Al2I4Na2O
_chemical_formula_sum              "Al2 I4 Na2 O1"
_cell_length_a       7.372293223825626
_cell_length_b       7.86699120279656
_cell_length_c       8.00073528289795
_cell_angle_alpha    74.54749250881034
_cell_angle_beta     66.5836142737254
_cell_angle_gamma    62.07014510871717

_space_group_name_H-M_alt    "P 1"
_space_group_IT_number       1

loop_
  _space_group_symop_operation_xyz
  'x, y, z'

loop_
  _atom_site_type_symbol
  _atom_site_label
  _atom_site_symmetry_multiplicity
  _atom_site_fract_x
  _atom_site_fract_y
  _atom_site_fract_z
  _atom_site_occupancy
  Al  Al1       1.0  0.5792221426963806  0.8001680374145508  0.28897804021835327  1.0000
  Al  Al2       1.0  0.4259690344333649  0.8415336608886719  0.49198466539382935  1.0000
  I   I1        1.0  0.07738391309976578  0.6926347017288208  0.5847180485725403  1.0000
  I   I2        1.0  0.8993914127349855  0.9888017177581787  0.9394100308418274  1.0000
  I   I3        1.0  0.44972211122512823  0.585325300693512  0.8600047826766968  1.0000
  I   I4        1.0  0.51807701587677  0.31581246852874756  0.1543911099433899  1.0000
  Na  Na1       1.0  0.979619324207306  0.43996167182922363  0.16248914599418635  1.0000
  Na  Na2       1.0  0.9436481595039369  0.8278228640556335  0.7872632741928101  1.0000
  O   O1        1.0  0.4615891575813294  0.6963824033737183  0.0011691114632412652  1.0000
