data_image0
_chemical_formula_structural       Na5Te4
_chemical_formula_sum              "Na5 Te4"
_cell_length_a       5.545980628181876
_cell_length_b       6.188378442552997
_cell_length_c       8.881880760192871
_cell_angle_alpha    85.82041038634691
_cell_angle_beta     79.84887589453066
_cell_angle_gamma    73.00495831301852

_space_group_name_H-M_alt    "P 1"
_space_group_IT_number       1

loop_
  _space_group_symop_operation_xyz
  'x, y, z'

loop_
  _atom_site_type_symbol
  _atom_site_label
  _atom_site_symmetry_multiplicity
  _atom_site_fract_x
  _atom_site_fract_y
  _atom_site_fract_z
  _atom_site_occupancy
  Na  Na1       1.0  0.20015928149223328  0.9830886125564575  0.8607394099235535  1.0000
  Na  Na2       1.0  0.6917542815208435  0.11814317107200623  0.8898454308509827  1.0000
  Na  Na3       1.0  0.6935001015663147  0.3713488280773163  0.884442925453186  1.0000
  Na  Na4       1.0  0.6956448554992676  0.648905336856842  0.8066752552986145  1.0000
  Na  Na5       1.0  0.7066003680229187  0.2817370295524597  0.7333787679672241  1.0000
  Te  Te1       1.0  0.19337618350982666  0.528581976890564  0.3226785659790039  1.0000
  Te  Te2       1.0  0.17711131274700165  0.9468801617622375  0.8228018879890442  1.0000
  Te  Te3       1.0  0.7128140926361084  0.6969930529594421  0.11070545762777328  1.0000
  Te  Te4       1.0  0.6937898993492126  0.042512696236371994  0.7716065049171448  1.0000
