data_image0
_chemical_formula_structural       I4Li2Na2Zn
_chemical_formula_sum              "I4 Li2 Na2 Zn1"
_cell_length_a       5.678030388784891
_cell_length_b       6.10167122392538
_cell_length_c       9.606569290161133
_cell_angle_alpha    103.76777307993297
_cell_angle_beta     85.7121961007086
_cell_angle_gamma    75.76046598279342

_space_group_name_H-M_alt    "P 1"
_space_group_IT_number       1

loop_
  _space_group_symop_operation_xyz
  'x, y, z'

loop_
  _atom_site_type_symbol
  _atom_site_label
  _atom_site_symmetry_multiplicity
  _atom_site_fract_x
  _atom_site_fract_y
  _atom_site_fract_z
  _atom_site_occupancy
  I   I1        1.0  0.28219783306121826  0.1375778764486313  0.9787179231643677  1.0000
  I   I2        1.0  0.7922062873840332  0.09569914638996124  0.0611569806933403  1.0000
  I   I3        1.0  0.7917525172233582  0.436833918094635  0.2606699466705322  1.0000
  I   I4        1.0  0.5583279132843018  0.5730013251304626  0.7985945343971252  1.0000
  Li  Li1       1.0  0.29737067222595215  0.9191285371780396  0.6879886388778687  1.0000
  Li  Li2       1.0  0.3014964461326599  0.5633831024169922  0.07787510007619856  1.0000
  Na  Na1       1.0  0.28957799077033997  0.8735027313232422  0.6208834648132324  1.0000
  Na  Na2       1.0  0.29570257663726807  0.4782050848007202  0.03185844793915747  1.0000
  Zn  Zn1       1.0  0.7942345142364502  0.8221467733383179  0.0008243999909609324  1.0000
