data_image0
_chemical_formula_structural       Dy6U
_chemical_formula_sum              "Dy6 U1"
_cell_length_a       4.703930486548741
_cell_length_b       5.539000476153964
_cell_length_c       5.81185245513916
_cell_angle_alpha    120.89282146188198
_cell_angle_beta     99.7472151722332
_cell_angle_gamma    90.9150562327417

_space_group_name_H-M_alt    "P 1"
_space_group_IT_number       1

loop_
  _space_group_symop_operation_xyz
  'x, y, z'

loop_
  _atom_site_type_symbol
  _atom_site_label
  _atom_site_symmetry_multiplicity
  _atom_site_fract_x
  _atom_site_fract_y
  _atom_site_fract_z
  _atom_site_occupancy
  Dy  Dy1       1.0  0.8622726798057556  0.2825358808040619  0.6006043553352356  1.0000
  Dy  Dy2       1.0  0.32714030146598816  0.6976813673973083  0.6319951415061951  1.0000
  Dy  Dy3       1.0  0.8622770309448242  0.32326740026474  0.06286434084177017  1.0000
  Dy  Dy4       1.0  0.8560071587562561  0.9322247505187988  0.3595284521579743  1.0000
  Dy  Dy5       1.0  0.3707999587059021  0.07452377676963806  0.3247077167034149  1.0000
  Dy  Dy6       1.0  0.14815562963485718  0.5332041382789612  0.771236777305603  1.0000
  U   U1        1.0  0.3577216565608978  0.6932024955749512  0.8337043523788452  1.0000
