data_image0
_chemical_formula_structural       Dy6Tl
_chemical_formula_sum              "Dy6 Tl1"
_cell_length_a       4.490883870685106
_cell_length_b       6.487121180275578
_cell_length_c       7.3328704833984375
_cell_angle_alpha    116.32961521538412
_cell_angle_beta     90.83331679981266
_cell_angle_gamma    90.41970596896347

_space_group_name_H-M_alt    "P 1"
_space_group_IT_number       1

loop_
  _space_group_symop_operation_xyz
  'x, y, z'

loop_
  _atom_site_type_symbol
  _atom_site_label
  _atom_site_symmetry_multiplicity
  _atom_site_fract_x
  _atom_site_fract_y
  _atom_site_fract_z
  _atom_site_occupancy
  Dy  Dy1       1.0  0.500940203666687  0.534248948097229  0.4599694311618805  1.0000
  Dy  Dy2       1.0  0.9850465655326843  0.9635613560676575  0.05375019833445555  1.0000
  Dy  Dy3       1.0  0.22202043235301971  0.38228049874305725  0.18015901744365695  1.0000
  Dy  Dy4       1.0  0.7095643877983093  0.36643487215042114  0.9169661402702333  1.0000
  Dy  Dy5       1.0  0.982021689414978  0.48485931754112244  0.9284889698028564  1.0000
  Dy  Dy6       1.0  0.2216787338256836  0.6622975468635559  0.07706221193075183  1.0000
  Tl  Tl1       1.0  0.6492944955825806  0.4773050546646118  0.22650301456451416  1.0000
