data_image0
_chemical_formula_structural       Mn2SbTb3Zn
_chemical_formula_sum              "Mn2 Sb1 Tb3 Zn1"
_cell_length_a       5.905030983910926
_cell_length_b       5.90628757413953
_cell_length_c       6.280616283416748
_cell_angle_alpha    59.84029654847983
_cell_angle_beta     61.561261126164425
_cell_angle_gamma    59.40530395740183

_space_group_name_H-M_alt    "P 1"
_space_group_IT_number       1

loop_
  _space_group_symop_operation_xyz
  'x, y, z'

loop_
  _atom_site_type_symbol
  _atom_site_label
  _atom_site_symmetry_multiplicity
  _atom_site_fract_x
  _atom_site_fract_y
  _atom_site_fract_z
  _atom_site_occupancy
  Mn  Mn1       1.0  0.5339483022689819  0.8300139904022217  0.08499018847942352  1.0000
  Mn  Mn2       1.0  0.5296818017959595  0.5883153676986694  0.2603711187839508  1.0000
  Sb  Sb1       1.0  0.5307497382164001  0.08591862767934799  0.8663843870162964  1.0000
  Tb  Tb1       1.0  0.22605934739112854  0.3078795373439789  0.5889753103256226  1.0000
  Tb  Tb2       1.0  0.526380181312561  0.08997714519500732  0.36709415912628174  1.0000
  Tb  Tb3       1.0  0.0335480235517025  0.6031913161277771  0.4373179078102112  1.0000
  Zn  Zn1       1.0  0.5468650460243225  0.3387233316898346  0.09540078788995743  1.0000
