data_image0
_chemical_formula_structural       ErRu2Sb3
_chemical_formula_sum              "Er1 Ru2 Sb3"
_cell_length_a       4.698864739225486
_cell_length_b       4.017436765539059
_cell_length_c       5.403641223907471
_cell_angle_alpha    121.19065077431178
_cell_angle_beta     114.93427526174722
_cell_angle_gamma    121.41809384343982

_space_group_name_H-M_alt    "P 1"
_space_group_IT_number       1

loop_
  _space_group_symop_operation_xyz
  'x, y, z'

loop_
  _atom_site_type_symbol
  _atom_site_label
  _atom_site_symmetry_multiplicity
  _atom_site_fract_x
  _atom_site_fract_y
  _atom_site_fract_z
  _atom_site_occupancy
  Er  Er1       1.0  0.6993589997291563  0.8989090919494627  0.3368892669677733  1.0000
  Ru  Ru1       1.0  0.17662268877029408  0.5495793223381041  0.2666896879673003  1.0000
  Ru  Ru2       1.0  0.6721335649490356  0.34216400980949396  0.09708058089017865  1.0000
  Sb  Sb1       1.0  0.19078700244426716  0.8835543394088744  0.06231685355305665  1.0000
  Sb  Sb2       1.0  0.4315944015979766  0.04448842257261265  0.40449410676956166  1.0000
  Sb  Sb3       1.0  0.7255225181579589  0.19491557776927934  0.4834457635879516  1.0000
