data_image0
_chemical_formula_structural       ClILuReRuSb
_chemical_formula_sum              "Cl1 I1 Lu1 Re1 Ru1 Sb1"
_cell_length_a       4.973641362712406
_cell_length_b       5.707582115704136
_cell_length_c       6.425795078277588
_cell_angle_alpha    113.29715414626658
_cell_angle_beta     108.90383629406779
_cell_angle_gamma    91.47284449519975

_space_group_name_H-M_alt    "P 1"
_space_group_IT_number       1

loop_
  _space_group_symop_operation_xyz
  'x, y, z'

loop_
  _atom_site_type_symbol
  _atom_site_label
  _atom_site_symmetry_multiplicity
  _atom_site_fract_x
  _atom_site_fract_y
  _atom_site_fract_z
  _atom_site_occupancy
  Cl  Cl1       1.0  0.2988854646682739  0.8499355316162109  0.9343863725662233  1.0000
  I   I1        1.0  0.2937155067920685  0.43046125769615173  0.9395971298217775  1.0000
  Lu  Lu1       1.0  0.3010973632335663  0.5957503318786621  0.8140815496444703  1.0000
  Re  Re1       1.0  0.8072462677955627  0.3477374315261841  0.2392240017652512  1.0000
  Ru  Ru1       1.0  0.3082421123981476  0.03966929763555527  0.620689332485199  1.0000
  Sb  Sb1       1.0  0.800259530544281  0.004807591438293457  0.12682749330997467  1.0000
