data_image0
_chemical_formula_structural       Nb5Ru
_chemical_formula_sum              "Nb5 Ru1"
_cell_length_a       1.9575494970457448
_cell_length_b       3.014998625375192
_cell_length_c       7.4219536781311035
_cell_angle_alpha    100.84353012752496
_cell_angle_beta     119.69427634439036
_cell_angle_gamma    90.35171266785619

_space_group_name_H-M_alt    "P 1"
_space_group_IT_number       1

loop_
  _space_group_symop_operation_xyz
  'x, y, z'

loop_
  _atom_site_type_symbol
  _atom_site_label
  _atom_site_symmetry_multiplicity
  _atom_site_fract_x
  _atom_site_fract_y
  _atom_site_fract_z
  _atom_site_occupancy
  Nb  Nb1       1.0  0.5592111349105835  0.7900587916374207  0.09076400101184844  1.0000
  Nb  Nb2       1.0  0.5496587157249451  0.985637366771698  0.20120613276958463  1.0000
  Nb  Nb3       1.0  0.5555692911148071  0.15308715403079987  0.9337865114212036  1.0000
  Nb  Nb4       1.0  0.027083596214652058  0.7524301409721375  0.21345272660255432  1.0000
  Nb  Nb5       1.0  0.03169506415724754  0.5416750311851501  0.4621005356311798  1.0000
  Ru  Ru1       1.0  0.08855795115232466  0.872177243232727  0.9492995142936707  1.0000
