data_image0
_chemical_formula_structural       GaILuNbRu2
_chemical_formula_sum              "Ga1 I1 Lu1 Nb1 Ru2"
_cell_length_a       4.947944414778637
_cell_length_b       4.189893630677362
_cell_length_c       6.446931838989258
_cell_angle_alpha    106.44104890516553
_cell_angle_beta     104.48536279967573
_cell_angle_gamma    123.96313610874797

_space_group_name_H-M_alt    "P 1"
_space_group_IT_number       1

loop_
  _space_group_symop_operation_xyz
  'x, y, z'

loop_
  _atom_site_type_symbol
  _atom_site_label
  _atom_site_symmetry_multiplicity
  _atom_site_fract_x
  _atom_site_fract_y
  _atom_site_fract_z
  _atom_site_occupancy
  Ga  Ga1       1.0  0.6070931553840637  0.5493513345718384  0.033539026975631714  1.0000
  I   I1        1.0  0.08649811893701553  0.34885290265083313  0.05320776998996735  1.0000
  Lu  Lu1       1.0  0.717156171798706  0.6574742794036865  0.7361382842063905  1.0000
  Nb  Nb1       1.0  0.32927992939949036  0.7928522825241089  0.773099184036255  1.0000
  Ru  Ru1       1.0  0.5956623554229736  0.5711190700531006  0.0623030178248882  1.0000
  Ru  Ru2       1.0  0.1730310469865799  0.8652939200401306  0.25968149304389954  1.0000
