data_image0
_chemical_formula_structural       Ge4MnNiSiTaTm3
_chemical_formula_sum              "Ge4 Mn1 Ni1 Si1 Ta1 Tm3"
_cell_length_a       4.141005700694605
_cell_length_b       6.700147280555016
_cell_length_c       8.116710662841797
_cell_angle_alpha    90.32794872699544
_cell_angle_beta     90.33606796124022
_cell_angle_gamma    89.54615738485317

_space_group_name_H-M_alt    "P 1"
_space_group_IT_number       1

loop_
  _space_group_symop_operation_xyz
  'x, y, z'

loop_
  _atom_site_type_symbol
  _atom_site_label
  _atom_site_symmetry_multiplicity
  _atom_site_fract_x
  _atom_site_fract_y
  _atom_site_fract_z
  _atom_site_occupancy
  Ge  Ge1       1.0  0.8709211349487305  0.1543283313512802  0.481950968503952  1.0000
  Ge  Ge2       1.0  0.36766311526298523  0.5986312627792358  0.36241278052330017  1.0000
  Ge  Ge3       1.0  0.3376973569393158  0.12818306684494019  0.24103401601314545  1.0000
  Ge  Ge4       1.0  0.8484493494033813  0.15033453702926636  0.5399386286735535  1.0000
  Mn  Mn1       1.0  0.3648087680339813  0.12363994866609573  0.022345591336488724  1.0000
  Ni  Ni1       1.0  0.8629260659217834  0.6267688870429993  0.733776867389679  1.0000
  Si  Si1       1.0  0.8826418519020081  0.7268596291542053  0.8596771359443665  1.0000
  Ta  Ta1       1.0  0.8597510457038879  0.904621422290802  0.3330874443054199  1.0000
  Tm  Tm1       1.0  0.3658343553543091  0.41331878304481506  0.33672162890434265  1.0000
  Tm  Tm2       1.0  0.345617413520813  0.6277126669883728  0.5941198468208313  1.0000
  Tm  Tm3       1.0  0.3542852997779846  0.6436892151832581  0.2339087873697281  1.0000
