data_image0
_chemical_formula_structural       ClGe4Ni2RhSiTm2
_chemical_formula_sum              "Cl1 Ge4 Ni2 Rh1 Si1 Tm2"
_cell_length_a       4.870672963323344
_cell_length_b       6.28861916383158
_cell_length_c       7.500881671905518
_cell_angle_alpha    90.20838674232118
_cell_angle_beta     89.91385082062561
_cell_angle_gamma    90.31979967183554

_space_group_name_H-M_alt    "P 1"
_space_group_IT_number       1

loop_
  _space_group_symop_operation_xyz
  'x, y, z'

loop_
  _atom_site_type_symbol
  _atom_site_label
  _atom_site_symmetry_multiplicity
  _atom_site_fract_x
  _atom_site_fract_y
  _atom_site_fract_z
  _atom_site_occupancy
  Cl  Cl1       1.0  0.6890659332275391  0.9444785714149475  0.9458767771720886  1.0000
  Ge  Ge1       1.0  0.01955876499414444  0.27213791012763977  0.22908416390419006  1.0000
  Ge  Ge2       1.0  0.38143837451934814  0.8373122215270996  0.23347041010856628  1.0000
  Ge  Ge3       1.0  0.024093614891171455  0.5868281126022339  0.9828674793243407  1.0000
  Ge  Ge4       1.0  0.02133406326174736  0.2472287118434906  0.14714959263801575  1.0000
  Ni  Ni1       1.0  0.5144893527030945  0.2695237100124359  0.7754475474357605  1.0000
  Ni  Ni2       1.0  0.2843000888824463  0.9409194588661194  0.4734184145927429  1.0000
  Rh  Rh1       1.0  0.34480705857276917  0.8264623880386353  0.5039809346199036  1.0000
  Si  Si1       1.0  0.5289331078529358  0.44429606199264526  0.9899951815605162  1.0000
  Tm  Tm1       1.0  0.05654893442988396  0.5982189178466797  0.21707503497600555  1.0000
  Tm  Tm2       1.0  0.03677832707762718  0.4471406638622284  0.08846944570541382  1.0000
