data_image0
_chemical_formula_structural       Ge4MoNi2TlTm3
_chemical_formula_sum              "Ge4 Mo1 Ni2 Tl1 Tm3"
_cell_length_a       4.812097271812393
_cell_length_b       6.846410674586296
_cell_length_c       7.000677108764648
_cell_angle_alpha    90.64630621736711
_cell_angle_beta     88.87582540870622
_cell_angle_gamma    89.57642645502179

_space_group_name_H-M_alt    "P 1"
_space_group_IT_number       1

loop_
  _space_group_symop_operation_xyz
  'x, y, z'

loop_
  _atom_site_type_symbol
  _atom_site_label
  _atom_site_symmetry_multiplicity
  _atom_site_fract_x
  _atom_site_fract_y
  _atom_site_fract_z
  _atom_site_occupancy
  Ge  Ge1       1.0  0.38547366857528687  0.8747965693473816  0.33756089210510254  1.0000
  Ge  Ge2       1.0  0.3974662721157074  0.02373240329325199  0.21919000148773193  1.0000
  Ge  Ge3       1.0  0.6464741826057434  0.7732675671577454  0.12634329497814178  1.0000
  Ge  Ge4       1.0  0.8904464840888977  0.27246347069740295  0.5688366293907166  1.0000
  Mo  Mo1       1.0  0.8915151357650757  0.7715530395507812  0.7005525827407837  1.0000
  Ni  Ni1       1.0  0.38904836773872375  0.267611563205719  0.6042720675468445  1.0000
  Ni  Ni2       1.0  0.3898751139640808  0.9330031275749207  0.8769964575767517  1.0000
  Tl  Tl1       1.0  0.8897138833999634  0.3028625547885895  0.4407256841659546  1.0000
  Tm  Tm1       1.0  0.39545339345932007  0.5177658200263977  0.4488777220249176  1.0000
  Tm  Tm2       1.0  0.8914939165115356  0.28703513741493225  0.31903162598609924  1.0000
  Tm  Tm3       1.0  0.8930387496948242  0.5267232060432434  0.3812238276004791  1.0000
