data_image0
_chemical_formula_structural       AlGe2Ni3STm3Y
_chemical_formula_sum              "Al1 Ge2 Ni3 S1 Tm3 Y1"
_cell_length_a       3.7268769298601674
_cell_length_b       6.342644688770651
_cell_length_c       7.5013885498046875
_cell_angle_alpha    89.27070625473057
_cell_angle_beta     89.82753690802842
_cell_angle_gamma    89.80607923771902

_space_group_name_H-M_alt    "P 1"
_space_group_IT_number       1

loop_
  _space_group_symop_operation_xyz
  'x, y, z'

loop_
  _atom_site_type_symbol
  _atom_site_label
  _atom_site_symmetry_multiplicity
  _atom_site_fract_x
  _atom_site_fract_y
  _atom_site_fract_z
  _atom_site_occupancy
  Al  Al1       1.0  0.7717503309249877  0.6497689485549927  0.8883385062217711  1.0000
  Ge  Ge1       1.0  0.27758532762527466  0.8506290912628174  0.7448325157165526  1.0000
  Ge  Ge2       1.0  0.7720623612403869  0.31017759442329407  0.7483723163604735  1.0000
  Ni  Ni1       1.0  0.775680899620056  0.2608271539211273  0.5762128829956054  1.0000
  Ni  Ni2       1.0  0.7806719541549682  0.8332571387290955  0.19358137249946591  1.0000
  Ni  Ni3       1.0  0.2705133557319641  0.8428319096565247  0.37739050388336176  1.0000
  S   S1        1.0  0.28227782249450684  0.4860618710517884  0.47184193134307856  1.0000
  Tm  Tm1       1.0  0.7721575498580932  0.6450198292732239  0.3815023005008697  1.0000
  Tm  Tm2       1.0  0.2665736675262451  0.1359357386827469  0.2582981288433075  1.0000
  Tm  Tm3       1.0  0.2807196378707886  0.3362094461917877  0.5134310722351074  1.0000
  Y   Y1        1.0  0.7763205170631408  0.8249779343605042  0.7415627241134642  1.0000
