data_image0
_chemical_formula_structural       BiGe2Ni2Te2Tm4
_chemical_formula_sum              "Bi1 Ge2 Ni2 Te2 Tm4"
_cell_length_a       4.5296714693424756
_cell_length_b       6.832345889279714
_cell_length_c       7.058679580688477
_cell_angle_alpha    90.87972704133892
_cell_angle_beta     88.65209264397913
_cell_angle_gamma    91.54952142709384

_space_group_name_H-M_alt    "P 1"
_space_group_IT_number       1

loop_
  _space_group_symop_operation_xyz
  'x, y, z'

loop_
  _atom_site_type_symbol
  _atom_site_label
  _atom_site_symmetry_multiplicity
  _atom_site_fract_x
  _atom_site_fract_y
  _atom_site_fract_z
  _atom_site_occupancy
  Bi  Bi1       1.0  0.886371910572052  0.8539751172065735  0.11323845386505126  1.0000
  Ge  Ge1       1.0  0.8895644545555115  0.14772719144821167  0.3814789652824402  1.0000
  Ge  Ge2       1.0  0.3853068947792053  0.5164430737495422  0.06813676655292511  1.0000
  Ni  Ni1       1.0  0.3981168270111084  0.9743149280548095  0.4947910010814666  1.0000
  Ni  Ni2       1.0  0.36150065064430237  0.4859924912452697  0.37644949555397034  1.0000
  Te  Te1       1.0  0.36108484864234924  0.587204098701477  0.8949998021125792  1.0000
  Te  Te2       1.0  0.383926123380661  0.1423223614692688  0.745024561882019  1.0000
  Tm  Tm1       1.0  0.8477495908737183  0.9841914772987365  0.9858204126358031  1.0000
  Tm  Tm2       1.0  0.386138916015625  0.3047773241996765  0.8946073055267333  1.0000
  Tm  Tm3       1.0  0.39141756296157837  0.5262137055397034  0.1789509356021881  1.0000
  Tm  Tm4       1.0  0.8881763815879822  0.858143150806427  0.10463680326938629  1.0000
