data_image0
_chemical_formula_structural       ClGe3Ni2TlTm3Y
_chemical_formula_sum              "Cl1 Ge3 Ni2 Tl1 Tm3 Y1"
_cell_length_a       4.414111403627678
_cell_length_b       6.727960354326759
_cell_length_c       7.2801618576049805
_cell_angle_alpha    90.63614214145099
_cell_angle_beta     89.35171062286929
_cell_angle_gamma    89.72278409949166

_space_group_name_H-M_alt    "P 1"
_space_group_IT_number       1

loop_
  _space_group_symop_operation_xyz
  'x, y, z'

loop_
  _atom_site_type_symbol
  _atom_site_label
  _atom_site_symmetry_multiplicity
  _atom_site_fract_x
  _atom_site_fract_y
  _atom_site_fract_z
  _atom_site_occupancy
  Cl  Cl1       1.0  0.7229461073875427  0.6568233966827393  0.3596717417240143  1.0000
  Ge  Ge1       1.0  0.7277995347976685  0.6393649578094482  0.5229410529136658  1.0000
  Ge  Ge2       1.0  0.22506000101566315  0.15532520413398743  0.020631100982427597  1.0000
  Ge  Ge3       1.0  0.7232632637023926  0.6506391763687134  0.02931502647697926  1.0000
  Ni  Ni1       1.0  0.2280808836221695  0.5906659960746765  0.2340631186962128  1.0000
  Ni  Ni2       1.0  0.7253607511520386  0.30621227622032166  0.12089200317859651  1.0000
  Tl  Tl1       1.0  0.7333930730819702  0.14910131692886353  0.7129561901092529  1.0000
  Tm  Tm1       1.0  0.22557486593723297  0.671256422996521  0.8754483461380006  1.0000
  Tm  Tm2       1.0  0.7276515960693359  0.917682409286499  0.525384783744812  1.0000
  Tm  Tm3       1.0  0.22780145704746246  0.9378057718276979  0.8786658048629762  1.0000
  Y   Y1        1.0  0.22717131674289703  0.4119168817996979  0.5248011946678162  1.0000
