data_image0
_chemical_formula_structural       BaZnZr7
_chemical_formula_sum              "Ba1 Zn1 Zr7"
_cell_length_a       4.923953318565357
_cell_length_b       6.106963542439016
_cell_length_c       8.219412803649902
_cell_angle_alpha    121.05176217060699
_cell_angle_beta     89.94059681674186
_cell_angle_gamma    86.90957879207912

_space_group_name_H-M_alt    "P 1"
_space_group_IT_number       1

loop_
  _space_group_symop_operation_xyz
  'x, y, z'

loop_
  _atom_site_type_symbol
  _atom_site_label
  _atom_site_symmetry_multiplicity
  _atom_site_fract_x
  _atom_site_fract_y
  _atom_site_fract_z
  _atom_site_occupancy
  Ba  Ba1       1.0  0.14311614632606506  0.21574775874614716  0.7555232048034668  1.0000
  Zn  Zn1       1.0  0.14573489129543304  0.6985003352165222  0.10176075249910355  1.0000
  Zr  Zr1       1.0  0.6450810432434082  0.18608751893043518  0.49520695209503174  1.0000
  Zr  Zr2       1.0  0.6429051756858826  0.9130299091339111  0.425198882818222  1.0000
  Zr  Zr3       1.0  0.6467400193214417  0.9377672672271729  0.917365312576294  1.0000
  Zr  Zr4       1.0  0.14729534089565277  0.7795988321304321  0.625536322593689  1.0000
  Zr  Zr5       1.0  0.14834965765476227  0.6957836747169495  0.7929477691650391  1.0000
  Zr  Zr6       1.0  0.6456884145736694  0.7879335880279541  0.4773684442043304  1.0000
  Zr  Zr7       1.0  0.147248774766922  0.4019384980201721  0.6473397016525269  1.0000
