data_image0
_chemical_formula_structural       BiHZr7
_chemical_formula_sum              "Bi1 H1 Zr7"
_cell_length_a       4.500224390291568
_cell_length_b       5.6783908232764535
_cell_length_c       6.419965744018555
_cell_angle_alpha    129.48234783894742
_cell_angle_beta     89.81427881506076
_cell_angle_gamma    88.13868289108134

_space_group_name_H-M_alt    "P 1"
_space_group_IT_number       1

loop_
  _space_group_symop_operation_xyz
  'x, y, z'

loop_
  _atom_site_type_symbol
  _atom_site_label
  _atom_site_symmetry_multiplicity
  _atom_site_fract_x
  _atom_site_fract_y
  _atom_site_fract_z
  _atom_site_occupancy
  Bi  Bi1       1.0  0.35861262679100037  0.7231501936912537  0.5321725606918335  1.0000
  H   H1        1.0  0.3629063367843628  0.009433841332793236  0.6867402195930481  1.0000
  Zr  Zr1       1.0  0.8673964142799377  0.586357831954956  0.45824494957923884  1.0000
  Zr  Zr2       1.0  0.869373619556427  0.6312410235404968  0.5506945252418518  1.0000
  Zr  Zr3       1.0  0.8646112084388733  0.22470957040786743  0.3175532817840576  1.0000
  Zr  Zr4       1.0  0.8663774728775024  0.537993311882019  0.44441565871238703  1.0000
  Zr  Zr5       1.0  0.863904595375061  0.3650660812854767  0.8671149611473083  1.0000
  Zr  Zr6       1.0  0.36594247817993164  0.6160301566123962  0.1899584680795669  1.0000
  Zr  Zr7       1.0  0.8722707629203796  0.6363956332206726  0.6021439433097839  1.0000
