data_image0
_chemical_formula_structural       Ba6HfZr2
_chemical_formula_sum              "Ba6 Hf1 Zr2"
_cell_length_a       5.740429016119294
_cell_length_b       7.209000821601524
_cell_length_c       8.076828002929688
_cell_angle_alpha    124.79180759112391
_cell_angle_beta     91.84842513167483
_cell_angle_gamma    88.32565448209171

_space_group_name_H-M_alt    "P 1"
_space_group_IT_number       1

loop_
  _space_group_symop_operation_xyz
  'x, y, z'

loop_
  _atom_site_type_symbol
  _atom_site_label
  _atom_site_symmetry_multiplicity
  _atom_site_fract_x
  _atom_site_fract_y
  _atom_site_fract_z
  _atom_site_occupancy
  Ba  Ba1       1.0  0.7781333327293397  0.05740456283092499  0.7200421690940857  1.0000
  Ba  Ba2       1.0  0.28031593561172485  0.6401663422584534  0.40750089287757874  1.0000
  Ba  Ba3       1.0  0.6282682418823242  0.4989452660083771  0.8108282685279846  1.0000
  Ba  Ba4       1.0  0.28295770287513733  0.7363134026527405  0.06903310120105743  1.0000
  Ba  Ba5       1.0  0.7852138876914979  0.5382578372955322  0.0021266438998281405  1.0000
  Ba  Ba6       1.0  0.2619240880012512  0.9237434267997742  0.8460613489151001  1.0000
  Hf  Hf1       1.0  0.7555445432662964  0.2523052990436554  0.886547863483429  1.0000
  Zr  Zr1       1.0  0.28877896070480347  0.13955295085906982  0.10397616028785706  1.0000
  Zr  Zr2       1.0  0.7813084721565248  0.8064032196998596  0.4111186265945434  1.0000
