data_image0
_chemical_formula_structural       BaHZnZr6
_chemical_formula_sum              "Ba1 H1 Zn1 Zr6"
_cell_length_a       4.240680928433961
_cell_length_b       6.757995278928353
_cell_length_c       7.811232566833496
_cell_angle_alpha    122.17022828532603
_cell_angle_beta     90.16186786360879
_cell_angle_gamma    89.87998149529668

_space_group_name_H-M_alt    "P 1"
_space_group_IT_number       1

loop_
  _space_group_symop_operation_xyz
  'x, y, z'

loop_
  _atom_site_type_symbol
  _atom_site_label
  _atom_site_symmetry_multiplicity
  _atom_site_fract_x
  _atom_site_fract_y
  _atom_site_fract_z
  _atom_site_occupancy
  Ba  Ba1       1.0  0.5576444864273071  0.05931225046515464  0.8386392593383789  1.0000
  H   H1        1.0  0.550809383392334  0.9060244560241698  0.28863245248794556  1.0000
  Zn  Zn1       1.0  0.5504804253578186  0.32273125648498535  0.37384212017059326  1.0000
  Zr  Zr1       1.0  0.5573477149009705  0.6392025947570801  0.44707995653152466  1.0000
  Zr  Zr2       1.0  0.054324787110090256  0.11983462423086165  0.8714386224746704  1.0000
  Zr  Zr3       1.0  0.05043300986289978  0.2856442630290985  0.39555731415748596  1.0000
  Zr  Zr4       1.0  0.548757016658783  0.02944173105061054  0.46696242690086365  1.0000
  Zr  Zr5       1.0  0.05143051594495773  0.35800987482070923  0.572023332118988  1.0000
  Zr  Zr6       1.0  0.5574238300323486  0.5255555510520935  0.9298167824745178  1.0000
