data_image0
_chemical_formula_structural       Co2Sc5
_chemical_formula_sum              "Co2 Sc5"
_cell_length_a       4.32435091591611
_cell_length_b       5.227881352104906
_cell_length_c       7.317993640899658
_cell_angle_alpha    108.96990409955426
_cell_angle_beta     101.88868895145856
_cell_angle_gamma    90.62444988830454

_space_group_name_H-M_alt    "P 1"
_space_group_IT_number       1

loop_
  _space_group_symop_operation_xyz
  'x, y, z'

loop_
  _atom_site_type_symbol
  _atom_site_label
  _atom_site_symmetry_multiplicity
  _atom_site_fract_x
  _atom_site_fract_y
  _atom_site_fract_z
  _atom_site_occupancy
  Co  Co1       1.0  0.26213911175727844  0.18042711913585663  0.19684003293514252  1.0000
  Co  Co2       1.0  0.26276227831840515  0.17379996180534363  0.17743627727031708  1.0000
  Sc  Sc1       1.0  0.17947711050510406  0.786983072757721  0.47524359822273254  1.0000
  Sc  Sc2       1.0  0.07000047713518143  0.5325689911842346  0.8523489832878113  1.0000
  Sc  Sc3       1.0  0.8635462522506714  0.1925409883260727  0.5033739805221558  1.0000
  Sc  Sc4       1.0  0.7365580201148987  0.314884752035141  0.9180052280426025  1.0000
  Sc  Sc5       1.0  0.4794198274612427  0.6055260300636292  0.6202844381332397  1.0000
