data_image0
_chemical_formula_structural       Co2Sc5
_chemical_formula_sum              "Co2 Sc5"
_cell_length_a       5.078744955902897
_cell_length_b       6.277823999647564
_cell_length_c       7.731163501739502
_cell_angle_alpha    111.72325337906798
_cell_angle_beta     86.74914750359908
_cell_angle_gamma    108.7409691971477

_space_group_name_H-M_alt    "P 1"
_space_group_IT_number       1

loop_
  _space_group_symop_operation_xyz
  'x, y, z'

loop_
  _atom_site_type_symbol
  _atom_site_label
  _atom_site_symmetry_multiplicity
  _atom_site_fract_x
  _atom_site_fract_y
  _atom_site_fract_z
  _atom_site_occupancy
  Co  Co1       1.0  0.25853368639945984  0.40039196610450745  0.580619215965271  1.0000
  Co  Co2       1.0  0.6529151201248169  0.6422529220581055  0.870765745639801  1.0000
  Sc  Sc1       1.0  0.4401443898677826  0.020840587094426155  0.5955377817153931  1.0000
  Sc  Sc2       1.0  0.9954067468643188  0.07438434660434723  0.07453525811433792  1.0000
  Sc  Sc3       1.0  0.9263801574707031  0.014573970809578896  0.6482985615730286  1.0000
  Sc  Sc4       1.0  0.7865015268325806  0.39220473170280457  0.5261356234550476  1.0000
  Sc  Sc5       1.0  0.35398319363594055  0.6152966022491455  0.6015769243240356  1.0000
