data_image0
_chemical_formula_structural       Co3Sc4
_chemical_formula_sum              "Co3 Sc4"
_cell_length_a       4.468250743833863
_cell_length_b       4.850064202002374
_cell_length_c       5.596044063568115
_cell_angle_alpha    62.26440107220207
_cell_angle_beta     64.97378766312929
_cell_angle_gamma    61.72433591546739

_space_group_name_H-M_alt    "P 1"
_space_group_IT_number       1

loop_
  _space_group_symop_operation_xyz
  'x, y, z'

loop_
  _atom_site_type_symbol
  _atom_site_label
  _atom_site_symmetry_multiplicity
  _atom_site_fract_x
  _atom_site_fract_y
  _atom_site_fract_z
  _atom_site_occupancy
  Co  Co1       1.0  0.46744871139526367  0.18022316694259644  0.14452685415744781  1.0000
  Co  Co2       1.0  0.9556631445884705  0.7024204730987549  0.6437016725540161  1.0000
  Co  Co3       1.0  0.34472230076789856  0.02281503565609455  0.5720131397247314  1.0000
  Sc  Sc1       1.0  0.9476928114891052  0.1336260885000229  0.8818665742874146  1.0000
  Sc  Sc2       1.0  0.37418580055236816  0.16658622026443481  0.7764381766319275  1.0000
  Sc  Sc3       1.0  0.4129447937011719  0.5791921615600586  0.20343957841396332  1.0000
  Sc  Sc4       1.0  0.9769025444984436  0.6814417243003845  0.9107111692428589  1.0000
