data_image0
_chemical_formula_structural       CHg5NO6PtSi
_chemical_formula_sum              "C1 Hg5 N1 O6 Pt1 Si1"
_cell_length_a       6.41734932998672
_cell_length_b       6.786452295152698
_cell_length_c       6.752060413360596
_cell_angle_alpha    63.01183977849731
_cell_angle_beta     62.82416834298636
_cell_angle_gamma    63.85673417014243

_space_group_name_H-M_alt    "P 1"
_space_group_IT_number       1

loop_
  _space_group_symop_operation_xyz
  'x, y, z'

loop_
  _atom_site_type_symbol
  _atom_site_label
  _atom_site_symmetry_multiplicity
  _atom_site_fract_x
  _atom_site_fract_y
  _atom_site_fract_z
  _atom_site_occupancy
  C   C1        1.0  0.807947039604187  0.9112300276756287  0.04703320190310478  1.0000
  Hg  Hg1       1.0  0.4184730052947998  0.4117583930492401  0.9214357733726501  1.0000
  Hg  Hg2       1.0  0.9318562746047974  0.920593798160553  0.8229194283485413  1.0000
  Hg  Hg3       1.0  0.20621953904628754  0.4393746852874756  0.026431972160935402  1.0000
  Hg  Hg4       1.0  0.9497995972633362  0.9372444152832031  0.5834236145019531  1.0000
  Hg  Hg5       1.0  0.4580996632575989  0.42692089080810547  0.0572289377450943  1.0000
  N   N1        1.0  0.901745080947876  0.4236864447593689  0.2863280773162842  1.0000
  O   O1        1.0  0.615153968334198  0.9190722703933716  0.2947103977203369  1.0000
  O   O2        1.0  0.938219428062439  0.4467715322971344  0.8136987090110779  1.0000
  O   O3        1.0  0.4162248373031616  0.9300221800804138  0.6023381352424622  1.0000
  O   O4        1.0  0.918035089969635  0.9501245021820068  0.42247137427330017  1.0000
  O   O5        1.0  0.21001267433166504  0.4402036666870117  0.22863535583019257  1.0000
  O   O6        1.0  0.7932351231575012  0.9381736516952515  0.9361539483070374  1.0000
  Pt  Pt1       1.0  0.9360284805297852  0.9247182607650757  0.33536699414253235  1.0000
  Si  Si1       1.0  0.4439495801925659  0.9152300953865051  0.5547226667404175  1.0000
