data_image0
_chemical_formula_structural       CHg5N2O5SiV
_chemical_formula_sum              "C1 Hg5 N2 O5 Si1 V1"
_cell_length_a       6.5530729694906915
_cell_length_b       6.951320242742106
_cell_length_c       6.885932922363281
_cell_angle_alpha    66.92169059235972
_cell_angle_beta     64.14275766635225
_cell_angle_gamma    65.57484638586826

_space_group_name_H-M_alt    "P 1"
_space_group_IT_number       1

loop_
  _space_group_symop_operation_xyz
  'x, y, z'

loop_
  _atom_site_type_symbol
  _atom_site_label
  _atom_site_symmetry_multiplicity
  _atom_site_fract_x
  _atom_site_fract_y
  _atom_site_fract_z
  _atom_site_occupancy
  C   C1        1.0  0.7711642384529114  0.3462006747722626  0.9116616845130922  1.0000
  Hg  Hg1       1.0  0.6323735117912292  0.6785515546798706  0.8787184953689576  1.0000
  Hg  Hg2       1.0  0.1298527866601944  0.6631207466125488  0.9800610542297364  1.0000
  Hg  Hg3       1.0  0.6279227137565613  0.30759987235069275  0.6287375688552856  1.0000
  Hg  Hg4       1.0  0.6781463027000427  0.32414767146110535  0.5839075446128845  1.0000
  Hg  Hg5       1.0  0.0761326402425766  0.7473127245903015  0.3769907057285309  1.0000
  N   N1        1.0  0.41330626606941223  0.008624747395515442  0.49432772397995  1.0000
  N   N2        1.0  0.791970431804657  0.6276667714118958  0.13896574079990387  1.0000
  O   O1        1.0  0.6472249627113342  0.3300101161003113  0.6301540732383728  1.0000
  O   O2        1.0  0.24010077118873602  0.9873610138893126  0.8109931945800781  1.0000
  O   O3        1.0  0.15375855565071106  0.3397795557975769  0.47776743769645696  1.0000
  O   O4        1.0  0.7423323392868042  0.9372640252113341  0.5526542067527771  1.0000
  O   O5        1.0  0.7571123242378235  0.6990755796432495  0.7575532793998718  1.0000
  Si  Si1       1.0  0.8729753494262695  0.3462049067020416  0.15494610369205475  1.0000
  V   V1        1.0  0.38980141282081604  0.3162839114665985  0.1236797720193863  1.0000
