data_image0
_chemical_formula_structural       Hg6N3O5Si
_chemical_formula_sum              "Hg6 N3 O5 Si1"
_cell_length_a       6.39268842542979
_cell_length_b       6.967260442978377
_cell_length_c       6.8454270362854
_cell_angle_alpha    71.45112401416588
_cell_angle_beta     67.72404780901117
_cell_angle_gamma    70.25184927509095

_space_group_name_H-M_alt    "P 1"
_space_group_IT_number       1

loop_
  _space_group_symop_operation_xyz
  'x, y, z'

loop_
  _atom_site_type_symbol
  _atom_site_label
  _atom_site_symmetry_multiplicity
  _atom_site_fract_x
  _atom_site_fract_y
  _atom_site_fract_z
  _atom_site_occupancy
  Hg  Hg1       1.0  0.8397870063781738  0.9923643469810486  0.30149081349372864  1.0000
  Hg  Hg2       1.0  0.10799279063940048  0.9844601154327393  0.10694186389446259  1.0000
  Hg  Hg3       1.0  0.3570629954338074  0.3248922526836395  0.27265819907188416  1.0000
  Hg  Hg4       1.0  0.6729145050048828  0.9863447546958923  0.7882837057113647  1.0000
  Hg  Hg5       1.0  0.34668853878974915  0.9469437003135681  0.4434410631656647  1.0000
  Hg  Hg6       1.0  0.3470251262187958  0.6377061009407043  0.3568248152732849  1.0000
  N   N1        1.0  0.973462700843811  0.5478110909461975  0.9340227246284485  1.0000
  N   N2        1.0  0.5789256691932678  0.5294002294540405  0.4417506456375122  1.0000
  N   N3        1.0  0.2516620457172394  0.7838784456253052  0.5468963980674744  1.0000
  O   O1        1.0  0.5591683387756348  0.983405351638794  0.43123775720596313  1.0000
  O   O2        1.0  0.37034350633621216  0.8988795280456543  0.4081170856952667  1.0000
  O   O3        1.0  0.9168624877929688  0.23442687094211578  0.6548659205436707  1.0000
  O   O4        1.0  0.07543216645717621  0.7227004170417786  0.8772555589675903  1.0000
  O   O5        1.0  0.05579278990626335  0.4483068585395813  0.18471762537956238  1.0000
  Si  Si1       1.0  0.6991971135139465  0.7129249572753906  0.9170535206794739  1.0000
