data_image0
_chemical_formula_structural       C2Hg7NO5
_chemical_formula_sum              "C2 Hg7 N1 O5"
_cell_length_a       6.368948668953842
_cell_length_b       6.908783071315624
_cell_length_c       6.784576416015625
_cell_angle_alpha    67.83625317006383
_cell_angle_beta     66.0919729955859
_cell_angle_gamma    65.98512103850327

_space_group_name_H-M_alt    "P 1"
_space_group_IT_number       1

loop_
  _space_group_symop_operation_xyz
  'x, y, z'

loop_
  _atom_site_type_symbol
  _atom_site_label
  _atom_site_symmetry_multiplicity
  _atom_site_fract_x
  _atom_site_fract_y
  _atom_site_fract_z
  _atom_site_occupancy
  C   C1        1.0  0.9290168285369872  0.7392439246177673  0.3981776237487793  1.0000
  C   C2        1.0  0.16251276433467865  0.3678171634674072  0.8862189650535583  1.0000
  Hg  Hg1       1.0  0.8468439579010009  0.05521559342741966  0.9154600501060488  1.0000
  Hg  Hg2       1.0  0.16489142179489136  0.7396855354309082  0.6534748077392578  1.0000
  Hg  Hg3       1.0  0.7227162718772888  0.2289310246706009  0.5331959128379822  1.0000
  Hg  Hg4       1.0  0.7014114856719971  0.0434819757938385  0.024285225197672844  1.0000
  Hg  Hg5       1.0  0.17075064778327942  0.5261104702949524  0.1916402131319046  1.0000
  Hg  Hg6       1.0  0.341211199760437  0.07564246654510498  0.2982538044452667  1.0000
  Hg  Hg7       1.0  0.20437918603420258  0.008449099026620388  0.6416404247283936  1.0000
  N   N1        1.0  0.8932840228080748  0.5915660262107849  0.16055357456207275  1.0000
  O   O1        1.0  0.8980613946914672  0.5748311877250671  0.20592395961284643  1.0000
  O   O2        1.0  0.38218745589256287  0.25049540400505066  0.5820571780204773  1.0000
  O   O3        1.0  0.6900157928466797  0.5143340229988098  0.7000858783721924  1.0000
  O   O4        1.0  0.7216688990592957  0.5227745175361633  0.489692747592926  1.0000
  O   O5        1.0  0.34915173053741455  0.020910274237394333  0.6556323766708374  1.0000
