data_image0
_chemical_formula_structural       Hg8N2O5
_chemical_formula_sum              "Hg8 N2 O5"
_cell_length_a       7.005861618725449
_cell_length_b       8.411211331333558
_cell_length_c       8.526843070983887
_cell_angle_alpha    113.10066615668843
_cell_angle_beta     101.8356045888896
_cell_angle_gamma    106.76667653050015

_space_group_name_H-M_alt    "P 1"
_space_group_IT_number       1

loop_
  _space_group_symop_operation_xyz
  'x, y, z'

loop_
  _atom_site_type_symbol
  _atom_site_label
  _atom_site_symmetry_multiplicity
  _atom_site_fract_x
  _atom_site_fract_y
  _atom_site_fract_z
  _atom_site_occupancy
  Hg  Hg1       1.0  0.9045690894126892  0.5483688712120056  0.21233250200748438  1.0000
  Hg  Hg2       1.0  0.09165149927139282  0.2784844636917114  0.6779807209968567  1.0000
  Hg  Hg3       1.0  0.3568222224712372  0.06484216451644897  0.4338262975215912  1.0000
  Hg  Hg4       1.0  0.8680540919303894  0.9370521903038024  0.48508954048156727  1.0000
  Hg  Hg5       1.0  0.6076338887214661  0.7371642589569092  0.0675442144274711  1.0000
  Hg  Hg6       1.0  0.34745046496391296  0.6225830912590027  0.40321034193038935  1.0000
  Hg  Hg7       1.0  0.8636980056762695  0.16289494931697845  0.4575278162956238  1.0000
  Hg  Hg8       1.0  0.9237556457519531  0.7491478323936462  0.11258345097303385  1.0000
  N   N1        1.0  0.4391401410102844  0.046200547367334366  0.4257381558418274  1.0000
  N   N2        1.0  0.007477979175746424  0.24263978004455564  0.20925819873809814  1.0000
  O   O1        1.0  0.5931469798088074  0.9363520741462706  0.6794971823692321  1.0000
  O   O2        1.0  0.5687766671180725  0.16032274067401886  0.2331259399652481  1.0000
  O   O3        1.0  0.42135146260261536  0.16759046912193298  0.2807319164276123  1.0000
  O   O4        1.0  0.09089556336402893  0.5868090987205505  0.6955409049987793  1.0000
  O   O5        1.0  0.25291475653648376  0.7693474292755127  0.9015998840332031  1.0000
