data_image0
_chemical_formula_structural       Hg8N3O4
_chemical_formula_sum              "Hg8 N3 O4"
_cell_length_a       6.0949968989848005
_cell_length_b       8.45021971139422
_cell_length_c       9.196517944335938
_cell_angle_alpha    113.57320435330008
_cell_angle_beta     90.62477953020871
_cell_angle_gamma    103.5356460096099

_space_group_name_H-M_alt    "P 1"
_space_group_IT_number       1

loop_
  _space_group_symop_operation_xyz
  'x, y, z'

loop_
  _atom_site_type_symbol
  _atom_site_label
  _atom_site_symmetry_multiplicity
  _atom_site_fract_x
  _atom_site_fract_y
  _atom_site_fract_z
  _atom_site_occupancy
  Hg  Hg1       1.0  0.14513249695301056  0.5318444967269897  0.477846622467041  1.0000
  Hg  Hg2       1.0  0.4171659648418426  0.030709894374012944  0.6387094259262085  1.0000
  Hg  Hg3       1.0  0.4118355810642242  0.7778919339179992  0.6685883402824402  1.0000
  Hg  Hg4       1.0  0.4027674198150634  0.1909208297729492  0.76957768201828  1.0000
  Hg  Hg5       1.0  0.6571992039680481  0.8555020093917846  0.4044148623943329  1.0000
  Hg  Hg6       1.0  0.9128511548042296  0.04060528427362442  0.1596960574388504  1.0000
  Hg  Hg7       1.0  0.6293038725852966  0.6043468117713928  0.40108025074005127  1.0000
  Hg  Hg8       1.0  0.9155806303024291  0.5077115893363953  0.1150662750005722  1.0000
  N   N1        1.0  0.9814932346343993  0.539907693862915  0.2223862260580063  1.0000
  N   N2        1.0  0.46738439798355097  0.2572548985481262  0.6027393341064453  1.0000
  N   N3        1.0  0.48411515355110163  0.7821887135505675  0.581926703453064  1.0000
  O   O1        1.0  0.6273345947265625  0.7899408936500548  0.8981715440750122  1.0000
  O   O2        1.0  0.15980122983455658  0.23869748413562772  0.47456371784210205  1.0000
  O   O3        1.0  0.9010022282600402  0.22041809558868405  0.7452343106269836  1.0000
  O   O4        1.0  0.1403206437826156  0.6896975636482238  0.23194298148155212  1.0000
