data_image0
_chemical_formula_structural       BNi3Sc6Si
_chemical_formula_sum              "B1 Ni3 Sc6 Si1"
_cell_length_a       5.134396712287654
_cell_length_b       6.12849290742935
_cell_length_c       6.052797317504883
_cell_angle_alpha    61.1963617591411
_cell_angle_beta     62.41268461990578
_cell_angle_gamma    60.94332046384521

_space_group_name_H-M_alt    "P 1"
_space_group_IT_number       1

loop_
  _space_group_symop_operation_xyz
  'x, y, z'

loop_
  _atom_site_type_symbol
  _atom_site_label
  _atom_site_symmetry_multiplicity
  _atom_site_fract_x
  _atom_site_fract_y
  _atom_site_fract_z
  _atom_site_occupancy
  B   B1        1.0  0.31997084617614746  0.8526750802993774  0.7263340950012207  1.0000
  Ni  Ni1       1.0  0.4467529058456421  0.07581755518913269  0.07624853402376175  1.0000
  Ni  Ni2       1.0  0.15308701992034907  0.92028146982193  0.986144483089447  1.0000
  Ni  Ni3       1.0  0.5412562489509583  0.10208328068256378  0.40475839376449585  1.0000
  Sc  Sc1       1.0  0.44033995270729065  0.6229838728904724  0.9370986223220825  1.0000
  Sc  Sc2       1.0  0.4277143180370331  0.4855006039142609  0.3037603795528412  1.0000
  Sc  Sc3       1.0  0.8275918960571289  0.8966547250747681  0.1626605987548828  1.0000
  Sc  Sc4       1.0  0.8341330885887146  0.38255760073661804  0.3802597224712371  1.0000
  Sc  Sc5       1.0  0.542243480682373  0.1645171195268631  0.9645634293556213  1.0000
  Sc  Sc6       1.0  0.07669024914503098  0.6602312326431274  0.6353169083595276  1.0000
  Si  Si1       1.0  0.365326851606369  0.3228707015514374  0.6967050433158875  1.0000
