data_image0
_chemical_formula_structural       Ni3Sc5Si3
_chemical_formula_sum              "Ni3 Sc5 Si3"
_cell_length_a       4.972510919852484
_cell_length_b       6.181019108490297
_cell_length_c       6.757810592651367
_cell_angle_alpha    64.9338185813131
_cell_angle_beta     65.55211692521492
_cell_angle_gamma    65.28720515283003

_space_group_name_H-M_alt    "P 1"
_space_group_IT_number       1

loop_
  _space_group_symop_operation_xyz
  'x, y, z'

loop_
  _atom_site_type_symbol
  _atom_site_label
  _atom_site_symmetry_multiplicity
  _atom_site_fract_x
  _atom_site_fract_y
  _atom_site_fract_z
  _atom_site_occupancy
  Ni  Ni1       1.0  0.8495101928710938  0.5472238063812256  0.6932598352432251  1.0000
  Ni  Ni2       1.0  0.23074720799922943  0.5906294584274292  0.07766318321228027  1.0000
  Ni  Ni3       1.0  0.0018735870253294706  0.1528162807226181  0.9285858869552612  1.0000
  Sc  Sc1       1.0  0.9707810282707214  0.2198771983385086  0.20322924852371216  1.0000
  Sc  Sc2       1.0  0.4458483159542084  0.21765461564064026  0.8090287446975708  1.0000
  Sc  Sc3       1.0  0.4000079929828644  0.9097306728363037  0.4125935137271881  1.0000
  Sc  Sc4       1.0  0.07750412821769714  0.061478424817323685  0.24341122806072235  1.0000
  Sc  Sc5       1.0  0.6800452470779419  0.5421139001846313  0.10146354138851166  1.0000
  Si  Si1       1.0  0.6797437071800232  0.756169319152832  0.474298357963562  1.0000
  Si  Si2       1.0  0.743044376373291  0.10185212641954422  0.2460455298423767  1.0000
  Si  Si3       1.0  0.8818151354789734  0.9156662821769714  0.3329932689666748  1.0000
