data_image0
_chemical_formula_structural       BNi3Sc7
_chemical_formula_sum              "B1 Ni3 Sc7"
_cell_length_a       5.282389340737522
_cell_length_b       5.823922732918535
_cell_length_c       7.845088005065918
_cell_angle_alpha    73.1848884561965
_cell_angle_beta     70.89949601944058
_cell_angle_gamma    61.91261804689232

_space_group_name_H-M_alt    "P 1"
_space_group_IT_number       1

loop_
  _space_group_symop_operation_xyz
  'x, y, z'

loop_
  _atom_site_type_symbol
  _atom_site_label
  _atom_site_symmetry_multiplicity
  _atom_site_fract_x
  _atom_site_fract_y
  _atom_site_fract_z
  _atom_site_occupancy
  B   B1        1.0  0.3038105070590973  0.8793041706085205  0.6024699211120605  1.0000
  Ni  Ni1       1.0  0.7236133217811584  0.09310931712388992  0.6842431426048279  1.0000
  Ni  Ni2       1.0  0.7862798571586609  0.3879989683628082  0.8993037343025208  1.0000
  Ni  Ni3       1.0  0.6645424365997314  0.17793861031532288  0.4147826135158539  1.0000
  Sc  Sc1       1.0  0.440179705619812  0.6502323746681213  0.8788843750953674  1.0000
  Sc  Sc2       1.0  0.047277096658945084  0.4000905454158783  0.4875050485134124  1.0000
  Sc  Sc3       1.0  0.5577100515365601  0.40080374479293823  0.008065498434007168  1.0000
  Sc  Sc4       1.0  0.1271662414073944  0.3012780547142029  0.8233606219291687  1.0000
  Sc  Sc5       1.0  0.25923988223075867  0.1506904810667038  0.12214529514312744  1.0000
  Sc  Sc6       1.0  0.23589646816253662  0.6462929844856262  0.1763896495103836  1.0000
  Sc  Sc7       1.0  0.7620765566825867  0.9306067228317261  0.8605698347091675  1.0000
