data_image0
_chemical_formula_structural       BBi3Ni3Sc4
_chemical_formula_sum              "B1 Bi3 Ni3 Sc4"
_cell_length_a       5.780771717681059
_cell_length_b       6.364132312864951
_cell_length_c       7.057379245758057
_cell_angle_alpha    66.16003787777193
_cell_angle_beta     63.280425772863985
_cell_angle_gamma    59.779919038291865

_space_group_name_H-M_alt    "P 1"
_space_group_IT_number       1

loop_
  _space_group_symop_operation_xyz
  'x, y, z'

loop_
  _atom_site_type_symbol
  _atom_site_label
  _atom_site_symmetry_multiplicity
  _atom_site_fract_x
  _atom_site_fract_y
  _atom_site_fract_z
  _atom_site_occupancy
  B   B1        1.0  0.6034404635429382  0.12762963771820068  0.7294375896453856  1.0000
  Bi  Bi1       1.0  0.818380296230316  0.6336640119552612  0.9054234027862548  1.0000
  Bi  Bi2       1.0  0.8555141687393187  0.5360393524169922  0.29101988673210144  1.0000
  Bi  Bi3       1.0  0.8504909873008727  0.17669273912906647  0.9020200371742247  1.0000
  Ni  Ni1       1.0  0.8190829753875731  0.7754054665565491  0.40115478634834284  1.0000
  Ni  Ni2       1.0  0.3019436299800873  0.1551244854927063  0.9604697227478026  1.0000
  Ni  Ni3       1.0  0.6106938719749451  0.045232973992824554  0.8403103947639464  1.0000
  Sc  Sc1       1.0  0.11830846965312956  0.21707002818584442  0.5692564845085144  1.0000
  Sc  Sc2       1.0  0.9811585545539855  0.7886750102043152  0.13449256122112274  1.0000
  Sc  Sc3       1.0  0.6432298421859741  0.20542487502098083  0.5068873167037964  1.0000
  Sc  Sc4       1.0  0.6093389987945557  0.2941494882106781  0.8804109692573546  1.0000
