data_image0
_chemical_formula_structural       Ni2Sc8Si
_chemical_formula_sum              "Ni2 Sc8 Si1"
_cell_length_a       5.071230027521603
_cell_length_b       6.714053124347934
_cell_length_c       7.305150032043457
_cell_angle_alpha    72.02878953673236
_cell_angle_beta     65.74915845762206
_cell_angle_gamma    63.18148527647185

_space_group_name_H-M_alt    "P 1"
_space_group_IT_number       1

loop_
  _space_group_symop_operation_xyz
  'x, y, z'

loop_
  _atom_site_type_symbol
  _atom_site_label
  _atom_site_symmetry_multiplicity
  _atom_site_fract_x
  _atom_site_fract_y
  _atom_site_fract_z
  _atom_site_occupancy
  Ni  Ni1       1.0  0.9611724615097045  0.8730074167251587  0.2825230658054353  1.0000
  Ni  Ni2       1.0  0.22594538331031797  0.40996092557907104  0.6087320446968079  1.0000
  Sc  Sc1       1.0  0.574732780456543  0.21796779334545135  0.2797420024871826  1.0000
  Sc  Sc2       1.0  0.4623653590679168  0.36346635222435  0.1066776067018509  1.0000
  Sc  Sc3       1.0  0.6494290232658386  0.6164282560348511  0.6018626093864441  1.0000
  Sc  Sc4       1.0  0.05773961171507835  0.2307858169078827  0.8495135307312013  1.0000
  Sc  Sc5       1.0  0.2505772113800049  0.8586598038673401  0.5513966679573059  1.0000
  Sc  Sc6       1.0  0.3029516935348511  0.4129558205604553  0.8921927809715272  1.0000
  Sc  Sc7       1.0  0.8791494965553284  0.3194480538368225  0.542609453201294  1.0000
  Sc  Sc8       1.0  0.8720832467079163  0.9291142225265503  0.8594952225685121  1.0000
  Si  Si1       1.0  0.8020738959312439  0.2992243468761444  0.6053760647773743  1.0000
