data_image0
_chemical_formula_structural       B2Bi5NiSc3
_chemical_formula_sum              "B2 Bi5 Ni1 Sc3"
_cell_length_a       5.90722519397648
_cell_length_b       6.438400388972659
_cell_length_c       6.541018009185791
_cell_angle_alpha    62.42438900166914
_cell_angle_beta     59.72137020037637
_cell_angle_gamma    60.39842812464394

_space_group_name_H-M_alt    "P 1"
_space_group_IT_number       1

loop_
  _space_group_symop_operation_xyz
  'x, y, z'

loop_
  _atom_site_type_symbol
  _atom_site_label
  _atom_site_symmetry_multiplicity
  _atom_site_fract_x
  _atom_site_fract_y
  _atom_site_fract_z
  _atom_site_occupancy
  B   B1        1.0  0.5197833180427551  0.6644534468650818  0.8758211135864258  1.0000
  B   B2        1.0  0.2621065378189087  0.48757544159889227  0.8365513682365417  1.0000
  Bi  Bi1       1.0  0.022741464897990185  0.8305588960647584  0.25213214755058294  1.0000
  Bi  Bi2       1.0  0.14608393609523773  0.31526532769203186  0.579725444316864  1.0000
  Bi  Bi3       1.0  0.1401735097169876  0.33339548110961914  0.6981252431869507  1.0000
  Bi  Bi4       1.0  0.48486170172691345  0.8151029348373413  0.9688954949378967  1.0000
  Bi  Bi5       1.0  0.7164358496665955  0.9893790483474733  0.9247258901596069  1.0000
  Ni  Ni1       1.0  0.05606076493859291  0.15024855732917786  0.7699230313301086  1.0000
  Sc  Sc1       1.0  0.9521512389183044  0.8122912645339966  0.8267999291419983  1.0000
  Sc  Sc2       1.0  0.5154001712799072  0.8473620414733888  0.23054692149162292  1.0000
  Sc  Sc3       1.0  0.7931180596351624  0.4489260017871857  0.47508952021598816  1.0000
