data_image0
_chemical_formula_structural       Ca4CoGe6I
_chemical_formula_sum              "Ca4 Co1 Ge6 I1"
_cell_length_a       5.79695611452209
_cell_length_b       7.90700568911849
_cell_length_c       7.975780010223389
_cell_angle_alpha    120.46201534043531
_cell_angle_beta     89.54453886174637
_cell_angle_gamma    89.52354009323979

_space_group_name_H-M_alt    "P 1"
_space_group_IT_number       1

loop_
  _space_group_symop_operation_xyz
  'x, y, z'

loop_
  _atom_site_type_symbol
  _atom_site_label
  _atom_site_symmetry_multiplicity
  _atom_site_fract_x
  _atom_site_fract_y
  _atom_site_fract_z
  _atom_site_occupancy
  Ca  Ca1       1.0  0.7128161191940308  0.8626412153244019  0.3609728217124939  1.0000
  Ca  Ca2       1.0  0.70924973487854  0.5516669750213623  0.5791839957237244  1.0000
  Ca  Ca3       1.0  0.21538813412189484  0.3549208343029022  0.3603566288948059  1.0000
  Ca  Ca4       1.0  0.21404176950454712  0.8784075975418091  0.07358840107917786  1.0000
  Co  Co1       1.0  0.7122591733932495  0.3601362109184265  0.21861195564270017  1.0000
  Ge  Ge1       1.0  0.22011154890060425  0.35910746455192566  0.41446125507354736  1.0000
  Ge  Ge2       1.0  0.22008328139781952  0.5987303853034973  0.373813509941101  1.0000
  Ge  Ge3       1.0  0.7151514887809753  0.8561038374900818  0.9757778048515319  1.0000
  Ge  Ge4       1.0  0.9556609392166138  0.5928825736045837  0.07426955550909042  1.0000
  Ge  Ge5       1.0  0.7146555185317993  0.35560542345046997  0.7088443636894226  1.0000
  Ge  Ge6       1.0  0.21273939311504364  0.03375053405761719  0.5843852162361145  1.0000
  I   I1        1.0  0.9521869421005249  0.3549889922142029  0.8240253925323486  1.0000
