data_image0
_chemical_formula_structural       Ca3Ge8I
_chemical_formula_sum              "Ca3 Ge8 I1"
_cell_length_a       6.921899499129186
_cell_length_b       9.14306086862158
_cell_length_c       9.270525932312012
_cell_angle_alpha    120.15750108456298
_cell_angle_beta     89.21992634597177
_cell_angle_gamma    89.75428790896252

_space_group_name_H-M_alt    "P 1"
_space_group_IT_number       1

loop_
  _space_group_symop_operation_xyz
  'x, y, z'

loop_
  _atom_site_type_symbol
  _atom_site_label
  _atom_site_symmetry_multiplicity
  _atom_site_fract_x
  _atom_site_fract_y
  _atom_site_fract_z
  _atom_site_occupancy
  Ca  Ca1       1.0  0.2375546544790268  0.5211964845657349  0.5415505766868591  1.0000
  Ca  Ca2       1.0  0.7388774752616882  0.24993455410003665  0.3458494246006012  1.0000
  Ca  Ca3       1.0  0.9878300428390503  0.7747290134429933  0.2662749588489533  1.0000
  Ge  Ge1       1.0  0.23599259555339813  0.530890941619873  0.26314401626586914  1.0000
  Ge  Ge2       1.0  0.7352256178855896  0.029956845566630367  0.9077042937278748  1.0000
  Ge  Ge3       1.0  0.2373005747795105  0.519202709197998  0.953849732875824  1.0000
  Ge  Ge4       1.0  0.7372478246688843  0.7881029844284059  0.8277148604393005  1.0000
  Ge  Ge5       1.0  0.2348581254482269  0.022862173616886142  0.07457967102527618  1.0000
  Ge  Ge6       1.0  0.7359713912010193  0.029058113694190982  0.9390087127685547  1.0000
  Ge  Ge7       1.0  0.23720386624336243  0.5108757615089417  0.6393923163414001  1.0000
  Ge  Ge8       1.0  0.23519892990589142  0.7225502133369447  0.9510908722877502  1.0000
  I   I1        1.0  0.7350967526435852  0.011820439249277117  0.5998292565345764  1.0000
