data_image0
_chemical_formula_structural       Ca5Ge7
_chemical_formula_sum              "Ca5 Ge7"
_cell_length_a       5.258437485410532
_cell_length_b       8.5810631587435
_cell_length_c       8.719229698181152
_cell_angle_alpha    119.99994896170546
_cell_angle_beta     89.15520451279058
_cell_angle_gamma    89.80043216215684

_space_group_name_H-M_alt    "P 1"
_space_group_IT_number       1

loop_
  _space_group_symop_operation_xyz
  'x, y, z'

loop_
  _atom_site_type_symbol
  _atom_site_label
  _atom_site_symmetry_multiplicity
  _atom_site_fract_x
  _atom_site_fract_y
  _atom_site_fract_z
  _atom_site_occupancy
  Ca  Ca1       1.0  0.689590334892273  0.6174014806747437  0.8073344230651855  1.0000
  Ca  Ca2       1.0  0.18467332422733307  0.6350497603416443  0.9220514297485352  1.0000
  Ca  Ca3       1.0  0.1840299665927887  0.6192689538002014  0.6219599843025208  1.0000
  Ca  Ca4       1.0  0.6869753003120422  0.625635027885437  0.11360614001750952  1.0000
  Ca  Ca5       1.0  0.19057680666446686  0.2528809607028961  0.5613034963607788  1.0000
  Ge  Ge1       1.0  0.1926196962594986  0.9604698419570924  0.9155550599098207  1.0000
  Ge  Ge2       1.0  0.6925079226493835  0.945422649383545  0.3502923548221589  1.0000
  Ge  Ge3       1.0  0.19070225954055786  0.435375064611435  0.22447900474071505  1.0000
  Ge  Ge4       1.0  0.6904571652412415  0.9760863184928895  0.12232673913240442  1.0000
  Ge  Ge5       1.0  0.6922110319137573  0.22143734991550448  0.11353861540555954  1.0000
  Ge  Ge6       1.0  0.690030574798584  0.9647013545036317  0.4828750789165497  1.0000
  Ge  Ge7       1.0  0.19226019084453583  0.40845331549644476  0.013595076277852058  1.0000
