data_image0
_chemical_formula_structural       Ca3Ge8Ir
_chemical_formula_sum              "Ca3 Ge8 Ir1"
_cell_length_a       5.574694525854067
_cell_length_b       9.134830852245864
_cell_length_c       9.131084442138672
_cell_angle_alpha    120.24223456948313
_cell_angle_beta     89.17063833081642
_cell_angle_gamma    89.76917018246391

_space_group_name_H-M_alt    "P 1"
_space_group_IT_number       1

loop_
  _space_group_symop_operation_xyz
  'x, y, z'

loop_
  _atom_site_type_symbol
  _atom_site_label
  _atom_site_symmetry_multiplicity
  _atom_site_fract_x
  _atom_site_fract_y
  _atom_site_fract_z
  _atom_site_occupancy
  Ca  Ca1       1.0  0.9805111885070801  0.684682309627533  0.4503399133682251  1.0000
  Ca  Ca2       1.0  0.4884447753429413  0.6866477131843567  0.773120641708374  1.0000
  Ca  Ca3       1.0  0.9865841865539551  0.35154470801353455  0.6415882110595703  1.0000
  Ge  Ge1       1.0  0.4891015291213989  0.951966404914856  0.2735360860824586  1.0000
  Ge  Ge2       1.0  0.9838443398475647  0.702468752861023  0.30477708578109747  1.0000
  Ge  Ge3       1.0  0.9984938502311707  0.19839319586753845  0.7244822382926941  1.0000
  Ge  Ge4       1.0  0.49111855030059814  0.13866963982582092  0.8400322794914246  1.0000
  Ge  Ge5       1.0  0.49106675386428833  0.8692973852157593  0.38374888896942144  1.0000
  Ge  Ge6       1.0  0.9895323514938354  0.1723628044128418  0.14103154838085175  1.0000
  Ge  Ge7       1.0  0.9883828163146973  0.4537305235862732  0.5322559475898743  1.0000
  Ge  Ge8       1.0  0.982891857624054  0.18474943935871124  0.9047017097473145  1.0000
  Ir  Ir1       1.0  0.47563570737838745  0.3877021074295044  0.38924655318260193  1.0000
