data_image0
_chemical_formula_structural       Ge12
_chemical_formula_sum              "Ge12"
_cell_length_a       6.590768070353075
_cell_length_b       8.507478911690017
_cell_length_c       8.527812004089355
_cell_angle_alpha    121.14006241939708
_cell_angle_beta     87.74796303126804
_cell_angle_gamma    89.25957054622901

_space_group_name_H-M_alt    "P 1"
_space_group_IT_number       1

loop_
  _space_group_symop_operation_xyz
  'x, y, z'

loop_
  _atom_site_type_symbol
  _atom_site_label
  _atom_site_symmetry_multiplicity
  _atom_site_fract_x
  _atom_site_fract_y
  _atom_site_fract_z
  _atom_site_occupancy
  Ge  Ge1       1.0  0.32539165019989014  0.09556914120912552  0.5048632025718689  1.0000
  Ge  Ge2       1.0  0.33090829849243164  0.5809707641601562  0.7236065864562988  1.0000
  Ge  Ge3       1.0  0.8326479196548462  0.2749967575073242  0.6696382761001587  1.0000
  Ge  Ge4       1.0  0.8263981938362122  0.590110719203949  0.8128122687339783  1.0000
  Ge  Ge5       1.0  0.32515189051628113  0.6040815711021423  0.6122612357139587  1.0000
  Ge  Ge6       1.0  0.33242154121398926  0.6399977803230286  0.8370852470397949  1.0000
  Ge  Ge7       1.0  0.8322775959968567  0.30949053168296814  0.3812180459499359  1.0000
  Ge  Ge8       1.0  0.8217194080352783  0.6172419786453247  0.11597026139497753  1.0000
  Ge  Ge9       1.0  0.8221970200538635  0.046553999185562134  0.7119081020355225  1.0000
  Ge  Ge10      1.0  0.3260229527950287  0.09053749591112137  0.3798935115337372  1.0000
  Ge  Ge11      1.0  0.33139166235923767  0.20233842730522156  0.7586769461631775  1.0000
  Ge  Ge12      1.0  0.8324164152145386  0.5869694352149963  0.8954064846038818  1.0000
