data_image0
_chemical_formula_structural       Ge9Ir3
_chemical_formula_sum              "Ge9 Ir3"
_cell_length_a       5.544356751838679
_cell_length_b       7.417064964148269
_cell_length_c       7.657733917236328
_cell_angle_alpha    119.78943460852555
_cell_angle_beta     96.49484016246015
_cell_angle_gamma    89.08559146841992

_space_group_name_H-M_alt    "P 1"
_space_group_IT_number       1

loop_
  _space_group_symop_operation_xyz
  'x, y, z'

loop_
  _atom_site_type_symbol
  _atom_site_label
  _atom_site_symmetry_multiplicity
  _atom_site_fract_x
  _atom_site_fract_y
  _atom_site_fract_z
  _atom_site_occupancy
  Ge  Ge1       1.0  0.7020087838172913  0.09541929513216019  0.33674412965774536  1.0000
  Ge  Ge2       1.0  0.20801568031311035  0.4031490385532379  0.5203836560249329  1.0000
  Ge  Ge3       1.0  0.7094227075576782  0.3550705313682556  0.30952975153923035  1.0000
  Ge  Ge4       1.0  0.1990664154291153  0.8831157088279724  0.6871939301490784  1.0000
  Ge  Ge5       1.0  0.007264725398272276  0.8541795611381531  0.7468945384025574  1.0000
  Ge  Ge6       1.0  0.21283403038978577  0.17434099316596985  0.06081639602780343  1.0000
  Ge  Ge7       1.0  0.6803032159805298  0.8505703210830688  0.10641653090715403  1.0000
  Ge  Ge8       1.0  0.7011884450912476  0.4044816195964813  0.9492866992950441  1.0000
  Ge  Ge9       1.0  0.7039846777915955  0.8439429998397827  0.10364881157875061  1.0000
  Ir  Ir1       1.0  0.07711484283208847  0.24018511176109314  0.31661713123321533  1.0000
  Ir  Ir2       1.0  0.5798286199569702  0.6367211937904358  0.3475515842437744  1.0000
  Ir  Ir3       1.0  0.08491167426109314  0.7219932079315186  0.7892276644706726  1.0000
