data_image0
_chemical_formula_structural       C2EuGeI2NiNpOsPb3WZn
_chemical_formula_sum              "C2 Eu1 Ge1 I2 Ni1 Np1 Os1 Pb3 W1 Zn1"
_cell_length_a       5.606902625087232
_cell_length_b       9.066371456932707
_cell_length_c       9.400433540344238
_cell_angle_alpha    123.57040390383322
_cell_angle_beta     86.30757400727956
_cell_angle_gamma    90.29419993054381

_space_group_name_H-M_alt    "P 1"
_space_group_IT_number       1

loop_
  _space_group_symop_operation_xyz
  'x, y, z'

loop_
  _atom_site_type_symbol
  _atom_site_label
  _atom_site_symmetry_multiplicity
  _atom_site_fract_x
  _atom_site_fract_y
  _atom_site_fract_z
  _atom_site_occupancy
  C   C1        1.0  0.248374804854393  0.8095580339431763  0.4094247817993164  1.0000
  C   C2        1.0  0.2447666972875595  0.4527037739753723  0.6995605826377869  1.0000
  Eu  Eu1       1.0  0.7457630038261414  0.06318880617618561  0.09584866464138031  1.0000
  Ge  Ge1       1.0  0.7422263622283936  0.9712486267089844  0.8420131802558899  1.0000
  I   I1        1.0  0.7438316345214844  0.10832997411489487  0.4065477252006531  1.0000
  I   I2        1.0  0.7436349987983704  0.3039902150630951  0.6527329087257385  1.0000
  Ni  Ni1       1.0  0.7453173398971558  0.39396899938583374  0.15198956429958344  1.0000
  Np  Np1       1.0  0.24676771461963654  0.1281892955303192  0.8391902446746826  1.0000
  Os  Os1       1.0  0.24627113342285156  0.3285648822784424  0.3693147599697113  1.0000
  Pb  Pb1       1.0  0.24547746777534485  0.9925881624221802  0.015950851142406464  1.0000
  Pb  Pb2       1.0  0.7450471520423889  0.9754294753074646  0.1317284107208252  1.0000
  Pb  Pb3       1.0  0.9878572225570679  0.19637002050876617  0.41418588161468506  1.0000
  W   W1        1.0  0.2467024326324463  0.6847176551818848  0.1923176795244217  1.0000
  Zn  Zn1       1.0  0.24388769268989563  0.5833606719970703  0.12155833095312119  1.0000
