data_image0
_chemical_formula_structural       AsBaEu2GdGeHI2IrNRuTbZn
_chemical_formula_sum              "As1 Ba1 Eu2 Gd1 Ge1 H1 I2 Ir1 N1 Ru1 Tb1 Zn1"
_cell_length_a       5.819833158713253
_cell_length_b       8.494376786976579
_cell_length_c       9.301222801208496
_cell_angle_alpha    97.52493480000796
_cell_angle_beta     89.13784371063736
_cell_angle_gamma    89.64067199229939

_space_group_name_H-M_alt    "P 1"
_space_group_IT_number       1

loop_
  _space_group_symop_operation_xyz
  'x, y, z'

loop_
  _atom_site_type_symbol
  _atom_site_label
  _atom_site_symmetry_multiplicity
  _atom_site_fract_x
  _atom_site_fract_y
  _atom_site_fract_z
  _atom_site_occupancy
  As  As1       1.0  0.37265217304229736  0.3390330672264099  0.9208755493164062  1.0000
  Ba  Ba1       1.0  0.36505624651908875  0.896194338798523  0.5199249386787415  1.0000
  Eu  Eu1       1.0  0.8749833703041077  0.13399341702461243  0.0024073568638414145  1.0000
  Eu  Eu2       1.0  0.8672298192977905  0.22543835639953613  0.45155930519104004  1.0000
  Gd  Gd1       1.0  0.36923426389694214  0.309265673160553  0.6556481122970582  1.0000
  Ge  Ge1       1.0  0.8654300570487976  0.1283370554447174  0.565655529499054  1.0000
  H   H1        1.0  0.3668815493583679  0.8515892624855042  0.4779497981071472  1.0000
  I   I1        1.0  0.8656566739082336  0.3222951292991638  0.425944447517395  1.0000
  I   I2        1.0  0.8641572594642639  0.605693519115448  0.5932943224906921  1.0000
  Ir  Ir1       1.0  0.36684074997901917  0.6776010394096375  0.10202549397945405  1.0000
  N   N1        1.0  0.3674955368041992  0.8409435153007507  0.6905226707458496  1.0000
  Ru  Ru1       1.0  0.8670626282691956  0.25026050209999084  0.5559337139129639  1.0000
  Tb  Tb1       1.0  0.36704760789871216  0.13087251782417297  0.8317129015922546  1.0000
  Zn  Zn1       1.0  0.8683704733848572  0.7748452425003052  0.6526601910591125  1.0000
