data_image0
_chemical_formula_structural       CCrGd4Na3NbNi2OsSe
_chemical_formula_sum              "C1 Cr1 Gd4 Na3 Nb1 Ni2 Os1 Se1"
_cell_length_a       6.849716114908504
_cell_length_b       8.741570730474178
_cell_length_c       8.883185386657715
_cell_angle_alpha    125.67263198305878
_cell_angle_beta     88.78365767466418
_cell_angle_gamma    90.52535994850484

_space_group_name_H-M_alt    "P 1"
_space_group_IT_number       1

loop_
  _space_group_symop_operation_xyz
  'x, y, z'

loop_
  _atom_site_type_symbol
  _atom_site_label
  _atom_site_symmetry_multiplicity
  _atom_site_fract_x
  _atom_site_fract_y
  _atom_site_fract_z
  _atom_site_occupancy
  C   C1        1.0  0.46389403939247137  0.1723726689815521  0.4019678831100464  1.0000
  Cr  Cr1       1.0  0.46397745609283453  0.4408749043941497  0.3513796925544738  1.0000
  Gd  Gd1       1.0  0.4602950811386109  0.5769993662834166  0.7283971309661865  1.0000
  Gd  Gd2       1.0  0.9612978696823121  0.3176762759685516  0.8556113839149475  1.0000
  Gd  Gd3       1.0  0.46466797590255743  0.6359345316886901  0.5225387811660767  1.0000
  Gd  Gd4       1.0  0.46067473292350775  0.7305593490600585  0.07259824872016901  1.0000
  Na  Na1       1.0  0.9641132950782777  0.4699715673923492  0.017680693417787503  1.0000
  Na  Na2       1.0  0.46315982937812816  0.48297679424285883  0.005412495695054481  1.0000
  Na  Na3       1.0  0.9632347226142884  0.21888659894466397  0.16444364190101624  1.0000
  Nb  Nb1       1.0  0.9656720757484437  0.7126750349998473  0.3702175617218017  1.0000
  Ni  Ni1       1.0  0.9598655700683595  0.35669255256652826  0.22489154338836667  1.0000
  Ni  Ni2       1.0  0.9618684649467469  0.5527524948120117  0.24559384584426874  1.0000
  Os  Os1       1.0  0.46413922309875494  0.10442490875720976  0.9507099986076355  1.0000
  Se  Se1       1.0  0.4670823812484742  0.16556815803050992  0.41804155707359314  1.0000
