data_image0
_chemical_formula_structural       C2ClEuGaNbNi3P2PbWZn
_chemical_formula_sum              "C2 Cl1 Eu1 Ga1 Nb1 Ni3 P2 Pb1 W1 Zn1"
_cell_length_a       6.149069411367317
_cell_length_b       8.051310533304198
_cell_length_c       9.113832473754883
_cell_angle_alpha    67.38241533345591
_cell_angle_beta     81.45111509184785
_cell_angle_gamma    80.14021894763755

_space_group_name_H-M_alt    "P 1"
_space_group_IT_number       1

loop_
  _space_group_symop_operation_xyz
  'x, y, z'

loop_
  _atom_site_type_symbol
  _atom_site_label
  _atom_site_symmetry_multiplicity
  _atom_site_fract_x
  _atom_site_fract_y
  _atom_site_fract_z
  _atom_site_occupancy
  C   C1        1.0  0.48079091310501093  0.07191154360771179  0.91670823097229  1.0000
  C   C2        1.0  0.9792929887771605  0.03514532744884491  0.20570345222949982  1.0000
  Cl  Cl1       1.0  0.9832081794738768  0.901977002620697  0.12043236196041107  1.0000
  Eu  Eu1       1.0  0.4800127446651458  0.37342554330825806  0.047864992171525955  1.0000
  Ga  Ga1       1.0  0.9750979542732238  0.12134965509176254  0.503434419631958  1.0000
  Nb  Nb1       1.0  0.9612638950347899  0.8752572536468506  0.11714255809783936  1.0000
  Ni  Ni1       1.0  0.9825615286827086  0.6477798819541931  0.27750957012176514  1.0000
  Ni  Ni2       1.0  0.9663162827491759  0.9340258836746216  0.15965546667575836  1.0000
  Ni  Ni3       1.0  0.26564425230026245  0.40765076875686646  0.5748946666717529  1.0000
  P   P1        1.0  0.46659702062606806  0.41785943508148193  0.16383516788482666  1.0000
  P   P2        1.0  0.0005138484411872923  0.19178026914596558  0.03441573306918144  1.0000
  Pb  Pb1       1.0  0.9775043129920958  0.8070330023765564  0.4153427183628082  1.0000
  W   W1        1.0  0.4781476259231567  0.5702198147773743  0.6192020773887634  1.0000
  Zn  Zn1       1.0  0.47501114010810846  0.7501804828643799  0.7611395120620728  1.0000
