data_image0
_chemical_formula_structural       CCoDyGeHNNi3PPb3Zn
_chemical_formula_sum              "C1 Co1 Dy1 Ge1 H1 N1 Ni3 P1 Pb3 Zn1"
_cell_length_a       5.849329882995758
_cell_length_b       6.000809458212447
_cell_length_c       11.651647567749023
_cell_angle_alpha    90.42246009534139
_cell_angle_beta     89.65773993852274
_cell_angle_gamma    113.13897780444931

_space_group_name_H-M_alt    "P 1"
_space_group_IT_number       1

loop_
  _space_group_symop_operation_xyz
  'x, y, z'

loop_
  _atom_site_type_symbol
  _atom_site_label
  _atom_site_symmetry_multiplicity
  _atom_site_fract_x
  _atom_site_fract_y
  _atom_site_fract_z
  _atom_site_occupancy
  C   C1        1.0  0.671963632106781  0.07983577251434326  0.6295505166053772  1.0000
  Co  Co1       1.0  0.7095820307731628  0.33736705780029297  0.6846593022346498  1.0000
  Dy  Dy1       1.0  0.17070327699184418  0.7957063317298889  0.05557558313012123  1.0000
  Ge  Ge1       1.0  0.6655096411705017  0.27141517400741577  0.10473353415727615  1.0000
  H   H1        1.0  0.6746253967285156  0.9619542956352234  0.44938841462135315  1.0000
  N   N1        1.0  0.661350667476654  0.6685777902603149  0.4043740928173065  1.0000
  Ni  Ni1       1.0  0.1856958568096161  0.14296549558639526  0.947342097759247  1.0000
  Ni  Ni2       1.0  0.6715052127838135  0.6869398951530457  0.5415751338005066  1.0000
  Ni  Ni3       1.0  0.16975224018096924  0.06287060678005219  0.732958197593689  1.0000
  P   P1        1.0  0.18412728607654572  0.7940006256103516  0.2468176633119583  1.0000
  Pb  Pb1       1.0  0.17285560071468353  0.8780947923660278  0.022541925311088562  1.0000
  Pb  Pb2       1.0  0.1718786060810089  0.666533887386322  0.8498643636703491  1.0000
  Pb  Pb3       1.0  0.6714792251586914  0.32039377093315125  0.20601634681224823  1.0000
  Zn  Zn1       1.0  0.17577417194843292  0.3111319839954376  0.5382957458496095  1.0000
