data_image0
_chemical_formula_structural       Gd3Na7Ni2OsTe
_chemical_formula_sum              "Gd3 Na7 Ni2 Os1 Te1"
_cell_length_a       7.710569476341958
_cell_length_b       7.911977894022804
_cell_length_c       8.724105834960938
_cell_angle_alpha    79.03695115501021
_cell_angle_beta     65.67153039771607
_cell_angle_gamma    65.00432061292453

_space_group_name_H-M_alt    "P 1"
_space_group_IT_number       1

loop_
  _space_group_symop_operation_xyz
  'x, y, z'

loop_
  _atom_site_type_symbol
  _atom_site_label
  _atom_site_symmetry_multiplicity
  _atom_site_fract_x
  _atom_site_fract_y
  _atom_site_fract_z
  _atom_site_occupancy
  Gd  Gd1       1.0  0.5590508580207825  0.7868669033050537  0.17070829868316656  1.0000
  Gd  Gd2       1.0  0.8452021479606628  0.7384396195411682  0.7053629755973816  1.0000
  Gd  Gd3       1.0  0.0653177946805954  0.369449645280838  0.8183731436729431  1.0000
  Na  Na1       1.0  0.5706380605697632  0.647808849811554  0.7245694994926453  1.0000
  Na  Na2       1.0  0.59153151512146  0.7589328289031982  0.6224511861801147  1.0000
  Na  Na3       1.0  0.0797133594751358  0.43064409494400024  0.8942493796348572  1.0000
  Na  Na4       1.0  0.5681702494621277  0.5374884009361267  0.8785679340362549  1.0000
  Na  Na5       1.0  0.5726747512817383  0.7520729899406433  0.20218217372894287  1.0000
  Na  Na6       1.0  0.567635178565979  0.12393549829721451  0.33185145258903503  1.0000
  Na  Na7       1.0  0.06685659289360046  0.36720597743988037  0.8534420728683472  1.0000
  Ni  Ni1       1.0  0.08186034858226776  0.29228389263153076  0.002532707527279854  1.0000
  Ni  Ni2       1.0  0.2769058346748352  0.3588627874851227  0.867414116859436  1.0000
  Os  Os1       1.0  0.050929661840200424  0.9389418959617615  0.4494495987892151  1.0000
  Te  Te1       1.0  0.5734441876411438  0.12937745451927185  0.435447633266449  1.0000
