data_image0
_chemical_formula_structural       I3Lu2Se5
_chemical_formula_sum              "I3 Lu2 Se5"
_cell_length_a       5.745634413550776
_cell_length_b       8.216566381016833
_cell_length_c       8.466205596923828
_cell_angle_alpha    123.14315545758456
_cell_angle_beta     92.26496854354949
_cell_angle_gamma    88.73130188427777

_space_group_name_H-M_alt    "P 1"
_space_group_IT_number       1

loop_
  _space_group_symop_operation_xyz
  'x, y, z'

loop_
  _atom_site_type_symbol
  _atom_site_label
  _atom_site_symmetry_multiplicity
  _atom_site_fract_x
  _atom_site_fract_y
  _atom_site_fract_z
  _atom_site_occupancy
  I   I1        1.0  0.5672003030776978  0.15676923096179962  0.40532582998275757  1.0000
  I   I2        1.0  0.048922255635261536  0.3474545478820801  0.4151636064052582  1.0000
  I   I3        1.0  0.57087641954422  0.7504204511642456  0.8962523937225342  1.0000
  Lu  Lu1       1.0  0.5346947312355042  0.2503521740436554  0.3364683985710144  1.0000
  Lu  Lu2       1.0  0.08108747005462646  0.42988914251327515  0.5250697731971741  1.0000
  Se  Se1       1.0  0.5686355233192444  0.27197206020355225  0.6752341985702515  1.0000
  Se  Se2       1.0  0.05612259730696678  0.167883038520813  0.6602430939674377  1.0000
  Se  Se3       1.0  0.07901475578546524  0.8875250220298767  0.45483267307281494  1.0000
  Se  Se4       1.0  0.05421388894319534  0.47912999987602234  0.6153634786605835  1.0000
  Se  Se5       1.0  0.5750257968902588  0.5517370104789734  0.989101231098175  1.0000
