data_image0
_chemical_formula_structural       I3Lu2Se4Y
_chemical_formula_sum              "I3 Lu2 Se4 Y1"
_cell_length_a       6.125466200542096
_cell_length_b       9.475817103847259
_cell_length_c       9.427684783935547
_cell_angle_alpha    124.44618823116427
_cell_angle_beta     85.36884693078488
_cell_angle_gamma    95.19078952900605

_space_group_name_H-M_alt    "P 1"
_space_group_IT_number       1

loop_
  _space_group_symop_operation_xyz
  'x, y, z'

loop_
  _atom_site_type_symbol
  _atom_site_label
  _atom_site_symmetry_multiplicity
  _atom_site_fract_x
  _atom_site_fract_y
  _atom_site_fract_z
  _atom_site_occupancy
  I   I1        1.0  0.519627571105957  0.5060783624649048  0.9807388782501221  1.0000
  I   I2        1.0  0.521527886390686  0.32069537043571467  0.6286714673042297  1.0000
  I   I3        1.0  0.5206717848777771  0.0017729846294969318  0.2768172025680542  1.0000
  Lu  Lu1       1.0  0.010230772197246548  0.4043490290641784  0.3983681499958038  1.0000
  Lu  Lu2       1.0  0.010889707133173934  0.825769007205963  0.5435900688171387  1.0000
  Se  Se1       1.0  0.7066088914871216  0.12765561044216156  0.48583149909973145  1.0000
  Se  Se2       1.0  0.5341405868530273  0.6140685081481932  0.5783014297485352  1.0000
  Se  Se3       1.0  0.5172213315963745  0.13126489520072937  0.07772116363048553  1.0000
  Se  Se4       1.0  0.24578988552093506  0.9464530944824218  0.6015034914016724  1.0000
  Y   Y1        1.0  0.01156094204634428  0.0557178072631359  0.9796217083930969  1.0000
