data_image0
_chemical_formula_structural       ISe9
_chemical_formula_sum              "I1 Se9"
_cell_length_a       9.614115395905545
_cell_length_b       12.49828192221472
_cell_length_c       12.653792381286621
_cell_angle_alpha    120.7259554455004
_cell_angle_beta     96.08611792274482
_cell_angle_gamma    89.4082205626002

_space_group_name_H-M_alt    "P 1"
_space_group_IT_number       1

loop_
  _space_group_symop_operation_xyz
  'x, y, z'

loop_
  _atom_site_type_symbol
  _atom_site_label
  _atom_site_symmetry_multiplicity
  _atom_site_fract_x
  _atom_site_fract_y
  _atom_site_fract_z
  _atom_site_occupancy
  I   I1        1.0  0.5507537126541138  0.8235580325126648  0.4494408071041108  1.0000
  Se  Se1       1.0  0.4242421090602875  0.27213525772094727  0.7681832313537598  1.0000
  Se  Se2       1.0  0.34800654649734497  0.9098833203315735  0.8107112050056458  1.0000
  Se  Se3       1.0  0.3913861811161041  0.07047941535711288  0.9510843753814697  1.0000
  Se  Se4       1.0  0.6840359568595886  0.379215806722641  0.5474216938018799  1.0000
  Se  Se5       1.0  0.5663121938705444  0.4513556957244873  0.12280466407537464  1.0000
  Se  Se6       1.0  0.3092849552631378  0.4201394021511078  0.5808585286140442  1.0000
  Se  Se7       1.0  0.0760248601436615  0.41390255093574524  0.8463594913482666  1.0000
  Se  Se8       1.0  0.057062745094299316  0.8232817649841309  0.800723671913147  1.0000
  Se  Se9       1.0  0.05101407691836357  0.9014327526092529  0.05451653152704246  1.0000
