data_image0
_chemical_formula_structural       CuI4Lu2Se3
_chemical_formula_sum              "Cu1 I4 Lu2 Se3"
_cell_length_a       5.844878990626343
_cell_length_b       9.868192244491997
_cell_length_c       10.035606384277344
_cell_angle_alpha    121.78634728233648
_cell_angle_beta     89.83204385137455
_cell_angle_gamma    90.4126080395319

_space_group_name_H-M_alt    "P 1"
_space_group_IT_number       1

loop_
  _space_group_symop_operation_xyz
  'x, y, z'

loop_
  _atom_site_type_symbol
  _atom_site_label
  _atom_site_symmetry_multiplicity
  _atom_site_fract_x
  _atom_site_fract_y
  _atom_site_fract_z
  _atom_site_occupancy
  Cu  Cu1       1.0  0.5409544110298157  0.03703309968113899  0.16471980512142181  1.0000
  I   I1        1.0  0.026474634185433388  0.6152198910713196  0.1553435325622559  1.0000
  I   I2        1.0  0.5399512052536011  0.016132080927491188  0.36057692766189575  1.0000
  I   I3        1.0  0.5333461761474609  0.26611170172691345  0.8793233036994934  1.0000
  I   I4        1.0  0.04404899850487709  0.6112976670265198  0.8996079564094543  1.0000
  Lu  Lu1       1.0  0.5272577404975891  0.09040960669517517  0.11955446004867554  1.0000
  Lu  Lu2       1.0  0.05505623295903206  0.01441924087703228  0.2752395570278168  1.0000
  Se  Se1       1.0  0.01182258129119873  0.022862598299980164  0.7319099307060242  1.0000
  Se  Se2       1.0  0.5450814366340637  0.4609665870666504  0.6950151920318604  1.0000
  Se  Se3       1.0  0.034387581050395966  0.52052903175354  0.4965417683124542  1.0000
