data_image0
_chemical_formula_structural       CuI3Lu2Se4
_chemical_formula_sum              "Cu1 I3 Lu2 Se4"
_cell_length_a       5.878482173810697
_cell_length_b       8.881109816782821
_cell_length_c       9.031967163085938
_cell_angle_alpha    121.12711239207067
_cell_angle_beta     90.26175294963755
_cell_angle_gamma    92.00434808436259

_space_group_name_H-M_alt    "P 1"
_space_group_IT_number       1

loop_
  _space_group_symop_operation_xyz
  'x, y, z'

loop_
  _atom_site_type_symbol
  _atom_site_label
  _atom_site_symmetry_multiplicity
  _atom_site_fract_x
  _atom_site_fract_y
  _atom_site_fract_z
  _atom_site_occupancy
  Cu  Cu1       1.0  0.9639000296592712  0.10495619475841522  0.12162888050079346  1.0000
  I   I1        1.0  0.4727630615234375  0.04975351318717003  0.32760724425315857  1.0000
  I   I2        1.0  0.16254937648773193  0.2203802913427353  0.24169091880321503  1.0000
  I   I3        1.0  0.029302677139639854  0.574431836605072  0.1335364580154419  1.0000
  Lu  Lu1       1.0  0.4670136868953705  0.6261699199676514  0.7843317985534668  1.0000
  Lu  Lu2       1.0  0.8925446271896362  0.5703749656677246  0.23206958174705505  1.0000
  Se  Se1       1.0  0.6697288751602173  0.30685529112815857  0.22073647379875186  1.0000
  Se  Se2       1.0  0.4189079701900482  0.8178430199623108  0.1882876604795456  1.0000
  Se  Se3       1.0  0.6719959378242493  0.36320072412490845  0.5561780333518982  1.0000
  Se  Se4       1.0  0.9760590195655823  0.249435693025589  0.6015188694000244  1.0000
