data_image0
_chemical_formula_structural       I3Se7
_chemical_formula_sum              "I3 Se7"
_cell_length_a       6.027593285690914
_cell_length_b       7.7058944285227975
_cell_length_c       8.63470458984375
_cell_angle_alpha    112.10350293973393
_cell_angle_beta     103.61921475695489
_cell_angle_gamma    89.5277176009322

_space_group_name_H-M_alt    "P 1"
_space_group_IT_number       1

loop_
  _space_group_symop_operation_xyz
  'x, y, z'

loop_
  _atom_site_type_symbol
  _atom_site_label
  _atom_site_symmetry_multiplicity
  _atom_site_fract_x
  _atom_site_fract_y
  _atom_site_fract_z
  _atom_site_occupancy
  I   I1        1.0  0.4714727401733399  0.8612943887710571  0.7895578145980835  1.0000
  I   I2        1.0  0.16188344359397888  0.5154595971107483  0.8119164109230042  1.0000
  I   I3        1.0  0.21474094688892367  0.25985613465309143  0.34002524614334106  1.0000
  Se  Se1       1.0  0.5602361559867859  0.08954153209924698  0.8228884339332581  1.0000
  Se  Se2       1.0  0.9761136770248414  0.2750663459300995  0.7850432395935059  1.0000
  Se  Se3       1.0  0.9557552337646485  0.7729001641273499  0.0456245094537735  1.0000
  Se  Se4       1.0  0.4639087021350861  0.6183091998100281  0.33463937044143677  1.0000
  Se  Se5       1.0  0.9789907932281495  0.19477878510951996  0.20229008793830872  1.0000
  Se  Se6       1.0  0.4749785959720612  0.8018985390663147  0.050305839627981186  1.0000
  Se  Se7       1.0  0.791003704071045  0.1568187177181244  0.45073530077934265  1.0000
