data_image0
_chemical_formula_structural       Fe2GeMn3Tm5
_chemical_formula_sum              "Fe2 Ge1 Mn3 Tm5"
_cell_length_a       3.786829370273539
_cell_length_b       6.827871785215034
_cell_length_c       7.202613353729248
_cell_angle_alpha    90.55910712981216
_cell_angle_beta     88.59097780662267
_cell_angle_gamma    88.62971302318707

_space_group_name_H-M_alt    "P 1"
_space_group_IT_number       1

loop_
  _space_group_symop_operation_xyz
  'x, y, z'

loop_
  _atom_site_type_symbol
  _atom_site_label
  _atom_site_symmetry_multiplicity
  _atom_site_fract_x
  _atom_site_fract_y
  _atom_site_fract_z
  _atom_site_occupancy
  Fe  Fe1       1.0  0.5680521130561828  0.7169415354728698  0.12927621603012085  1.0000
  Fe  Fe2       1.0  0.06686509400606154  0.3835908472537994  0.677324116230011  1.0000
  Ge  Ge1       1.0  0.5747586488723754  0.20866124331951139  0.9793207049369812  1.0000
  Mn  Mn1       1.0  0.5741271376609801  0.05886107683181762  0.15474946796894073  1.0000
  Mn  Mn2       1.0  0.5699972510337828  0.9823895692825316  0.6376694440841675  1.0000
  Mn  Mn3       1.0  0.07045333832502364  0.435215950012207  0.4776620268821716  1.0000
  Tm  Tm1       1.0  0.5676103234291076  0.8368085622787474  0.8138146996498108  1.0000
  Tm  Tm2       1.0  0.5777593255043029  0.5737512111663818  0.48450955748558044  1.0000
  Tm  Tm3       1.0  0.08021972328424452  0.5930712223052979  0.49259698390960693  1.0000
  Tm  Tm4       1.0  0.07679456472396849  0.6865369081497192  0.8677880764007568  1.0000
  Tm  Tm5       1.0  0.0703345015645027  0.45454546809196467  0.709348201751709  1.0000
