data_image0
_chemical_formula_structural       FeGeLuMn2TeTm5
_chemical_formula_sum              "Fe1 Ge1 Lu1 Mn2 Te1 Tm5"
_cell_length_a       5.375339960090413
_cell_length_b       6.192779267491134
_cell_length_c       8.845410346984863
_cell_angle_alpha    90.2972436137505
_cell_angle_beta     89.75394733350369
_cell_angle_gamma    114.6060837772337

_space_group_name_H-M_alt    "P 1"
_space_group_IT_number       1

loop_
  _space_group_symop_operation_xyz
  'x, y, z'

loop_
  _atom_site_type_symbol
  _atom_site_label
  _atom_site_symmetry_multiplicity
  _atom_site_fract_x
  _atom_site_fract_y
  _atom_site_fract_z
  _atom_site_occupancy
  Fe  Fe1       1.0  0.16564621031284332  0.17359817028045654  0.5874482989311218  1.0000
  Ge  Ge1       1.0  0.1351289302110672  0.6639333367347717  0.7378817796707153  1.0000
  Lu  Lu1       1.0  0.39829394221305847  0.20328275859355927  0.8648081421852112  1.0000
  Mn  Mn1       1.0  0.15015289187431335  0.6920983195304871  0.36997121572494507  1.0000
  Mn  Mn2       1.0  0.6231943964958191  0.22580765187740326  0.363187700510025  1.0000
  Te  Te1       1.0  0.12103114277124405  0.20641635358333588  0.353352427482605  1.0000
  Tm  Tm1       1.0  0.2392576038837433  0.9237842559814453  0.8702162504196167  1.0000
  Tm  Tm2       1.0  0.7267434597015381  0.9236152172088623  0.17866595089435577  1.0000
  Tm  Tm3       1.0  0.8689221739768982  0.08493265509605408  0.7110416293144226  1.0000
  Tm  Tm4       1.0  0.6523752212524414  0.6184174418449402  0.07531524449586868  1.0000
  Tm  Tm5       1.0  0.6610502600669861  0.6450255513191223  0.8803439736366272  1.0000
