data_image0
_chemical_formula_structural       Fe3GeMnTm6
_chemical_formula_sum              "Fe3 Ge1 Mn1 Tm6"
_cell_length_a       5.028821322546989
_cell_length_b       6.598150522527839
_cell_length_c       8.952728271484375
_cell_angle_alpha    89.11967008880745
_cell_angle_beta     89.4495481462712
_cell_angle_gamma    113.5894626725917

_space_group_name_H-M_alt    "P 1"
_space_group_IT_number       1

loop_
  _space_group_symop_operation_xyz
  'x, y, z'

loop_
  _atom_site_type_symbol
  _atom_site_label
  _atom_site_symmetry_multiplicity
  _atom_site_fract_x
  _atom_site_fract_y
  _atom_site_fract_z
  _atom_site_occupancy
  Fe  Fe1       1.0  0.05980715900659561  0.7713505029678345  0.8905014395713807  1.0000
  Fe  Fe2       1.0  0.4093553721904756  0.9368838667869569  0.6485975384712219  1.0000
  Fe  Fe3       1.0  0.9241763353347778  0.5306881070137024  0.3883329927921295  1.0000
  Ge  Ge1       1.0  0.056667767465114594  0.7070214748382568  0.19986368715763092  1.0000
  Mn  Mn1       1.0  0.968735933303833  0.7894241213798523  0.6474356651306152  1.0000
  Tm  Tm1       1.0  0.2244885414838791  0.19519512355327606  0.1271933764219284  1.0000
  Tm  Tm2       1.0  0.5711464881896973  0.5101521015167236  0.5128490924835205  1.0000
  Tm  Tm3       1.0  0.6992031335830688  0.11285164952278139  0.6969692707061768  1.0000
  Tm  Tm4       1.0  0.8079366087913513  0.7713826894760132  0.9463693499565125  1.0000
  Tm  Tm5       1.0  0.22390897572040558  0.19278228282928467  0.8879627585411072  1.0000
  Tm  Tm6       1.0  0.7439615726470947  0.2582254707813263  0.01668701134622097  1.0000
