data_image0
_chemical_formula_structural       Fe2Ge2MnMoTm5
_chemical_formula_sum              "Fe2 Ge2 Mn1 Mo1 Tm5"
_cell_length_a       4.123336147607013
_cell_length_b       5.939428016948399
_cell_length_c       8.47956657409668
_cell_angle_alpha    90.15600278614106
_cell_angle_beta     88.87844534756026
_cell_angle_gamma    90.29806437375983

_space_group_name_H-M_alt    "P 1"
_space_group_IT_number       1

loop_
  _space_group_symop_operation_xyz
  'x, y, z'

loop_
  _atom_site_type_symbol
  _atom_site_label
  _atom_site_symmetry_multiplicity
  _atom_site_fract_x
  _atom_site_fract_y
  _atom_site_fract_z
  _atom_site_occupancy
  Fe  Fe1       1.0  0.738544225692749  0.7307851910591125  0.06254660338163376  1.0000
  Fe  Fe2       1.0  0.23869675397872925  0.2261422574520111  0.1781071275472641  1.0000
  Ge  Ge1       1.0  0.23570071160793304  0.07629425078630447  0.5376747846603394  1.0000
  Ge  Ge2       1.0  0.7188825607299805  0.4858543276786804  0.8574768900871277  1.0000
  Mn  Mn1       1.0  0.7399368286132812  0.19020873308181763  0.6812032461166382  1.0000
  Mo  Mo1       1.0  0.7356433868408203  0.3592715561389923  0.41298890113830566  1.0000
  Tm  Tm1       1.0  0.23953358829021454  0.8167234063148499  0.7415033578872681  1.0000
  Tm  Tm2       1.0  0.737636387348175  0.8514219522476196  0.372100293636322  1.0000
  Tm  Tm3       1.0  0.2269437313079834  0.5820252299308777  0.907214879989624  1.0000
  Tm  Tm4       1.0  0.7392904162406921  0.515939474105835  0.6701841354370117  1.0000
  Tm  Tm5       1.0  0.7344210147857666  0.992922306060791  0.549956202507019  1.0000
