data_image0
_chemical_formula_structural       Fe2Ge3MnTe2Tm3
_chemical_formula_sum              "Fe2 Ge3 Mn1 Te2 Tm3"
_cell_length_a       5.224283621402769
_cell_length_b       6.563593067766056
_cell_length_c       7.319536209106445
_cell_angle_alpha    88.75986705408228
_cell_angle_beta     88.98124545876895
_cell_angle_gamma    91.97129817442476

_space_group_name_H-M_alt    "P 1"
_space_group_IT_number       1

loop_
  _space_group_symop_operation_xyz
  'x, y, z'

loop_
  _atom_site_type_symbol
  _atom_site_label
  _atom_site_symmetry_multiplicity
  _atom_site_fract_x
  _atom_site_fract_y
  _atom_site_fract_z
  _atom_site_occupancy
  Fe  Fe1       1.0  0.31961125135421753  0.8352554440498352  0.41863542795181274  1.0000
  Fe  Fe2       1.0  0.6297622323036194  0.9588490724563599  0.6072738766670227  1.0000
  Ge  Ge1       1.0  0.3812558650970459  0.8251855969429016  0.03339555114507675  1.0000
  Ge  Ge2       1.0  0.7439706921577454  0.772444486618042  0.7435587048530579  1.0000
  Ge  Ge3       1.0  0.03966107964515686  0.5967918038368225  0.43222537636756897  1.0000
  Mn  Mn1       1.0  0.814847767353058  0.2501777410507202  0.9186638593673706  1.0000
  Te  Te1       1.0  0.2934286892414093  0.24261993169784546  0.24394720792770386  1.0000
  Te  Te2       1.0  0.0499989502131939  0.9481314420700073  0.6110740900039673  1.0000
  Tm  Tm1       1.0  0.7855258584022523  0.22913746535778046  0.1029893010854721  1.0000
  Tm  Tm2       1.0  0.5618410110473633  0.5956049561500549  0.9089551568031311  1.0000
  Tm  Tm3       1.0  0.30562624335289  0.7744938135147095  0.4025554358959198  1.0000
