data_image0
_chemical_formula_structural       Fe4GeTeTm5
_chemical_formula_sum              "Fe4 Ge1 Te1 Tm5"
_cell_length_a       4.222205004033704
_cell_length_b       6.739196479270305
_cell_length_c       7.089825630187988
_cell_angle_alpha    90.02233372680348
_cell_angle_beta     89.20765702809338
_cell_angle_gamma    90.10434065833641

_space_group_name_H-M_alt    "P 1"
_space_group_IT_number       1

loop_
  _space_group_symop_operation_xyz
  'x, y, z'

loop_
  _atom_site_type_symbol
  _atom_site_label
  _atom_site_symmetry_multiplicity
  _atom_site_fract_x
  _atom_site_fract_y
  _atom_site_fract_z
  _atom_site_occupancy
  Fe  Fe1       1.0  0.6326257586479187  0.41074228286743164  0.36276414990425104  1.0000
  Fe  Fe2       1.0  0.637715220451355  0.4206121563911438  0.7408996820449828  1.0000
  Fe  Fe3       1.0  0.13894641399383545  0.907772958278656  0.3681162595748901  1.0000
  Fe  Fe4       1.0  0.15075799822807312  0.6834139823913574  0.4911165237426757  1.0000
  Ge  Ge1       1.0  0.641621470451355  0.011059042066335678  0.740602135658264  1.0000
  Te  Te1       1.0  0.6332516074180603  0.0806674063205719  0.1565319299697876  1.0000
  Tm  Tm1       1.0  0.1386888027191162  0.526561439037323  0.45184543728828425  1.0000
  Tm  Tm2       1.0  0.13793781399726868  0.3914746046066284  0.1855766177177429  1.0000
  Tm  Tm3       1.0  0.12969544529914856  0.9171314835548401  0.4855909943580627  1.0000
  Tm  Tm4       1.0  0.13903792202472687  0.6702434420585632  0.12550446391105652  1.0000
  Tm  Tm5       1.0  0.6240487098693848  0.15633155405521393  0.28627127408981323  1.0000
