data_image0
_chemical_formula_structural       K4PbPt
_chemical_formula_sum              "K4 Pb1 Pt1"
_cell_length_a       4.832585842245431
_cell_length_b       3.7834205610487905
_cell_length_c       7.174099922180176
_cell_angle_alpha    89.1472479925835
_cell_angle_beta     90.12223695213022
_cell_angle_gamma    130.9987951663766

_space_group_name_H-M_alt    "P 1"
_space_group_IT_number       1

loop_
  _space_group_symop_operation_xyz
  'x, y, z'

loop_
  _atom_site_type_symbol
  _atom_site_label
  _atom_site_symmetry_multiplicity
  _atom_site_fract_x
  _atom_site_fract_y
  _atom_site_fract_z
  _atom_site_occupancy
  K   K1        1.0  0.2252042442560196  0.8295427560806274  0.1117885485291481  1.0000
  K   K2        1.0  0.4446205794811249  0.9471869468688965  0.03286571055650711  1.0000
  K   K3        1.0  0.5210839509963989  0.6343507170677185  0.898607611656189  1.0000
  K   K4        1.0  0.29036495089530945  0.14483597874641418  0.09483976662158967  1.0000
  Pb  Pb1       1.0  0.9261226058006287  0.6509710550308228  0.9597683548927307  1.0000
  Pt  Pt1       1.0  0.8094821572303772  0.9420697093009949  0.15265348553657532  1.0000
