data_image0
_chemical_formula_structural       La3Pd3Tl3
_chemical_formula_sum              "La3 Pd3 Tl3"
_cell_length_a       4.161885464411711
_cell_length_b       8.041319255284339
_cell_length_c       8.07903003692627
_cell_angle_alpha    118.91622832677362
_cell_angle_beta     90.05076182196906
_cell_angle_gamma    90.18011195848867

_space_group_name_H-M_alt    "P 1"
_space_group_IT_number       1

loop_
  _space_group_symop_operation_xyz
  'x, y, z'

loop_
  _atom_site_type_symbol
  _atom_site_label
  _atom_site_symmetry_multiplicity
  _atom_site_fract_x
  _atom_site_fract_y
  _atom_site_fract_z
  _atom_site_occupancy
  La  La1       1.0  0.9191622734069824  0.9563328623771667  0.7030266523361206  1.0000
  La  La2       1.0  0.9183931946754456  0.1534210592508316  0.2981920540332794  1.0000
  La  La3       1.0  0.9138287901878357  0.5526298880577087  0.09964112937450412  1.0000
  Pd  Pd1       1.0  0.41565901041030884  0.2227756232023239  0.037623181939125075  1.0000
  Pd  Pd2       1.0  0.9168918132781982  0.5569247007369995  0.7013038992881775  1.0000
  Pd  Pd3       1.0  0.4185478985309601  0.8896529674530029  0.36838266253471386  1.0000
  Tl  Tl1       1.0  0.41835281252861023  0.8167027235031128  0.9604423046112062  1.0000
  Tl  Tl2       1.0  0.4211881160736084  0.5589873194694519  0.44405725598335277  1.0000
  Tl  Tl3       1.0  0.41939011216163635  0.2999706566333771  0.7013207674026489  1.0000
