data_image0
_chemical_formula_structural       BrGeLaPd2PrTbTeU
_chemical_formula_sum              "Br1 Ge1 La1 Pd2 Pr1 Tb1 Te1 U1"
_cell_length_a       6.476680951560775
_cell_length_b       6.464070473052136
_cell_length_c       6.471604824066162
_cell_angle_alpha    64.28973442882892
_cell_angle_beta     64.29341830196411
_cell_angle_gamma    63.943757354695634

_space_group_name_H-M_alt    "P 1"
_space_group_IT_number       1

loop_
  _space_group_symop_operation_xyz
  'x, y, z'

loop_
  _atom_site_type_symbol
  _atom_site_label
  _atom_site_symmetry_multiplicity
  _atom_site_fract_x
  _atom_site_fract_y
  _atom_site_fract_z
  _atom_site_occupancy
  Br  Br1       1.0  0.45022788643836975  0.7119691967964172  0.9992329478263855  1.0000
  Ge  Ge1       1.0  0.12422923743724823  0.40180155634880066  0.6909079551696777  1.0000
  La  La1       1.0  0.4448828101158142  0.20968925952911377  0.9994897842407227  1.0000
  Pd  Pd1       1.0  0.9018759727478027  0.18369060754776  0.07943636924028397  1.0000
  Pd  Pd2       1.0  0.903840959072113  0.7880398631095886  0.47270676493644714  1.0000
  Pr  Pr1       1.0  0.9506641626358032  0.7182642221450806  0.004407251719385454  1.0000
  Tb  Tb1       1.0  0.4447668790817261  0.7176856994628906  0.4975807964801789  1.0000
  Te  Te1       1.0  0.4960949420928955  0.17673487961292267  0.47136390209198  1.0000
  U   U1        1.0  0.9345153570175171  0.20868170261383057  0.49609035253524786  1.0000
