data_image0
_chemical_formula_structural       La4Pd3Tl2
_chemical_formula_sum              "La4 Pd3 Tl2"
_cell_length_a       4.0219789700384805
_cell_length_b       8.133478210147377
_cell_length_c       8.243657112121582
_cell_angle_alpha    111.26622152421814
_cell_angle_beta     90.05022738579486
_cell_angle_gamma    89.99948100407568

_space_group_name_H-M_alt    "P 1"
_space_group_IT_number       1

loop_
  _space_group_symop_operation_xyz
  'x, y, z'

loop_
  _atom_site_type_symbol
  _atom_site_label
  _atom_site_symmetry_multiplicity
  _atom_site_fract_x
  _atom_site_fract_y
  _atom_site_fract_z
  _atom_site_occupancy
  La  La1       1.0  0.3137170970439911  0.6269150972366333  0.881704270839691  1.0000
  La  La2       1.0  0.30504417419433594  0.5713080167770386  0.3557736873626709  1.0000
  La  La3       1.0  0.31164947152137756  0.08561477065086365  0.00041994414641521535  1.0000
  La  La4       1.0  0.3124280571937561  0.11272085458040237  0.48167699575424194  1.0000
  Pd  Pd1       1.0  0.8099809288978577  0.23877693712711334  0.2800242304801941  1.0000
  Pd  Pd2       1.0  0.8100433945655823  0.45379379391670227  0.6156119108200073  1.0000
  Pd  Pd3       1.0  0.8107801675796509  0.8364462852478027  0.21193230152130121  1.0000
  Tl  Tl1       1.0  0.8099030256271362  0.8609891533851624  0.6560081243515015  1.0000
  Tl  Tl2       1.0  0.8114631175994873  0.4044647216796875  0.0016461610794067383  1.0000
