data_image0
_chemical_formula_structural       BrGePdPrTaTbTeVZr
_chemical_formula_sum              "Br1 Ge1 Pd1 Pr1 Ta1 Tb1 Te1 V1 Zr1"
_cell_length_a       6.506618011185573
_cell_length_b       6.482828321464163
_cell_length_c       6.5073418617248535
_cell_angle_alpha    65.17929695249117
_cell_angle_beta     65.09398269827153
_cell_angle_gamma    64.78231746923127

_space_group_name_H-M_alt    "P 1"
_space_group_IT_number       1

loop_
  _space_group_symop_operation_xyz
  'x, y, z'

loop_
  _atom_site_type_symbol
  _atom_site_label
  _atom_site_symmetry_multiplicity
  _atom_site_fract_x
  _atom_site_fract_y
  _atom_site_fract_z
  _atom_site_occupancy
  Br  Br1       1.0  0.7090259194374084  0.5146883726119995  0.15965230762958524  1.0000
  Ge  Ge1       1.0  0.1739920824766159  0.31164470314979553  0.6801369786262512  1.0000
  Pd  Pd1       1.0  0.456947386264801  0.8872667551040649  0.8154054880142212  1.0000
  Pr  Pr1       1.0  0.6490160822868347  0.31102800369262695  0.6768436431884766  1.0000
  Ta  Ta1       1.0  0.4739939272403717  0.01889972947537899  0.3626976013183594  1.0000
  Tb  Tb1       1.0  0.23979590833187103  0.49405157566070557  0.17261269688606262  1.0000
  Te  Te1       1.0  0.08376498520374298  0.8337252736091614  0.7471125721931458  1.0000
  V   V1        1.0  0.8806565999984741  0.7144684791564941  0.5459833741188049  1.0000
  Zr  Zr1       1.0  0.9900859594345093  0.06846587359905243  0.17046068608760834  1.0000
