data_image0
_chemical_formula_structural       CF2GeH4O5PPbSb2V
_chemical_formula_sum              "C1 F2 Ge1 H4 O5 P1 Pb1 Sb2 V1"
_cell_length_a       5.918737567654948
_cell_length_b       6.332185385355313
_cell_length_c       8.097245216369629
_cell_angle_alpha    89.53554806328096
_cell_angle_beta     90.8014558189828
_cell_angle_gamma    90.63923745990341

_space_group_name_H-M_alt    "P 1"
_space_group_IT_number       1

loop_
  _space_group_symop_operation_xyz
  'x, y, z'

loop_
  _atom_site_type_symbol
  _atom_site_label
  _atom_site_symmetry_multiplicity
  _atom_site_fract_x
  _atom_site_fract_y
  _atom_site_fract_z
  _atom_site_occupancy
  C   C1        1.0  0.5090934038162231  0.49078094959259033  0.6273478865623474  1.0000
  F   F1        1.0  0.38253653049468994  0.5663396120071411  0.8809412121772765  1.0000
  F   F2        1.0  0.31432998180389404  0.6389928460121155  0.13142316043376923  1.0000
  Ge  Ge1       1.0  0.5187184810638428  0.5821835994720459  0.5427501201629639  1.0000
  H   H1        1.0  0.9842336773872375  0.49411818385124207  0.3953300416469574  1.0000
  H   H2        1.0  0.2558129131793976  0.8673964738845825  0.10412217676639557  1.0000
  H   H3        1.0  0.8237087726593018  0.8217551112174988  0.8295590281486511  1.0000
  H   H4        1.0  0.8053280115127563  0.5734719634056091  0.2635229229927063  1.0000
  O   O1        1.0  0.7802867889404297  0.269827663898468  0.9838820695877075  1.0000
  O   O2        1.0  0.8677418231964111  0.5485486388206482  0.8594886660575867  1.0000
  O   O3        1.0  0.24030941724777222  0.3373669385910034  0.7199476957321167  1.0000
  O   O4        1.0  0.8766917586326599  0.09795963764190674  0.05333500728011131  1.0000
  O   O5        1.0  0.27042269706726074  0.13841983675956726  0.5017586350440979  1.0000
  P   P1        1.0  0.829792857170105  0.5299588441848755  0.9987391829490662  1.0000
  Pb  Pb1       1.0  0.28026479482650757  0.13722975552082062  0.6012458801269531  1.0000
  Sb  Sb1       1.0  0.7798531651496887  0.940149188041687  0.3714851140975952  1.0000
  Sb  Sb2       1.0  0.574537992477417  0.7813080549240112  0.8179784417152405  1.0000
  V   V1        1.0  0.795253336429596  0.3232421278953552  0.24877266585826874  1.0000
