data_image0
_chemical_formula_structural       F2GeH5O3PbSb5Zr
_chemical_formula_sum              "F2 Ge1 H5 O3 Pb1 Sb5 Zr1"
_cell_length_a       6.285624715462148
_cell_length_b       8.477419329872593
_cell_length_c       9.388936996459961
_cell_angle_alpha    116.96699448352913
_cell_angle_beta     91.97220530395548
_cell_angle_gamma    98.18957471984389

_space_group_name_H-M_alt    "P 1"
_space_group_IT_number       1

loop_
  _space_group_symop_operation_xyz
  'x, y, z'

loop_
  _atom_site_type_symbol
  _atom_site_label
  _atom_site_symmetry_multiplicity
  _atom_site_fract_x
  _atom_site_fract_y
  _atom_site_fract_z
  _atom_site_occupancy
  F   F1        1.0  0.21608057618141174  0.35419815778732294  0.9056745767593384  1.0000
  F   F2        1.0  0.7031905651092529  0.9638794064521788  0.2699905335903167  1.0000
  Ge  Ge1       1.0  0.07391201704740523  0.22974455356597898  0.5725699663162231  1.0000
  H   H1        1.0  0.08900600671768187  0.3753368258476257  0.4320846498012543  1.0000
  H   H2        1.0  0.12245983630418777  0.10230310261249541  0.18843013048171994  1.0000
  H   H3        1.0  0.14837789535522458  0.9365315437316893  0.3480424582958221  1.0000
  H   H4        1.0  0.582373321056366  0.06967432796955107  0.8246726989746094  1.0000
  H   H5        1.0  0.731806755065918  0.4721170365810394  0.8313590288162231  1.0000
  O   O1        1.0  0.41925227642059326  0.28189760446548456  0.2522244155406952  1.0000
  O   O2        1.0  0.9165275692939758  0.44643363356590265  0.06796312332153316  1.0000
  O   O3        1.0  0.45529991388320923  0.7023168206214904  0.40295836329460133  1.0000
  Pb  Pb1       1.0  0.6709555983543396  0.7945526838302611  0.6034885048866272  1.0000
  Sb  Sb1       1.0  0.028665008023381216  0.7280172109603881  0.42493957281112665  1.0000
  Sb  Sb2       1.0  0.23829568922519684  0.5474101901054382  0.9171384572982788  1.0000
  Sb  Sb3       1.0  0.12839838862419126  0.7114994525909423  0.3716877996921539  1.0000
  Sb  Sb4       1.0  0.6791205406188965  0.17767998576164243  0.895195484161377  1.0000
  Sb  Sb5       1.0  0.15034180879592896  0.23244184255599973  0.5369882583618164  1.0000
  Zr  Zr1       1.0  0.5358324646949768  0.16222876310348508  0.7789888978004456  1.0000
