data_image0
_chemical_formula_structural       C2ClF4H3O5PS2
_chemical_formula_sum              "C2 Cl1 F4 H3 O5 P1 S2"
_cell_length_a       5.904414628169202
_cell_length_b       8.012599583901439
_cell_length_c       8.851716995239258
_cell_angle_alpha    119.41674414977584
_cell_angle_beta     91.41313066533392
_cell_angle_gamma    89.89969065607308

_space_group_name_H-M_alt    "P 1"
_space_group_IT_number       1

loop_
  _space_group_symop_operation_xyz
  'x, y, z'

loop_
  _atom_site_type_symbol
  _atom_site_label
  _atom_site_symmetry_multiplicity
  _atom_site_fract_x
  _atom_site_fract_y
  _atom_site_fract_z
  _atom_site_occupancy
  C   C1        1.0  0.5564317107200623  0.2751389741897583  0.9758842587471008  1.0000
  C   C2        1.0  0.28751495480537415  0.41181501746177673  0.7061299085617065  1.0000
  Cl  Cl1       1.0  0.04852314293384553  0.22195754945278168  0.4276985824108124  1.0000
  F   F1        1.0  0.3142423927783966  0.05567781999707222  0.8768290281295776  1.0000
  F   F2        1.0  0.9480038285255433  0.3959784507751465  0.28189656138420105  1.0000
  F   F3        1.0  0.5572401881217957  0.00933004543185234  0.09002815932035446  1.0000
  F   F4        1.0  0.5548332929611206  0.6419492959976196  0.8676865696907043  1.0000
  H   H1        1.0  0.05561314150691033  0.04630877822637558  0.5869708061218262  1.0000
  H   H2        1.0  0.7883700728416444  0.5464189052581787  0.17865084111690527  1.0000
  H   H3        1.0  0.2531941831111908  0.2300801575183868  0.36008211970329285  1.0000
  O   O1        1.0  0.06161018460988999  0.1849064975976944  0.11160115152597427  1.0000
  O   O2        1.0  0.5544410943984985  0.8316073417663574  0.026610882952809334  1.0000
  O   O3        1.0  0.049474909901618964  0.4604895710945129  0.6931112408638  1.0000
  O   O4        1.0  0.05137919262051583  0.8492699861526489  0.7764200568199158  1.0000
  O   O5        1.0  0.054670162498950965  0.36448898911476135  0.5179852843284607  1.0000
  P   P1        1.0  0.5544987320899963  0.6508271098136902  0.5519278645515442  1.0000
  S   S1        1.0  0.5327116847038269  0.8313167095184326  0.06417138874530792  1.0000
  S   S2        1.0  0.5509470105171204  0.5138717889785767  0.5511243343353271  1.0000
