data_image0
_chemical_formula_structural       C4F3HI2NO5SbZr
_chemical_formula_sum              "C4 F3 H1 I2 N1 O5 Sb1 Zr1"
_cell_length_a       5.65229801493352
_cell_length_b       7.7071707441589705
_cell_length_c       9.184991836547852
_cell_angle_alpha    99.33376487500757
_cell_angle_beta     89.20255455466932
_cell_angle_gamma    90.41102499246614

_space_group_name_H-M_alt    "P 1"
_space_group_IT_number       1

loop_
  _space_group_symop_operation_xyz
  'x, y, z'

loop_
  _atom_site_type_symbol
  _atom_site_label
  _atom_site_symmetry_multiplicity
  _atom_site_fract_x
  _atom_site_fract_y
  _atom_site_fract_z
  _atom_site_occupancy
  C   C1        1.0  0.9407595396041869  0.6628124713897704  0.9610235691070557  1.0000
  C   C2        1.0  0.41895219683647145  0.3335973918437957  0.08883480727672577  1.0000
  C   C3        1.0  0.9420313239097594  0.6592848300933837  0.9475283026695251  1.0000
  C   C4        1.0  0.9457919597625731  0.07753472775220871  0.7538267970085144  1.0000
  F   F1        1.0  0.9546367526054381  0.20406842231750486  0.16550901532173157  1.0000
  F   F2        1.0  0.9497163891792296  0.764977991580963  0.1893937885761261  1.0000
  F   F3        1.0  0.9621673226356505  0.6473830938339232  0.8931843042373657  1.0000
  H   H1        1.0  0.9594789743423461  0.14503411948680878  0.2884906530380249  1.0000
  I   I1        1.0  0.9345866441726682  0.8684214949607848  0.8162350654602051  1.0000
  I   I2        1.0  0.4418612718582153  0.7384576201438903  0.10401488095521925  1.0000
  N   N1        1.0  0.9479556679725646  0.5973299741744995  0.4490795433521271  1.0000
  O   O1        1.0  0.9226644635200499  0.9923959374427794  0.2337881624698639  1.0000
  O   O2        1.0  0.3978361487388611  0.37274050712585444  0.6514645218849182  1.0000
  O   O3        1.0  0.47776210308074946  0.17585222423076627  0.9212810397148132  1.0000
  O   O4        1.0  0.839101254940033  0.026702424511313435  0.9473653435707092  1.0000
  O   O5        1.0  0.46526661515235895  0.7527378797531127  0.8013107180595398  1.0000
  Sb  Sb1       1.0  0.45017895102500904  0.21558520197868344  0.1775316298007965  1.0000
  Zr  Zr1       1.0  0.4324999153614044  0.007542024366557597  0.11211693286895752  1.0000
