data_image0
_chemical_formula_structural       C2Cl2F3FeH2O5PS2
_chemical_formula_sum              "C2 Cl2 F3 Fe1 H2 O5 P1 S2"
_cell_length_a       7.061628373140057
_cell_length_b       6.922761426194826
_cell_length_c       7.7654337882995605
_cell_angle_alpha    112.65662295024599
_cell_angle_beta     106.44043244509447
_cell_angle_gamma    106.44584100318436

_space_group_name_H-M_alt    "P 1"
_space_group_IT_number       1

loop_
  _space_group_symop_operation_xyz
  'x, y, z'

loop_
  _atom_site_type_symbol
  _atom_site_label
  _atom_site_symmetry_multiplicity
  _atom_site_fract_x
  _atom_site_fract_y
  _atom_site_fract_z
  _atom_site_occupancy
  C   C1        1.0  0.544746994972229  0.7458725571632385  0.7500718832015991  1.0000
  C   C2        1.0  0.0352819450199604  0.9770333766937256  0.5757439732551574  1.0000
  Cl  Cl1       1.0  0.5439655780792236  0.7224130630493164  0.44077712297439564  1.0000
  Cl  Cl2       1.0  0.5433957576751709  0.6761332750320435  0.5850585699081421  1.0000
  F   F1        1.0  0.9682589769363403  0.17345094680786133  0.6817463040351868  1.0000
  F   F2        1.0  0.8055933713912964  0.08695906400680542  0.17789818346500397  1.0000
  F   F3        1.0  0.5518614053726196  0.2328193038702011  0.056859571486711495  1.0000
  Fe  Fe1       1.0  0.027093445882201195  0.3594744801521301  0.8512292504310607  1.0000
  H   H1        1.0  0.5316088795661926  0.9172481298446655  0.3065984249114989  1.0000
  H   H2        1.0  0.5264692902565002  0.607488214969635  0.7239068746566772  1.0000
  O   O1        1.0  0.5237835645675659  0.7373143434524536  0.13981118798255915  1.0000
  O   O2        1.0  0.19195014238357544  0.5751808881759644  0.6080446839332581  1.0000
  O   O3        1.0  0.4628109037876129  0.17441007494926453  0.503291130065918  1.0000
  O   O4        1.0  0.01606149785220623  0.14526811242103577  0.0913025438785553  1.0000
  O   O5        1.0  0.9389578700065613  0.9448458552360535  0.8688272833824157  1.0000
  P   P1        1.0  0.07934484630823135  0.9431160092353821  0.7340855002403258  1.0000
  S   S1        1.0  0.02481509931385517  0.12066115438938141  0.6742584109306335  1.0000
  S   S2        1.0  0.28983089327812195  0.2523932158946991  0.265041708946228  1.0000
