data_image0
_chemical_formula_structural       C2F4H2O4Sb5V
_chemical_formula_sum              "C2 F4 H2 O4 Sb5 V1"
_cell_length_a       6.524497912177463
_cell_length_b       7.218790635367848
_cell_length_c       7.984086990356445
_cell_angle_alpha    114.18625482665217
_cell_angle_beta     104.16037280769271
_cell_angle_gamma    92.53199218945487

_space_group_name_H-M_alt    "P 1"
_space_group_IT_number       1

loop_
  _space_group_symop_operation_xyz
  'x, y, z'

loop_
  _atom_site_type_symbol
  _atom_site_label
  _atom_site_symmetry_multiplicity
  _atom_site_fract_x
  _atom_site_fract_y
  _atom_site_fract_z
  _atom_site_occupancy
  C   C1        1.0  0.49165004491806025  0.25484976172447205  0.21479053795337674  1.0000
  C   C2        1.0  0.5139626264572144  0.3174670934677124  0.1407714933156967  1.0000
  F   F1        1.0  0.030826011672616  0.10810517519712448  0.7233691215515136  1.0000
  F   F2        1.0  0.8769028782844542  0.6349709033966064  0.6726711988449096  1.0000
  F   F3        1.0  0.684161365032196  0.2235199213027954  0.19682103395462028  1.0000
  F   F4        1.0  0.5452411770820618  0.7609357237815857  0.218915432691574  1.0000
  H   H1        1.0  0.21404579281806946  0.4248739182949066  0.6036046147346497  1.0000
  H   H2        1.0  0.24880085885524747  0.4132250249385834  0.6785037517547606  1.0000
  O   O1        1.0  0.387366384267807  0.7128384113311768  0.17013089358806607  1.0000
  O   O2        1.0  0.3597279191017151  0.3584854304790497  0.47397503256797785  1.0000
  O   O3        1.0  0.88264662027359  0.873062252998352  0.1670167893171309  1.0000
  O   O4        1.0  0.6580655574798584  0.14748156070709229  0.15963986515998838  1.0000
  Sb  Sb1       1.0  0.06815310567617416  0.7912465333938599  0.43616506457328785  1.0000
  Sb  Sb2       1.0  0.9888101816177367  0.7266027331352234  0.9661880731582639  1.0000
  Sb  Sb3       1.0  0.3371400237083435  0.5800426006317139  0.34619316458702076  1.0000
  Sb  Sb4       1.0  0.0450843907892704  0.05955827981233597  0.39341148734092707  1.0000
  Sb  Sb5       1.0  0.8188956379890442  0.23686908185482025  0.9529144167900084  1.0000
  V   V1        1.0  0.16971011459827423  0.35223978757858276  0.5842358469963074  1.0000
