data_image0
_chemical_formula_structural       BrFGeOPdReTeXe2
_chemical_formula_sum              "Br1 F1 Ge1 O1 Pd1 Re1 Te1 Xe2"
_cell_length_a       6.363310221023545
_cell_length_b       6.362637499568409
_cell_length_c       6.343116760253906
_cell_angle_alpha    106.0751992644606
_cell_angle_beta     106.64442148587128
_cell_angle_gamma    107.57624391299625

_space_group_name_H-M_alt    "P 1"
_space_group_IT_number       1

loop_
  _space_group_symop_operation_xyz
  'x, y, z'

loop_
  _atom_site_type_symbol
  _atom_site_label
  _atom_site_symmetry_multiplicity
  _atom_site_fract_x
  _atom_site_fract_y
  _atom_site_fract_z
  _atom_site_occupancy
  Br  Br1       1.0  0.5532318353652954  0.8336814045906067  0.6444796323776245  1.0000
  F   F1        1.0  0.5642000436782837  0.379584401845932  0.7819811701774597  1.0000
  Ge  Ge1       1.0  0.17101846635341644  0.23749883472919464  0.8040931820869446  1.0000
  O   O1        1.0  0.03543200343847275  0.4855308532714844  0.7388758659362793  1.0000
  Pd  Pd1       1.0  0.9316901564598083  0.6586970090866089  0.9773553013801574  1.0000
  Re  Re1       1.0  0.6880034804344177  0.46582818031311035  0.5105035901069641  1.0000
  Te  Te1       1.0  0.3202193081378937  0.07566198706626892  0.1416015326976776  1.0000
  Xe  Xe1       1.0  0.7620367407798767  0.7661060690879822  0.28624916076660156  1.0000
  Xe  Xe2       1.0  0.9561637043952942  0.3444254696369171  0.29198920726776123  1.0000
