data_image0
_chemical_formula_structural       BrF3GeHMoPdRe
_chemical_formula_sum              "Br1 F3 Ge1 H1 Mo1 Pd1 Re1"
_cell_length_a       5.844243198283251
_cell_length_b       5.847047976716118
_cell_length_c       6.031449794769287
_cell_angle_alpha    63.89850080388038
_cell_angle_beta     63.80662347717494
_cell_angle_gamma    61.98229273660536

_space_group_name_H-M_alt    "P 1"
_space_group_IT_number       1

loop_
  _space_group_symop_operation_xyz
  'x, y, z'

loop_
  _atom_site_type_symbol
  _atom_site_label
  _atom_site_symmetry_multiplicity
  _atom_site_fract_x
  _atom_site_fract_y
  _atom_site_fract_z
  _atom_site_occupancy
  Br  Br1       1.0  0.883688747882843  0.7091919779777527  0.6061178445816039  1.0000
  F   F1        1.0  0.11393260210752487  0.9702226519584656  0.8011744022369385  1.0000
  F   F2        1.0  0.022638482972979546  0.3037354648113251  0.1255342811346054  1.0000
  F   F3        1.0  0.5976454019546509  0.9350981712341309  0.14557428658008573  1.0000
  Ge  Ge1       1.0  0.5374926328659058  0.3452490568161011  0.6021632552146912  1.0000
  H   H1        1.0  0.41322967410087585  0.4650554656982422  0.12229645252227783  1.0000
  Mo  Mo1       1.0  0.2669987976551056  0.5707882046699524  0.8507664799690247  1.0000
  Pd  Pd1       1.0  0.2755453884601593  0.11074449867010117  0.37286823987960815  1.0000
  Re  Re1       1.0  0.7436277270317078  0.2646314203739166  0.9227908253669739  1.0000
