data_image0
_chemical_formula_structural       Pd3Re4Ti2
_chemical_formula_sum              "Pd3 Re4 Ti2"
_cell_length_a       2.81258443903943
_cell_length_b       7.048201963883662
_cell_length_c       7.133185863494873
_cell_angle_alpha    113.05435955553337
_cell_angle_beta     89.99047533276205
_cell_angle_gamma    90.42851438421687

_space_group_name_H-M_alt    "P 1"
_space_group_IT_number       1

loop_
  _space_group_symop_operation_xyz
  'x, y, z'

loop_
  _atom_site_type_symbol
  _atom_site_label
  _atom_site_symmetry_multiplicity
  _atom_site_fract_x
  _atom_site_fract_y
  _atom_site_fract_z
  _atom_site_occupancy
  Pd  Pd1       1.0  0.4071020185947418  0.3027058243751526  0.08688039332628249  1.0000
  Pd  Pd2       1.0  0.40481171011924744  0.6261984705924988  0.933802604675293  1.0000
  Pd  Pd3       1.0  0.4054412841796875  0.9553677439689636  0.8348784446716309  1.0000
  Re  Re1       1.0  0.40695610642433167  0.31776565313339233  0.45798969268798834  1.0000
  Re  Re2       1.0  0.9006568193435669  0.6620402932167053  0.6306479573249817  1.0000
  Re  Re3       1.0  0.9065961837768555  0.6100090146064758  0.25244477391242975  1.0000
  Re  Re4       1.0  0.4078330397605896  0.9385824799537659  0.4656466841697693  1.0000
  Ti  Ti1       1.0  0.9065176248550415  0.2578265964984894  0.7522135972976685  1.0000
  Ti  Ti2       1.0  0.9050375819206238  0.9909429550170898  0.16316118836402885  1.0000
