data_image0
_chemical_formula_structural       Ge7Se3
_chemical_formula_sum              "Ge7 Se3"
_cell_length_a       5.627203000829291
_cell_length_b       5.202347123109957
_cell_length_c       6.694435119628906
_cell_angle_alpha    124.05654827234908
_cell_angle_beta     111.66597093073192
_cell_angle_gamma    118.04491467614613

_space_group_name_H-M_alt    "P 1"
_space_group_IT_number       1

loop_
  _space_group_symop_operation_xyz
  'x, y, z'

loop_
  _atom_site_type_symbol
  _atom_site_label
  _atom_site_symmetry_multiplicity
  _atom_site_fract_x
  _atom_site_fract_y
  _atom_site_fract_z
  _atom_site_occupancy
  Ge  Ge1       1.0  0.5520728826522827  0.8761051893234253  0.9599607586860657  1.0000
  Ge  Ge2       1.0  0.6423447132110597  0.029959175735712187  0.9230688214302064  1.0000
  Ge  Ge3       1.0  0.9134430885314941  0.3750386536121368  0.9086194038391113  1.0000
  Ge  Ge4       1.0  0.45858663320541376  0.85439395904541  0.758335292339325  1.0000
  Ge  Ge5       1.0  0.4032611846923829  0.8618291020393373  0.6541763544082643  1.0000
  Ge  Ge6       1.0  0.9031573534011841  0.4976659417152406  0.7373769879341127  1.0000
  Ge  Ge7       1.0  0.45151403546333324  0.8201739192008973  0.5323923826217652  1.0000
  Se  Se1       1.0  0.02999163419008254  0.08540658652782439  0.19559113681316376  1.0000
  Se  Se2       1.0  0.35858798027038574  0.20609992742538452  0.8146342635154724  1.0000
  Se  Se3       1.0  0.9419102668762207  0.06340081244707112  0.5372112989425659  1.0000
