data_image0
_chemical_formula_structural       Ge6ISe2V
_chemical_formula_sum              "Ge6 I1 Se2 V1"
_cell_length_a       5.925241335447043
_cell_length_b       5.767688586181262
_cell_length_c       7.65663480758667
_cell_angle_alpha    109.0689485993331
_cell_angle_beta     111.41877315809252
_cell_angle_gamma    121.18110455525806

_space_group_name_H-M_alt    "P 1"
_space_group_IT_number       1

loop_
  _space_group_symop_operation_xyz
  'x, y, z'

loop_
  _atom_site_type_symbol
  _atom_site_label
  _atom_site_symmetry_multiplicity
  _atom_site_fract_x
  _atom_site_fract_y
  _atom_site_fract_z
  _atom_site_occupancy
  Ge  Ge1       1.0  0.9379387497901917  0.7914122939109802  0.1431110650300979  1.0000
  Ge  Ge2       1.0  0.22381587326526642  0.003828719025477767  0.29180535674095154  1.0000
  Ge  Ge3       1.0  0.995355486869812  0.4608570337295532  0.8395184874534607  1.0000
  Ge  Ge4       1.0  0.668206512928009  0.4621894359588623  0.9723201990127562  1.0000
  Ge  Ge5       1.0  0.6200404167175293  0.2501033842563629  0.3763772249221802  1.0000
  Ge  Ge6       1.0  0.37111493945121765  0.7018992900848389  0.9453646540641785  1.0000
  I   I1        1.0  0.556050181388855  0.8205398917198181  0.7119142413139343  1.0000
  Se  Se1       1.0  0.5713284611701965  0.9459583759307861  0.044341608881950316  1.0000
  Se  Se2       1.0  0.4987930655479431  0.12749047577381134  0.471091628074646  1.0000
  V   V1        1.0  0.1488853245973587  0.8497146368026733  0.8956171870231628  1.0000
