data_image0
_chemical_formula_structural       Ge7Se2V
_chemical_formula_sum              "Ge7 Se2 V1"
_cell_length_a       3.9083710802122855
_cell_length_b       3.458734475582315
_cell_length_c       9.720131874084473
_cell_angle_alpha    91.87795600820597
_cell_angle_beta     91.12403265937033
_cell_angle_gamma    150.7330232625127

_space_group_name_H-M_alt    "P 1"
_space_group_IT_number       1

loop_
  _space_group_symop_operation_xyz
  'x, y, z'

loop_
  _atom_site_type_symbol
  _atom_site_label
  _atom_site_symmetry_multiplicity
  _atom_site_fract_x
  _atom_site_fract_y
  _atom_site_fract_z
  _atom_site_occupancy
  Ge  Ge1       1.0  0.9221369624137878  0.3942474126815796  0.45478078722953796  1.0000
  Ge  Ge2       1.0  0.4482056796550751  0.9540223479270935  0.7926853895187378  1.0000
  Ge  Ge3       1.0  0.4648077189922333  0.5296991467475891  0.18438711762428284  1.0000
  Ge  Ge4       1.0  0.9372456669807434  0.4042936861515045  0.6700745820999146  1.0000
  Ge  Ge5       1.0  0.014155891723930836  0.02570871263742447  0.15254610776901245  1.0000
  Ge  Ge6       1.0  0.938607394695282  0.4889819324016571  0.03793610259890556  1.0000
  Ge  Ge7       1.0  0.4396650493144989  0.8097240924835205  0.16797375679016113  1.0000
  Se  Se1       1.0  0.9899413585662842  0.6478951573371887  0.9389650821685791  1.0000
  Se  Se2       1.0  0.5069233179092407  0.05868493393063545  0.4266343116760254  1.0000
  V   V1        1.0  0.46565452218055725  0.1323859542608261  0.905696451663971  1.0000
