data_image0
_chemical_formula_structural       Ge7Se2V
_chemical_formula_sum              "Ge7 Se2 V1"
_cell_length_a       4.426806733229831
_cell_length_b       6.321762985431845
_cell_length_c       6.968499183654785
_cell_angle_alpha    89.47348290589468
_cell_angle_beta     88.99906552450032
_cell_angle_gamma    94.66094505849945

_space_group_name_H-M_alt    "P 1"
_space_group_IT_number       1

loop_
  _space_group_symop_operation_xyz
  'x, y, z'

loop_
  _atom_site_type_symbol
  _atom_site_label
  _atom_site_symmetry_multiplicity
  _atom_site_fract_x
  _atom_site_fract_y
  _atom_site_fract_z
  _atom_site_occupancy
  Ge  Ge1       1.0  0.41216805577278137  0.7169725894927979  0.27238091826438904  1.0000
  Ge  Ge2       1.0  0.9072924852371216  0.8617639541625977  0.8398085236549377  1.0000
  Ge  Ge3       1.0  0.40617212653160095  0.2780088782310486  0.4185982048511505  1.0000
  Ge  Ge4       1.0  0.3871135115623474  0.6581217646598816  0.8647774457931519  1.0000
  Ge  Ge5       1.0  0.8956603407859802  0.8896946310997009  0.3007761240005493  1.0000
  Ge  Ge6       1.0  0.8992910385131836  0.7976093888282776  0.6890121102333069  1.0000
  Ge  Ge7       1.0  0.39264142513275146  0.24049869179725647  0.11823300272226334  1.0000
  Se  Se1       1.0  0.37446480989456177  0.6618812084197998  0.1377565860748291  1.0000
  Se  Se2       1.0  0.8939564228057861  0.8494038581848145  0.8220747709274292  1.0000
  V   V1        1.0  0.8811843991279602  0.677497148513794  0.9015078544616699  1.0000
