data_image0
_chemical_formula_structural       Ge5O2Se3
_chemical_formula_sum              "Ge5 O2 Se3"
_cell_length_a       4.97358807368701
_cell_length_b       5.943131971156592
_cell_length_c       6.380480766296387
_cell_angle_alpha    106.13544535595693
_cell_angle_beta     111.88041282981965
_cell_angle_gamma    96.1145137466244

_space_group_name_H-M_alt    "P 1"
_space_group_IT_number       1

loop_
  _space_group_symop_operation_xyz
  'x, y, z'

loop_
  _atom_site_type_symbol
  _atom_site_label
  _atom_site_symmetry_multiplicity
  _atom_site_fract_x
  _atom_site_fract_y
  _atom_site_fract_z
  _atom_site_occupancy
  Ge  Ge1       1.0  0.9450234174728394  0.9459362030029297  0.3977190852165222  1.0000
  Ge  Ge2       1.0  0.41096755862236023  0.6538525223731995  0.46476906538009644  1.0000
  Ge  Ge3       1.0  0.43613073229789734  0.8490831255912781  0.37528976798057556  1.0000
  Ge  Ge4       1.0  0.9121009707450867  0.6570208072662354  0.9525836110115051  1.0000
  Ge  Ge5       1.0  0.472187876701355  0.6833294034004211  0.17512108385562897  1.0000
  O   O1        1.0  0.015846872702240944  0.12601536512374878  0.7820457816123962  1.0000
  O   O2        1.0  0.3874428868293762  0.1693945974111557  0.43697020411491394  1.0000
  Se  Se1       1.0  0.9437141418457031  0.19648805260658264  0.48810756206512446  1.0000
  Se  Se2       1.0  0.9495213627815247  0.5037879943847656  0.513351321220398  1.0000
  Se  Se3       1.0  0.47249636054039  0.7776129841804504  0.816481351852417  1.0000
