data_image0
_chemical_formula_structural       Ge6O2Se2
_chemical_formula_sum              "Ge6 O2 Se2"
_cell_length_a       1.6956910975508959
_cell_length_b       6.2808912487338615
_cell_length_c       4.406278610229492
_cell_angle_alpha    84.55722188238566
_cell_angle_beta     28.110567583346157
_cell_angle_gamma    95.24846772534818

_space_group_name_H-M_alt    "P 1"
_space_group_IT_number       1

loop_
  _space_group_symop_operation_xyz
  'x, y, z'

loop_
  _atom_site_type_symbol
  _atom_site_label
  _atom_site_symmetry_multiplicity
  _atom_site_fract_x
  _atom_site_fract_y
  _atom_site_fract_z
  _atom_site_occupancy
  Ge  Ge1       1.0  0.7743281126022339  0.5571882724761963  0.7863948345184326  1.0000
  Ge  Ge2       1.0  0.29135030508041354  0.21798071265220642  0.8145278096199037  1.0000
  Ge  Ge3       1.0  0.7864793539047236  0.982043445110321  0.9746422171592714  1.0000
  Ge  Ge4       1.0  0.27440482378005954  0.8987704515457153  0.8235789537429811  1.0000
  Ge  Ge5       1.0  0.8058789372444151  0.06499654799699783  0.5565784573554994  1.0000
  Ge  Ge6       1.0  0.776236355304718  0.6556844711303711  0.21114788949489596  1.0000
  O   O1        1.0  0.30690646171569824  0.35019296407699585  0.3388667702674866  1.0000
  O   O2        1.0  0.306981027126312  0.19388769567012787  0.6930185556411744  1.0000
  Se  Se1       1.0  0.8087236881256101  0.04201752319931984  0.2750746607780457  1.0000
  Se  Se2       1.0  0.2804750204086301  0.27920156717300415  0.4807323515415193  1.0000
