data_image0
_chemical_formula_structural       AsCaIKS3ScSeTbU2Zn2
_chemical_formula_sum              "As1 Ca1 I1 K1 S3 Sc1 Se1 Tb1 U2 Zn2"
_cell_length_a       6.422812758158307
_cell_length_b       6.369634852131178
_cell_length_c       9.360614776611328
_cell_angle_alpha    90.08941885217138
_cell_angle_beta     89.88824640093854
_cell_angle_gamma    89.89110898515973

_space_group_name_H-M_alt    "P 1"
_space_group_IT_number       1

loop_
  _space_group_symop_operation_xyz
  'x, y, z'

loop_
  _atom_site_type_symbol
  _atom_site_label
  _atom_site_symmetry_multiplicity
  _atom_site_fract_x
  _atom_site_fract_y
  _atom_site_fract_z
  _atom_site_occupancy
  As  As1       1.0  0.640426754951477  0.470050573348999  0.24127864837646484  1.0000
  Ca  Ca1       1.0  0.14219287037849426  0.1298166662454605  0.5118573904037476  1.0000
  I   I1        1.0  0.8632245659828186  0.31299978494644165  0.9899945855140686  1.0000
  K   K1        1.0  0.5459831953048706  0.7505037188529968  0.8026701807975769  1.0000
  S   S1        1.0  0.11013884097337723  0.9318907856941223  0.4334701895713806  1.0000
  S   S2        1.0  0.13519856333732605  0.21800050139427185  0.38705408573150635  1.0000
  S   S3        1.0  0.9433025717735289  0.07214357703924179  0.1710139513015747  1.0000
  Sc  Sc1       1.0  0.5897911787033081  0.1388108879327774  0.066534623503685  1.0000
  Se  Se1       1.0  0.45425143837928766  0.3371100425720215  0.42662012577056885  1.0000
  Tb  Tb1       1.0  0.9115245342254638  0.4369101822376251  0.2746686041355133  1.0000
  U   U1        1.0  0.6633326411247253  0.16605088114738464  0.6830644011497498  1.0000
  U   U2        1.0  0.4574937522411346  0.9324910044670105  0.8719940781593323  1.0000
  Zn  Zn1       1.0  0.9463838338851928  0.3339012861251831  0.8963174223899841  1.0000
  Zn  Zn2       1.0  0.9527708888053893  0.2047620713710785  0.3090386688709259  1.0000
