data_image0
_chemical_formula_structural       CaCoDyI3PPbPt2S2SiZn
_chemical_formula_sum              "Ca1 Co1 Dy1 I3 P1 Pb1 Pt2 S2 Si1 Zn1"
_cell_length_a       5.999479825381458
_cell_length_b       6.467239612531224
_cell_length_c       9.471030235290527
_cell_angle_alpha    90.80660670443712
_cell_angle_beta     90.1756361896006
_cell_angle_gamma    110.99594615127286

_space_group_name_H-M_alt    "P 1"
_space_group_IT_number       1

loop_
  _space_group_symop_operation_xyz
  'x, y, z'

loop_
  _atom_site_type_symbol
  _atom_site_label
  _atom_site_symmetry_multiplicity
  _atom_site_fract_x
  _atom_site_fract_y
  _atom_site_fract_z
  _atom_site_occupancy
  Ca  Ca1       1.0  0.775309681892395  0.00239519658498466  0.8271293044090271  1.0000
  Co  Co1       1.0  0.269890159368515  0.47108811140060425  0.7983283996582031  1.0000
  Dy  Dy1       1.0  0.7847726345062256  0.09426305443048477  0.6517149806022644  1.0000
  I   I1        1.0  0.7737111449241638  0.8281846046447754  0.43983763456344604  1.0000
  I   I2        1.0  0.27697640657424927  0.868704080581665  0.8161279559135437  1.0000
  I   I3        1.0  0.2751479148864746  0.6661496758460999  0.5835909247398376  1.0000
  P   P1        1.0  0.28223127126693726  0.981196939945221  0.15342304110527036  1.0000
  Pb  Pb1       1.0  0.2739282548427582  0.5938157439231873  0.926620602607727  1.0000
  Pt  Pt1       1.0  0.7788535356521606  0.5224441885948181  0.6669602394104004  1.0000
  Pt  Pt2       1.0  0.7396948337554932  0.40582776069641113  0.27452272176742554  1.0000
  S   S1        1.0  0.28917306661605835  0.9923214316368103  0.26753416657447815  1.0000
  S   S2        1.0  0.2839369475841522  0.1611078679561615  0.021206900477409363  1.0000
  Si  Si1       1.0  0.7968470454216003  0.526842474937439  0.07346393913030624  1.0000
  Zn  Zn1       1.0  0.7786151766777039  0.009845198132097721  0.11088241636753082  1.0000
