data_image0
_chemical_formula_structural       CaGeIMoRbS7SeTb
_chemical_formula_sum              "Ca1 Ge1 I1 Mo1 Rb1 S7 Se1 Tb1"
_cell_length_a       6.059112789177374
_cell_length_b       7.080276228420566
_cell_length_c       8.740764617919922
_cell_angle_alpha    94.0152073206709
_cell_angle_beta     89.063731440806
_cell_angle_gamma    112.01215636052979

_space_group_name_H-M_alt    "P 1"
_space_group_IT_number       1

loop_
  _space_group_symop_operation_xyz
  'x, y, z'

loop_
  _atom_site_type_symbol
  _atom_site_label
  _atom_site_symmetry_multiplicity
  _atom_site_fract_x
  _atom_site_fract_y
  _atom_site_fract_z
  _atom_site_occupancy
  Ca  Ca1       1.0  0.7916503548622131  0.7375354170799255  0.7863172292709351  1.0000
  Ge  Ge1       1.0  0.792654812335968  0.29141074419021606  0.5451376438140869  1.0000
  I   I1        1.0  0.27759677171707153  0.4930155873298645  0.026586227118968964  1.0000
  Mo  Mo1       1.0  0.793456494808197  0.30941224098205566  0.8174299001693726  1.0000
  Rb  Rb1       1.0  0.278201162815094  0.4904647469520569  0.47009894251823425  1.0000
  S   S1        1.0  0.2764263451099396  0.5147674679756165  0.28705281019210815  1.0000
  S   S2        1.0  0.7907180786132812  0.4721715450286865  0.2667836546897888  1.0000
  S   S3        1.0  0.29994046688079834  0.6979536414146423  0.722908079624176  1.0000
  S   S4        1.0  0.2853340804576874  0.2104683518409729  0.7977511286735535  1.0000
  S   S5        1.0  0.7853913903236389  0.8202986121177673  0.8804652094841003  1.0000
  S   S6        1.0  0.30441024899482727  0.6590263843536377  0.16513592004776  1.0000
  S   S7        1.0  0.7779889106750488  0.003556653391569853  0.5833254456520081  1.0000
  Se  Se1       1.0  0.2702465355396271  0.4183949828147888  0.33072328567504883  1.0000
  Tb  Tb1       1.0  0.7843695878982544  0.29765331745147705  0.5554192066192627  1.0000
