data_image0
_chemical_formula_structural       BiCa4Cu2FPb2S3Tb
_chemical_formula_sum              "Bi1 Ca4 Cu2 F1 Pb2 S3 Tb1"
_cell_length_a       7.314372189762425
_cell_length_b       7.195830955068365
_cell_length_c       7.862035751342773
_cell_angle_alpha    65.4041752613504
_cell_angle_beta     66.84296181293065
_cell_angle_gamma    73.89664897146135

_space_group_name_H-M_alt    "P 1"
_space_group_IT_number       1

loop_
  _space_group_symop_operation_xyz
  'x, y, z'

loop_
  _atom_site_type_symbol
  _atom_site_label
  _atom_site_symmetry_multiplicity
  _atom_site_fract_x
  _atom_site_fract_y
  _atom_site_fract_z
  _atom_site_occupancy
  Bi  Bi1       1.0  0.370779275894165  0.9608998894691467  0.8541885614395143  1.0000
  Ca  Ca1       1.0  0.6414476037025452  0.7819325923919678  0.5685814619064331  1.0000
  Ca  Ca2       1.0  0.36078003048896784  0.06774822622537613  0.5069177746772766  1.0000
  Ca  Ca3       1.0  0.8556544184684752  0.26450619101524353  0.7144122123718263  1.0000
  Ca  Ca4       1.0  0.019372055307030678  0.8352677226066589  0.15377649664878848  1.0000
  Cu  Cu1       1.0  0.8825190663337706  0.13016417622566223  0.26320123672485357  1.0000
  Cu  Cu2       1.0  0.8789901137351989  0.03878625109791756  0.970964550971985  1.0000
  F   F1        1.0  0.36022925376892084  0.26734742522239685  0.9330932497978212  1.0000
  Pb  Pb1       1.0  0.3747635185718536  0.8554463386535645  0.32147246599197393  1.0000
  Pb  Pb2       1.0  0.8531776666641234  0.42806193232536316  0.02182647213339806  1.0000
  S   S1        1.0  0.8447649478912352  0.17508168518543243  0.5384176969528198  1.0000
  S   S2        1.0  0.19131238758563993  0.5752973556518555  0.9176491498947145  1.0000
  S   S3        1.0  0.1468103528022766  0.1575915366411209  0.6260303854942323  1.0000
  Tb  Tb1       1.0  0.36702105402946467  0.5925999283790588  0.416532576084137  1.0000
