data_image0
_chemical_formula_structural       Cu2Pb8S4
_chemical_formula_sum              "Cu2 Pb8 S4"
_cell_length_a       4.774407294565314
_cell_length_b       5.346095195835951
_cell_length_c       5.754885673522949
_cell_angle_alpha    80.232315854204
_cell_angle_beta     62.301533914072905
_cell_angle_gamma    66.12101003397777

_space_group_name_H-M_alt    "P 1"
_space_group_IT_number       1

loop_
  _space_group_symop_operation_xyz
  'x, y, z'

loop_
  _atom_site_type_symbol
  _atom_site_label
  _atom_site_symmetry_multiplicity
  _atom_site_fract_x
  _atom_site_fract_y
  _atom_site_fract_z
  _atom_site_occupancy
  Cu  Cu1       1.0  0.9250129461288452  0.8752850890159607  0.06164500862359993  1.0000
  Cu  Cu2       1.0  0.14630097150802612  0.7961140871047974  0.5990422964096069  1.0000
  Pb  Pb1       1.0  0.7969962954521179  0.6471558213233948  0.5285804867744446  1.0000
  Pb  Pb2       1.0  0.942199170589447  0.6039928197860718  0.6404284238815308  1.0000
  Pb  Pb3       1.0  0.6249755024909973  0.8227384090423584  0.9926143288612366  1.0000
  Pb  Pb4       1.0  0.1250201165676117  0.14008134603500366  0.5354102253913879  1.0000
  Pb  Pb5       1.0  0.13629141449928284  0.5666714310646057  0.15095992386341095  1.0000
  Pb  Pb6       1.0  0.15519529581069946  0.6462103724479675  0.10015913844108582  1.0000
  Pb  Pb7       1.0  0.6484047770500183  0.2195766419172287  0.49557480216026306  1.0000
  Pb  Pb8       1.0  0.49289265275001526  0.3612762689590454  0.8744316101074219  1.0000
  S   S1        1.0  0.5984801054000854  0.7587646245956421  0.536270797252655  1.0000
  S   S2        1.0  0.6099795699119568  0.16536115109920502  0.3387409448623657  1.0000
  S   S3        1.0  0.663720965385437  0.8819364309310913  0.04715835675597191  1.0000
  S   S4        1.0  0.10068240016698837  0.6892915964126587  0.07922618091106415  1.0000
