data_image0
_chemical_formula_structural       BiCa2CuPb6S4
_chemical_formula_sum              "Bi1 Ca2 Cu1 Pb6 S4"
_cell_length_a       4.344848997139012
_cell_length_b       5.683224126657609
_cell_length_c       12.925640106201172
_cell_angle_alpha    89.63449330464574
_cell_angle_beta     95.849182856139
_cell_angle_gamma    103.27309673416242

_space_group_name_H-M_alt    "P 1"
_space_group_IT_number       1

loop_
  _space_group_symop_operation_xyz
  'x, y, z'

loop_
  _atom_site_type_symbol
  _atom_site_label
  _atom_site_symmetry_multiplicity
  _atom_site_fract_x
  _atom_site_fract_y
  _atom_site_fract_z
  _atom_site_occupancy
  Bi  Bi1       1.0  0.9266915321350098  0.9010945558547973  0.8458939194679259  1.0000
  Ca  Ca1       1.0  0.4284401834011078  0.36102816462516785  0.3522533178329467  1.0000
  Ca  Ca2       1.0  0.9314808249473572  0.4500847160816192  0.03452524542808533  1.0000
  Cu  Cu1       1.0  0.9123645424842834  0.3824463486671448  0.43046543002128596  1.0000
  Pb  Pb1       1.0  0.4374490976333618  0.76008540391922  0.015413507819175718  1.0000
  Pb  Pb2       1.0  0.42750993371009827  0.7401605248451233  0.8337935805320739  1.0000
  Pb  Pb3       1.0  0.42707979679107666  0.42161390185356135  0.5549359917640686  1.0000
  Pb  Pb4       1.0  0.42668119072914124  0.01592317596077919  0.7558714747428893  1.0000
  Pb  Pb5       1.0  0.9228827357292175  0.47801715135574335  0.06880516558885574  1.0000
  Pb  Pb6       1.0  0.4549647569656372  0.4291378259658813  0.42020818591117853  1.0000
  S   S1        1.0  0.9163907170295715  0.8549006581306456  0.17220018804073334  1.0000
  S   S2        1.0  0.9616084098815918  0.2983887195587158  0.5878280997276306  1.0000
  S   S3        1.0  0.799521803855896  0.10624639689922331  0.2359993904829025  1.0000
  S   S4        1.0  0.42682409286499023  0.015166398137807844  0.8157899379730223  1.0000
