data_image0
_chemical_formula_structural       CsFeKZn7
_chemical_formula_sum              "Cs1 Fe1 K1 Zn7"
_cell_length_a       6.417496227764952
_cell_length_b       7.0560082954277075
_cell_length_c       6.8464131355285645
_cell_angle_alpha    107.71259036734693
_cell_angle_beta     109.12138934474183
_cell_angle_gamma    112.78891915191326

_space_group_name_H-M_alt    "P 1"
_space_group_IT_number       1

loop_
  _space_group_symop_operation_xyz
  'x, y, z'

loop_
  _atom_site_type_symbol
  _atom_site_label
  _atom_site_symmetry_multiplicity
  _atom_site_fract_x
  _atom_site_fract_y
  _atom_site_fract_z
  _atom_site_occupancy
  Cs  Cs1       1.0  0.474838674068451  0.1874300241470337  0.02180018089711666  1.0000
  Fe  Fe1       1.0  0.5095961689949036  0.4755714535713196  0.7419326305389404  1.0000
  K   K1        1.0  0.01985577680170536  0.9605615139007568  0.29231134057044983  1.0000
  Zn  Zn1       1.0  0.8358771204948426  0.2361355721950531  0.3941851258277893  1.0000
  Zn  Zn2       1.0  0.7547339200973512  0.01835351251065731  0.7124130725860596  1.0000
  Zn  Zn3       1.0  0.2319438606500626  0.20240485668182373  0.7271230220794678  1.0000
  Zn  Zn4       1.0  0.5307456254959106  0.6989219784736633  0.23524145781993866  1.0000
  Zn  Zn5       1.0  0.2589457035064697  0.7182666063308716  0.7987829446792603  1.0000
  Zn  Zn6       1.0  0.64738929271698  0.701879620552063  0.7973625063896179  1.0000
  Zn  Zn7       1.0  0.8890045881271363  0.9594114422798157  0.48110222816467285  1.0000
