data_image0
_chemical_formula_structural       CsGaZn8
_chemical_formula_sum              "Cs1 Ga1 Zn8"
_cell_length_a       6.388508376689503
_cell_length_b       6.367135889222705
_cell_length_c       6.861172199249268
_cell_angle_alpha    107.87380767801699
_cell_angle_beta     107.25503290963543
_cell_angle_gamma    114.54928391583194

_space_group_name_H-M_alt    "P 1"
_space_group_IT_number       1

loop_
  _space_group_symop_operation_xyz
  'x, y, z'

loop_
  _atom_site_type_symbol
  _atom_site_label
  _atom_site_symmetry_multiplicity
  _atom_site_fract_x
  _atom_site_fract_y
  _atom_site_fract_z
  _atom_site_occupancy
  Cs  Cs1       1.0  0.9859798550605774  0.43410277366638184  0.3378358483314514  1.0000
  Ga  Ga1       1.0  0.08561912178993225  0.695325493812561  0.7309247255325318  1.0000
  Zn  Zn1       1.0  0.9874705672264099  0.05033986270427704  0.3901410102844239  1.0000
  Zn  Zn2       1.0  0.4170198142528534  0.17371736466884613  0.6229666471481323  1.0000
  Zn  Zn3       1.0  0.4223954677581787  0.7035250663757324  0.5977434515953064  1.0000
  Zn  Zn4       1.0  0.2926623523235321  0.9179478883743286  0.8383597135543824  1.0000
  Zn  Zn5       1.0  0.6591216921806335  0.48827555775642395  0.015996597707271576  1.0000
  Zn  Zn6       1.0  0.656939685344696  0.002939395373687148  0.16528996825218206  1.0000
  Zn  Zn7       1.0  0.41501671075820923  0.7159998416900635  0.28050631284713745  1.0000
  Zn  Zn8       1.0  0.8908158540725708  0.9686923027038574  0.8532309532165528  1.0000
