data_image0
_chemical_formula_structural       As8KZn
_chemical_formula_sum              "As8 K1 Zn1"
_cell_length_a       6.201745901037659
_cell_length_b       6.8180897511420175
_cell_length_c       6.750363349914551
_cell_angle_alpha    106.19171609258063
_cell_angle_beta     103.6560625824799
_cell_angle_gamma    117.25784228926341

_space_group_name_H-M_alt    "P 1"
_space_group_IT_number       1

loop_
  _space_group_symop_operation_xyz
  'x, y, z'

loop_
  _atom_site_type_symbol
  _atom_site_label
  _atom_site_symmetry_multiplicity
  _atom_site_fract_x
  _atom_site_fract_y
  _atom_site_fract_z
  _atom_site_occupancy
  As  As1       1.0  0.5590617060661316  0.8780695796012878  0.0489251576364041  1.0000
  As  As2       1.0  0.34368062019348145  0.7363139390945435  0.17789833247661596  1.0000
  As  As3       1.0  0.16880962252616882  0.48569923639297485  0.2787625193595886  1.0000
  As  As4       1.0  0.5529379844665527  0.10936876386404037  0.8750221729278564  1.0000
  As  As5       1.0  0.196951225399971  0.00598339457064867  0.9873588085174559  1.0000
  As  As6       1.0  0.8930699825286865  0.31529438495635986  0.9937977790832518  1.0000
  As  As7       1.0  0.2419331669807434  0.3837183713912964  0.9669683575630188  1.0000
  As  As8       1.0  0.8040570616722107  0.5236728191375732  0.7189847230911255  1.0000
  K   K1        1.0  0.7534289360046387  0.7541037797927856  0.005445496179163456  1.0000
  Zn  Zn1       1.0  0.5513090491294861  0.6171963214874268  0.5478928685188293  1.0000
