data_image0
_chemical_formula_structural       Al2AsCs2KZn4
_chemical_formula_sum              "Al2 As1 Cs2 K1 Zn4"
_cell_length_a       6.261108196475518
_cell_length_b       6.7082095246981135
_cell_length_c       6.921562671661377
_cell_angle_alpha    108.73227527530307
_cell_angle_beta     109.1709573700763
_cell_angle_gamma    111.24138013890038

_space_group_name_H-M_alt    "P 1"
_space_group_IT_number       1

loop_
  _space_group_symop_operation_xyz
  'x, y, z'

loop_
  _atom_site_type_symbol
  _atom_site_label
  _atom_site_symmetry_multiplicity
  _atom_site_fract_x
  _atom_site_fract_y
  _atom_site_fract_z
  _atom_site_occupancy
  Al  Al1       1.0  0.24597215652465818  0.24320927262306213  0.5714224576950073  1.0000
  Al  Al2       1.0  0.22222791612148285  0.8123764991760254  0.10028081387281418  1.0000
  As  As1       1.0  0.5510322451591492  0.46468645334243774  0.6650155782699585  1.0000
  Cs  Cs1       1.0  0.8691341280937195  0.4640350639820099  0.3818626403808594  1.0000
  Cs  Cs2       1.0  0.3448055684566498  0.048707835376262665  0.3097572922706604  1.0000
  K   K1        1.0  0.49085924029350275  0.4834987223148346  0.10025353729724884  1.0000
  Zn  Zn1       1.0  0.7582715749740601  0.8162221908569336  0.3896304666996002  1.0000
  Zn  Zn2       1.0  0.972614824771881  0.9669566750526428  0.4662801921367645  1.0000
  Zn  Zn3       1.0  0.856602668762207  0.054490771144628525  0.6266964673995972  1.0000
  Zn  Zn4       1.0  0.0028811094816774316  0.5725076794624329  0.09901023656129834  1.0000
