data_image0
_chemical_formula_structural       As8K2
_chemical_formula_sum              "As8 K2"
_cell_length_a       4.795743407170363
_cell_length_b       8.045472756673202
_cell_length_c       8.073307991027832
_cell_angle_alpha    120.63932716786712
_cell_angle_beta     86.92649314655354
_cell_angle_gamma    95.25396942794914

_space_group_name_H-M_alt    "P 1"
_space_group_IT_number       1

loop_
  _space_group_symop_operation_xyz
  'x, y, z'

loop_
  _atom_site_type_symbol
  _atom_site_label
  _atom_site_symmetry_multiplicity
  _atom_site_fract_x
  _atom_site_fract_y
  _atom_site_fract_z
  _atom_site_occupancy
  As  As1       1.0  0.80425626039505  0.4859945774078369  0.18065668642520905  1.0000
  As  As2       1.0  0.7930901050567627  0.8923413157463074  0.8901448845863342  1.0000
  As  As3       1.0  0.311570405960083  0.9319462776184082  0.6709463000297546  1.0000
  As  As4       1.0  0.30206239223480225  0.4179680645465851  0.626547634601593  1.0000
  As  As5       1.0  0.7968009114265442  0.652267336845398  0.30157279968261724  1.0000
  As  As6       1.0  0.8131225109100342  0.13596361875534058  0.5445333123207092  1.0000
  As  As7       1.0  0.3085384666919708  0.6226334571838379  0.9997791647911072  1.0000
  As  As8       1.0  0.8129788041114807  0.3641822040081024  0.11838057637214663  1.0000
  K   K1        1.0  0.8174935579299927  0.6437714099884033  0.31439855694770813  1.0000
  K   K2        1.0  0.3059682250022888  0.952761709690094  0.9873862266540527  1.0000
