data_image0
_chemical_formula_structural       AlBaCs3Zn5
_chemical_formula_sum              "Al1 Ba1 Cs3 Zn5"
_cell_length_a       6.415578485602953
_cell_length_b       7.779574244050528
_cell_length_c       7.78125524520874
_cell_angle_alpha    111.62466635024126
_cell_angle_beta     103.8002867022449
_cell_angle_gamma    106.9236473142771

_space_group_name_H-M_alt    "P 1"
_space_group_IT_number       1

loop_
  _space_group_symop_operation_xyz
  'x, y, z'

loop_
  _atom_site_type_symbol
  _atom_site_label
  _atom_site_symmetry_multiplicity
  _atom_site_fract_x
  _atom_site_fract_y
  _atom_site_fract_z
  _atom_site_occupancy
  Al  Al1       1.0  0.06151744350790978  0.1521485596895218  0.4804582893848419  1.0000
  Ba  Ba1       1.0  0.008617687970399857  0.8096248507499695  0.2338609397411346  1.0000
  Cs  Cs1       1.0  0.008617404848337173  0.4088478684425354  0.5726298689842224  1.0000
  Cs  Cs2       1.0  0.6020625233650208  0.018828967586159706  0.5897565484046936  1.0000
  Cs  Cs3       1.0  0.3463931381702423  0.27049770951271057  0.2150370329618454  1.0000
  Zn  Zn1       1.0  0.6482671499252319  0.7662801742553711  0.055437199771404266  1.0000
  Zn  Zn2       1.0  0.5510092377662659  0.7683863043785095  0.44825258851051325  1.0000
  Zn  Zn3       1.0  0.021669110283255577  0.14330579340457916  0.5085013508796691  1.0000
  Zn  Zn4       1.0  0.36894255876541143  0.002334816148504615  0.9540948271751405  1.0000
  Zn  Zn5       1.0  0.629508376121521  0.5793453454971313  0.2881747782230377  1.0000
