data_image0
_chemical_formula_structural       AlBa3GeHSr4TbZr
_chemical_formula_sum              "Al1 Ba3 Ge1 H1 Sr4 Tb1 Zr1"
_cell_length_a       5.955972507015724
_cell_length_b       6.066607941863654
_cell_length_c       6.572573184967041
_cell_angle_alpha    17.31608744636605
_cell_angle_beta     64.36185049223022
_cell_angle_gamma    81.20554361244251

_space_group_name_H-M_alt    "P 1"
_space_group_IT_number       1

loop_
  _space_group_symop_operation_xyz
  'x, y, z'

loop_
  _atom_site_type_symbol
  _atom_site_label
  _atom_site_symmetry_multiplicity
  _atom_site_fract_x
  _atom_site_fract_y
  _atom_site_fract_z
  _atom_site_occupancy
  Al  Al1       1.0  0.592090368270874  0.22905477881431577  0.8441933989524841  1.0000
  Ba  Ba1       1.0  0.08145461976528172  0.2690422236919404  0.962374985218048  1.0000
  Ba  Ba2       1.0  0.5240246653556824  0.10596107691526414  0.8250576257705688  1.0000
  Ba  Ba3       1.0  0.5001413822174072  0.1893030256032944  0.7134194374084473  1.0000
  Ge  Ge1       1.0  0.5096877813339233  0.7340172529220581  0.5238054394721986  1.0000
  H   H1        1.0  0.5817453861236572  0.09517579525709151  0.07972669601440431  1.0000
  Sr  Sr1       1.0  0.999349057674408  0.1166239604353905  0.8170031309127808  1.0000
  Sr  Sr2       1.0  0.08128191530704498  0.09601123631000516  0.151921421289444  1.0000
  Sr  Sr3       1.0  0.08600832521915436  0.5235233902931213  0.27422940731048584  1.0000
  Sr  Sr4       1.0  0.5323022603988647  0.07265122234821318  0.3256263732910156  1.0000
  Tb  Tb1       1.0  0.5141760110855103  0.7841354608535767  0.24449703097343445  1.0000
  Zr  Zr1       1.0  0.27854022383689886  0.7431306838989259  0.22438840568065635  1.0000
