data_image0
_chemical_formula_structural       AlBa6HSr4
_chemical_formula_sum              "Al1 Ba6 H1 Sr4"
_cell_length_a       5.6279328094648555
_cell_length_b       5.516671334145519
_cell_length_c       11.106317520141602
_cell_angle_alpha    82.94815359668723
_cell_angle_beta     77.51972856120892
_cell_angle_gamma    61.781722621388454

_space_group_name_H-M_alt    "P 1"
_space_group_IT_number       1

loop_
  _space_group_symop_operation_xyz
  'x, y, z'

loop_
  _atom_site_type_symbol
  _atom_site_label
  _atom_site_symmetry_multiplicity
  _atom_site_fract_x
  _atom_site_fract_y
  _atom_site_fract_z
  _atom_site_occupancy
  Al  Al1       1.0  0.7334625124931335  0.23554754257202146  0.36862966418266296  1.0000
  Ba  Ba1       1.0  0.7282593846321106  0.102907694876194  0.06849958747625351  1.0000
  Ba  Ba2       1.0  0.7286054491996765  0.8315322995185852  0.7368788719177246  1.0000
  Ba  Ba3       1.0  0.730404794216156  0.6518882513046265  0.8175359964370728  1.0000
  Ba  Ba4       1.0  0.2300652712583542  0.688380241394043  0.15419243276119232  1.0000
  Ba  Ba5       1.0  0.22411644458770752  0.8064391613006592  0.33337894082069397  1.0000
  Ba  Ba6       1.0  0.23132234811782837  0.14708435535430908  0.6649913191795349  1.0000
  H   H1        1.0  0.251767635345459  0.3993813991546631  0.7235413789749146  1.0000
  Sr  Sr1       1.0  0.2328786998987198  0.2450080960988998  0.6983147859573365  1.0000
  Sr  Sr2       1.0  0.2257564663887024  0.8089762330055237  0.8139140009880066  1.0000
  Sr  Sr3       1.0  0.22477360069751745  0.483244776725769  0.5109135508537292  1.0000
  Sr  Sr4       1.0  0.7359436750411987  0.9413849115371703  0.3408786952495575  1.0000
