data_image0
_chemical_formula_structural       Ba6RhSr5
_chemical_formula_sum              "Ba6 Rh1 Sr5"
_cell_length_a       5.53665553688038
_cell_length_b       4.969751956247444
_cell_length_c       17.842363357543945
_cell_angle_alpha    101.62145424788072
_cell_angle_beta     90.9654133386523
_cell_angle_gamma    87.13361519710256

_space_group_name_H-M_alt    "P 1"
_space_group_IT_number       1

loop_
  _space_group_symop_operation_xyz
  'x, y, z'

loop_
  _atom_site_type_symbol
  _atom_site_label
  _atom_site_symmetry_multiplicity
  _atom_site_fract_x
  _atom_site_fract_y
  _atom_site_fract_z
  _atom_site_occupancy
  Ba  Ba1       1.0  0.9694826602935791  0.02733350731432438  0.9763374924659729  1.0000
  Ba  Ba2       1.0  0.4691450893878937  0.8151045441627502  0.9677413702011108  1.0000
  Ba  Ba3       1.0  0.9694024920463562  0.9730748534202575  0.8082651495933533  1.0000
  Ba  Ba4       1.0  0.9688517451286316  0.21701867878437042  0.5363785028457642  1.0000
  Ba  Ba5       1.0  0.4702678918838501  0.4894990921020507  0.6271957159042358  1.0000
  Ba  Ba6       1.0  0.9687979221343994  0.35371023416519165  0.20269447565078735  1.0000
  Rh  Rh1       1.0  0.46844783425331116  0.20740817487239838  0.5002129077911377  1.0000
  Sr  Sr1       1.0  0.47126153111457825  0.0915992483496666  0.3368368446826935  1.0000
  Sr  Sr2       1.0  0.9717898368835449  0.6426361799240112  0.9860637187957764  1.0000
  Sr  Sr3       1.0  0.4713825285434723  0.5025633573532104  0.2501220703125  1.0000
  Sr  Sr4       1.0  0.47124049067497253  0.47638601064682  0.40653130412101746  1.0000
  Sr  Sr5       1.0  0.9649542570114136  0.38182544708251953  0.17453689873218536  1.0000
