data_image0
_chemical_formula_structural       Ba7Sr5
_chemical_formula_sum              "Ba7 Sr5"
_cell_length_a       5.224553057414607
_cell_length_b       4.1149037770090935
_cell_length_c       17.629056930541992
_cell_angle_alpha    108.39667670745855
_cell_angle_beta     100.76077387706606
_cell_angle_gamma    86.64383036381045

_space_group_name_H-M_alt    "P 1"
_space_group_IT_number       1

loop_
  _space_group_symop_operation_xyz
  'x, y, z'

loop_
  _atom_site_type_symbol
  _atom_site_label
  _atom_site_symmetry_multiplicity
  _atom_site_fract_x
  _atom_site_fract_y
  _atom_site_fract_z
  _atom_site_occupancy
  Ba  Ba1       1.0  0.8404471278190613  0.9242222309112549  0.5603859424591064  1.0000
  Ba  Ba2       1.0  0.30826202034950256  0.8064349293708801  0.9975572824478149  1.0000
  Ba  Ba3       1.0  0.812382698059082  0.5017120242118835  0.39482608437538147  1.0000
  Ba  Ba4       1.0  0.3120424449443817  0.3611021339893341  0.9244887232780457  1.0000
  Ba  Ba5       1.0  0.3115864396095276  0.30182600021362305  0.6879655122756958  1.0000
  Ba  Ba6       1.0  0.06495164334774017  0.5832164883613586  0.8614744544029236  1.0000
  Ba  Ba7       1.0  0.5931825041770935  0.26083147525787354  0.064141646027565  1.0000
  Sr  Sr1       1.0  0.7974797487258911  0.7094686627388  0.32616671919822693  1.0000
  Sr  Sr2       1.0  0.31536686420440674  0.47580379247665405  0.32625123858451843  1.0000
  Sr  Sr3       1.0  0.7214007377624512  0.6700188517570496  0.98784339427948  1.0000
  Sr  Sr4       1.0  0.8141149878501892  0.36413002014160156  0.9485117793083191  1.0000
  Sr  Sr5       1.0  0.8151901364326477  0.36955973505973816  0.265752375125885  1.0000
