data_image0
_chemical_formula_structural       Ba8CsSr3
_chemical_formula_sum              "Ba8 Cs1 Sr3"
_cell_length_a       6.555519154246249
_cell_length_b       6.752639822093005
_cell_length_c       11.2207612991333
_cell_angle_alpha    77.01617225724414
_cell_angle_beta     76.0262587780008
_cell_angle_gamma    66.1794940263106

_space_group_name_H-M_alt    "P 1"
_space_group_IT_number       1

loop_
  _space_group_symop_operation_xyz
  'x, y, z'

loop_
  _atom_site_type_symbol
  _atom_site_label
  _atom_site_symmetry_multiplicity
  _atom_site_fract_x
  _atom_site_fract_y
  _atom_site_fract_z
  _atom_site_occupancy
  Ba  Ba1       1.0  0.375796377658844  0.22432139515876773  0.4342595338821411  1.0000
  Ba  Ba2       1.0  0.8777076601982117  0.2093787640333176  0.8827980160713196  1.0000
  Ba  Ba3       1.0  0.37522962689399714  0.8991667032241822  0.6433627009391785  1.0000
  Ba  Ba4       1.0  0.8770171403884888  0.7442657351493835  0.44429636001586914  1.0000
  Ba  Ba5       1.0  0.872845470905304  0.9147855043411256  0.4804192781448364  1.0000
  Ba  Ba6       1.0  0.3778218626976013  0.7841931581497193  0.4212070107460022  1.0000
  Ba  Ba7       1.0  0.37813034653663635  0.3302966058254242  0.5530111789703369  1.0000
  Ba  Ba8       1.0  0.8751453757286072  0.9350889921188356  0.5075322389602661  1.0000
  Cs  Cs1       1.0  0.8359503149986267  0.9160014986991883  0.7873242497444153  1.0000
  Sr  Sr1       1.0  0.3760681748390197  0.8892266154289247  0.7880472540855408  1.0000
  Sr  Sr2       1.0  0.38782376050949097  0.23671810328960421  0.14720982313156128  1.0000
  Sr  Sr3       1.0  0.0734976977109909  0.37006503343582153  0.1152014210820198  1.0000
