data_image0
_chemical_formula_structural       Ba6InSr3TbZr
_chemical_formula_sum              "Ba6 In1 Sr3 Tb1 Zr1"
_cell_length_a       7.860472683684042
_cell_length_b       8.033899338449833
_cell_length_c       8.317770004272461
_cell_angle_alpha    62.25569993172463
_cell_angle_beta     63.20998808216979
_cell_angle_gamma    59.399390413810586

_space_group_name_H-M_alt    "P 1"
_space_group_IT_number       1

loop_
  _space_group_symop_operation_xyz
  'x, y, z'

loop_
  _atom_site_type_symbol
  _atom_site_label
  _atom_site_symmetry_multiplicity
  _atom_site_fract_x
  _atom_site_fract_y
  _atom_site_fract_z
  _atom_site_occupancy
  Ba  Ba1       1.0  0.9852851033210754  0.15909676253795624  0.15266099572181702  1.0000
  Ba  Ba2       1.0  0.9519410133361816  0.013971930369734764  0.5809263586997986  1.0000
  Ba  Ba3       1.0  0.4697732925415039  0.7062528729438782  0.9057203531265259  1.0000
  Ba  Ba4       1.0  0.9762924909591675  0.5600346922874451  0.6765072345733643  1.0000
  Ba  Ba5       1.0  0.20837025344371796  0.9301528334617615  0.19988907873630524  1.0000
  Ba  Ba6       1.0  0.9687217473983765  0.7636306881904602  0.26575297117233276  1.0000
  In  In1       1.0  0.7116031646728516  0.9346837401390076  0.7729804515838623  1.0000
  Sr  Sr1       1.0  0.4302164614200592  0.4800684154033661  0.23935002088546753  1.0000
  Sr  Sr2       1.0  0.5811841487884521  0.23084299266338348  0.07504413276910782  1.0000
  Sr  Sr3       1.0  0.15007764101028442  0.46274128556251526  0.38584610819816584  1.0000
  Tb  Tb1       1.0  0.49498456716537476  0.15909351408481598  0.6590837836265564  1.0000
  Zr  Zr1       1.0  0.25068071484565735  0.8078345060348511  0.09459330886602402  1.0000
