data_image0
_chemical_formula_structural       FeIS2Sb4TbZn
_chemical_formula_sum              "Fe1 I1 S2 Sb4 Tb1 Zn1"
_cell_length_a       6.004901562703096
_cell_length_b       5.71755245302711
_cell_length_c       5.943122386932373
_cell_angle_alpha    126.40372777446275
_cell_angle_beta     115.63964258399304
_cell_angle_gamma    114.48662690345881

_space_group_name_H-M_alt    "P 1"
_space_group_IT_number       1

loop_
  _space_group_symop_operation_xyz
  'x, y, z'

loop_
  _atom_site_type_symbol
  _atom_site_label
  _atom_site_symmetry_multiplicity
  _atom_site_fract_x
  _atom_site_fract_y
  _atom_site_fract_z
  _atom_site_occupancy
  Fe  Fe1       1.0  0.786591112613678  0.7545604705810548  0.8815032243728638  1.0000
  I   I1        1.0  0.12191482633352275  0.4600079953670501  0.05341326072812077  1.0000
  S   S1        1.0  0.7914913892745972  0.0789231210947037  0.8193467259407043  1.0000
  S   S2        1.0  0.0633879899978639  0.15695588290691392  0.9252257347106935  1.0000
  Sb  Sb1       1.0  0.015935147181153218  0.9239892363548278  0.23493538796901692  1.0000
  Sb  Sb2       1.0  0.048995357006788254  0.7980591058731079  0.4661508500576019  1.0000
  Sb  Sb3       1.0  0.6120374798774719  0.6311590671539307  0.21739941835403437  1.0000
  Sb  Sb4       1.0  0.027178307995200157  0.6436011791229248  0.4295567870140075  1.0000
  Tb  Tb1       1.0  0.5253104567527771  0.6882725358009338  0.3774148225784302  1.0000
  Zn  Zn1       1.0  0.5145831108093263  0.04814545065164581  0.7453989386558534  1.0000
