data_image0
_chemical_formula_structural       FeGeIS2Sb5
_chemical_formula_sum              "Fe1 Ge1 I1 S2 Sb5"
_cell_length_a       5.347422003250966
_cell_length_b       6.676572027146446
_cell_length_c       7.5004563331604
_cell_angle_alpha    114.92234688440139
_cell_angle_beta     91.01127979575075
_cell_angle_gamma    97.54497825527451

_space_group_name_H-M_alt    "P 1"
_space_group_IT_number       1

loop_
  _space_group_symop_operation_xyz
  'x, y, z'

loop_
  _atom_site_type_symbol
  _atom_site_label
  _atom_site_symmetry_multiplicity
  _atom_site_fract_x
  _atom_site_fract_y
  _atom_site_fract_z
  _atom_site_occupancy
  Fe  Fe1       1.0  0.2853710949420929  0.18383890390396118  0.8011848926544188  1.0000
  Ge  Ge1       1.0  0.6334299445152283  0.005087736994028091  0.7489316463470459  1.0000
  I   I1        1.0  0.8139607906341553  0.8520323038101196  0.141536146402359  1.0000
  S   S1        1.0  0.13576851785182953  0.48868057131767273  0.5488317012786865  1.0000
  S   S2        1.0  0.2750184237957001  0.6065827012062073  0.9774101972579955  1.0000
  Sb  Sb1       1.0  0.28716498613357544  0.7094302177429199  0.6850696802139282  1.0000
  Sb  Sb2       1.0  0.10296093672513962  0.6712062954902649  0.031114138662815122  1.0000
  Sb  Sb3       1.0  0.6029296517372131  0.5697023272514343  0.02273827791213992  1.0000
  Sb  Sb4       1.0  0.7818182110786438  0.5788401365280151  0.5111863613128662  1.0000
  Sb  Sb5       1.0  0.6418499946594238  0.10016658157110214  0.4758638441562652  1.0000
