data_image0
_chemical_formula_structural       Fe2MoS7
_chemical_formula_sum              "Fe2 Mo1 S7"
_cell_length_a       4.4843267076468685
_cell_length_b       4.975628184636653
_cell_length_c       5.555846214294434
_cell_angle_alpha    114.6618835843932
_cell_angle_beta     107.01784709178067
_cell_angle_gamma    99.9639955272712

_space_group_name_H-M_alt    "P 1"
_space_group_IT_number       1

loop_
  _space_group_symop_operation_xyz
  'x, y, z'

loop_
  _atom_site_type_symbol
  _atom_site_label
  _atom_site_symmetry_multiplicity
  _atom_site_fract_x
  _atom_site_fract_y
  _atom_site_fract_z
  _atom_site_occupancy
  Fe  Fe1       1.0  0.5867810249328613  0.4583086371421814  0.9218783974647522  1.0000
  Fe  Fe2       1.0  0.09352521598339081  0.2784811556339264  0.85908442735672  1.0000
  Mo  Mo1       1.0  0.586175799369812  0.6825011372566223  0.4616076946258545  1.0000
  S   S1        1.0  0.1149965450167656  0.05450214818120003  0.48173069953918457  1.0000
  S   S2        1.0  0.5875199437141418  0.809059202671051  0.6277297735214233  1.0000
  S   S3        1.0  0.09582634270191193  0.9371700882911682  0.7333081364631653  1.0000
  S   S4        1.0  0.5807993412017822  0.03472084552049637  0.22740590572357178  1.0000
  S   S5        1.0  0.10594943910837173  0.04244982451200485  0.7784067392349243  1.0000
  S   S6        1.0  0.6021145582199097  0.4603225886821747  0.3498532176017762  1.0000
  S   S7        1.0  0.0868467390537262  0.6564470529556274  0.23211118578910828  1.0000
