data_image0
_chemical_formula_structural       Fe2HISSb5
_chemical_formula_sum              "Fe2 H1 I1 S1 Sb5"
_cell_length_a       6.791101353420783
_cell_length_b       6.987306217373556
_cell_length_c       8.914229393005371
_cell_angle_alpha    86.25402757395452
_cell_angle_beta     82.96429723110808
_cell_angle_gamma    66.73295014490742

_space_group_name_H-M_alt    "P 1"
_space_group_IT_number       1

loop_
  _space_group_symop_operation_xyz
  'x, y, z'

loop_
  _atom_site_type_symbol
  _atom_site_label
  _atom_site_symmetry_multiplicity
  _atom_site_fract_x
  _atom_site_fract_y
  _atom_site_fract_z
  _atom_site_occupancy
  Fe  Fe1       1.0  0.2140410840511322  0.6687391400337219  0.11176750063896179  1.0000
  Fe  Fe2       1.0  0.6370495557785034  0.9305985569953918  0.9982652068138123  1.0000
  H   H1        1.0  0.6094840168952942  0.267336368560791  0.8714690804481506  1.0000
  I   I1        1.0  0.6596246361732483  0.6814862489700317  0.9034343957901001  1.0000
  S   S1        1.0  0.32190462946891785  0.44220784306526184  0.09202885627746582  1.0000
  Sb  Sb1       1.0  0.2547893822193146  0.5045970678329468  0.7343159317970276  1.0000
  Sb  Sb2       1.0  0.7545121908187866  0.5148921012878418  0.5600481629371643  1.0000
  Sb  Sb3       1.0  0.6288971900939941  0.14480428397655487  0.9090936183929443  1.0000
  Sb  Sb4       1.0  0.10159726440906525  0.2972605526447296  0.3267354667186737  1.0000
  Sb  Sb5       1.0  0.6214988231658936  0.35848918557167053  0.9047569632530212  1.0000
