data_image0
_chemical_formula_structural       INiPSSb6
_chemical_formula_sum              "I1 Ni1 P1 S1 Sb6"
_cell_length_a       5.5680526496347325
_cell_length_b       5.301774289161283
_cell_length_c       5.766185760498047
_cell_angle_alpha    120.18142634017681
_cell_angle_beta     116.53444009961238
_cell_angle_gamma    109.99739921587536

_space_group_name_H-M_alt    "P 1"
_space_group_IT_number       1

loop_
  _space_group_symop_operation_xyz
  'x, y, z'

loop_
  _atom_site_type_symbol
  _atom_site_label
  _atom_site_symmetry_multiplicity
  _atom_site_fract_x
  _atom_site_fract_y
  _atom_site_fract_z
  _atom_site_occupancy
  I   I1        1.0  0.4241781532764434  0.12305291742086401  0.6426372528076171  1.0000
  Ni  Ni1       1.0  0.9671424031257629  0.9361811876296996  0.8963134288787842  1.0000
  P   P1        1.0  0.525406777858734  0.7696627974510192  0.42428842186927795  1.0000
  S   S1        1.0  0.158182293176651  0.8739023208618164  0.18992546200752256  1.0000
  Sb  Sb1       1.0  0.9734212160110474  0.04974349960684771  0.3513732552528381  1.0000
  Sb  Sb2       1.0  0.22231656312942497  0.07814206182956686  0.42993816733360285  1.0000
  Sb  Sb3       1.0  0.02139904536306858  0.3684103190898895  0.33725008368492126  1.0000
  Sb  Sb4       1.0  0.7164074778556824  0.3748593926429748  0.053470429033041014  1.0000
  Sb  Sb5       1.0  0.9532251954078674  0.6006897687911986  0.4482792913913727  1.0000
  Sb  Sb6       1.0  0.4560588896274566  0.029303884133696483  0.32800003886222834  1.0000
