data_image0
_chemical_formula_structural       Fe2PdS5Sb2
_chemical_formula_sum              "Fe2 Pd1 S5 Sb2"
_cell_length_a       5.501178104381751
_cell_length_b       5.09445515781229
_cell_length_c       5.716487884521484
_cell_angle_alpha    95.26669020670495
_cell_angle_beta     91.7393631257372
_cell_angle_gamma    94.43040143947172

_space_group_name_H-M_alt    "P 1"
_space_group_IT_number       1

loop_
  _space_group_symop_operation_xyz
  'x, y, z'

loop_
  _atom_site_type_symbol
  _atom_site_label
  _atom_site_symmetry_multiplicity
  _atom_site_fract_x
  _atom_site_fract_y
  _atom_site_fract_z
  _atom_site_occupancy
  Fe  Fe1       1.0  0.4133121967315674  0.30952921509742737  0.10706552118062972  1.0000
  Fe  Fe2       1.0  0.6716721057891846  0.3765932321548462  0.038179490715265274  1.0000
  Pd  Pd1       1.0  0.6751910448074341  0.7547981142997742  0.14721053838729858  1.0000
  S   S1        1.0  0.16768701374530792  0.14739909768104553  0.7489128112792969  1.0000
  S   S2        1.0  0.719716489315033  0.6179288625717163  0.9113288521766661  1.0000
  S   S3        1.0  0.11785915493965149  0.32132449746131897  0.34773004055023193  1.0000
  S   S4        1.0  0.17240691184997559  0.6673182249069214  0.43006843328475947  1.0000
  S   S5        1.0  0.4135989844799042  0.5528120398521423  0.2778630256652832  1.0000
  Sb  Sb1       1.0  0.6805768013000488  0.6807541251182556  0.6333675980567932  1.0000
  Sb  Sb2       1.0  0.17282634973526  0.01338205486536026  0.6368981003761292  1.0000
