data_image0
_chemical_formula_structural       Ni4Sm4
_chemical_formula_sum              "Ni4 Sm4"
_cell_length_a       4.754339030110536
_cell_length_b       5.3539255852863326
_cell_length_c       7.703837871551514
_cell_angle_alpha    109.5159609998981
_cell_angle_beta     105.87751098360138
_cell_angle_gamma    89.33948981746808

_space_group_name_H-M_alt    "P 1"
_space_group_IT_number       1

loop_
  _space_group_symop_operation_xyz
  'x, y, z'

loop_
  _atom_site_type_symbol
  _atom_site_label
  _atom_site_symmetry_multiplicity
  _atom_site_fract_x
  _atom_site_fract_y
  _atom_site_fract_z
  _atom_site_occupancy
  Ni  Ni1       1.0  0.32313594222068787  0.059984009712934494  0.44041246175765997  1.0000
  Ni  Ni2       1.0  0.9896736741065978  0.5810400247573853  0.21999169886112216  1.0000
  Ni  Ni3       1.0  0.7095024585723877  0.2830900549888611  0.9180220961570741  1.0000
  Ni  Ni4       1.0  0.8039549589157104  0.5142665505409241  0.4492907524108887  1.0000
  Sm  Sm1       1.0  0.640598714351654  0.73813796043396  0.6512890458106996  1.0000
  Sm  Sm2       1.0  0.12422990053892134  0.5784785151481628  0.5364418029785156  1.0000
  Sm  Sm3       1.0  0.6644275784492493  0.42085325717926025  0.1262253075838089  1.0000
  Sm  Sm4       1.0  0.027447083964943886  0.023023542016744614  0.9164425730705262  1.0000
