data_image0
_chemical_formula_structural       Ni3PSiSm3
_chemical_formula_sum              "Ni3 P1 Si1 Sm3"
_cell_length_a       4.334737907561721
_cell_length_b       4.822968893933105
_cell_length_c       7.993129730224609
_cell_angle_alpha    106.93115123309454
_cell_angle_beta     104.42168395628072
_cell_angle_gamma    87.40562482688686

_space_group_name_H-M_alt    "P 1"
_space_group_IT_number       1

loop_
  _space_group_symop_operation_xyz
  'x, y, z'

loop_
  _atom_site_type_symbol
  _atom_site_label
  _atom_site_symmetry_multiplicity
  _atom_site_fract_x
  _atom_site_fract_y
  _atom_site_fract_z
  _atom_site_occupancy
  Ni  Ni1       1.0  0.5796867609024048  0.5387653112411499  0.41520082950592047  1.0000
  Ni  Ni2       1.0  0.9362913966178894  0.24813227355480194  0.761107325553894  1.0000
  Ni  Ni3       1.0  0.962526798248291  0.7250246405601501  0.9062137007713319  1.0000
  P   P1        1.0  0.9506033062934875  0.7178238034248352  0.3416459262371063  1.0000
  Si  Si1       1.0  0.22583213448524475  0.2312944084405899  0.7570042014122009  1.0000
  Sm  Sm1       1.0  0.8464244604110718  0.19762469828128815  0.164535328745842  1.0000
  Sm  Sm2       1.0  0.44594907760620117  0.22918660938739777  0.2632717192173004  1.0000
  Sm  Sm3       1.0  0.3472110629081726  0.5292386412620544  0.6597623825073242  1.0000
