data_image0
_chemical_formula_structural       As2FOZn5
_chemical_formula_sum              "As2 F1 O1 Zn5"
_cell_length_a       4.892589298026969
_cell_length_b       5.229648264324033
_cell_length_c       7.392013072967529
_cell_angle_alpha    90.85365107105467
_cell_angle_beta     90.717910741277
_cell_angle_gamma    99.25120545487692

_space_group_name_H-M_alt    "P 1"
_space_group_IT_number       1

loop_
  _space_group_symop_operation_xyz
  'x, y, z'

loop_
  _atom_site_type_symbol
  _atom_site_label
  _atom_site_symmetry_multiplicity
  _atom_site_fract_x
  _atom_site_fract_y
  _atom_site_fract_z
  _atom_site_occupancy
  As  As1       1.0  0.7352767586708069  0.3639277517795563  0.13898904621601105  1.0000
  As  As2       1.0  0.22978146374225616  0.3670424222946167  0.1505577564239502  1.0000
  F   F1        1.0  0.22838829457759857  0.42488616704940796  0.6274414658546448  1.0000
  O   O1        1.0  0.2234729677438736  0.8527768850326538  0.6988624334335327  1.0000
  Zn  Zn1       1.0  0.7295888066291809  0.8962889909744263  0.19612564146518707  1.0000
  Zn  Zn2       1.0  0.22739887237548828  0.7533676624298096  0.0951361283659935  1.0000
  Zn  Zn3       1.0  0.7290536165237427  0.918563961982727  0.01852537877857685  1.0000
  Zn  Zn4       1.0  0.22981609404087067  0.133597269654274  0.8544544577598572  1.0000
  Zn  Zn5       1.0  0.7320019602775574  0.1260393261909485  0.8110317587852478  1.0000
