data_image0
_chemical_formula_structural       As2Zn4Zr3
_chemical_formula_sum              "As2 Zn4 Zr3"
_cell_length_a       1.5248149396838464
_cell_length_b       6.284660373648912
_cell_length_c       5.895559310913086
_cell_angle_alpha    128.41569318090805
_cell_angle_beta     112.90839527945965
_cell_angle_gamma    31.646573704779094

_space_group_name_H-M_alt    "P 1"
_space_group_IT_number       1

loop_
  _space_group_symop_operation_xyz
  'x, y, z'

loop_
  _atom_site_type_symbol
  _atom_site_label
  _atom_site_symmetry_multiplicity
  _atom_site_fract_x
  _atom_site_fract_y
  _atom_site_fract_z
  _atom_site_occupancy
  As  As1       1.0  0.2780545949935913  0.5694348216056824  0.5192178487777711  1.0000
  As  As2       1.0  0.28045108914375305  0.851157009601593  0.5161833167076112  1.0000
  Zn  Zn1       1.0  0.778558611869812  0.798171877861023  0.1956859976053238  1.0000
  Zn  Zn2       1.0  0.7772150635719299  0.10763604193925858  0.7711887359619141  1.0000
  Zn  Zn3       1.0  0.7782419323921204  0.41973522305488586  0.7729732990264893  1.0000
  Zn  Zn4       1.0  0.268518328666687  0.810407280921936  0.14855407178401955  1.0000
  Zr  Zr1       1.0  0.28339025378227234  0.7206933498382568  0.27547895908355713  1.0000
  Zr  Zr2       1.0  0.7802815437316895  0.8948383927345276  0.38411441445350647  1.0000
  Zr  Zr3       1.0  0.781877875328064  0.7604252099990845  0.719955325126648  1.0000
