data_image0
_chemical_formula_structural       Zn5Zr4
_chemical_formula_sum              "Zn5 Zr4"
_cell_length_a       4.356218863584871
_cell_length_b       4.281398439849195
_cell_length_c       7.359025478363037
_cell_angle_alpha    125.3175570244948
_cell_angle_beta     90.93257474504935
_cell_angle_gamma    84.89333707380446

_space_group_name_H-M_alt    "P 1"
_space_group_IT_number       1

loop_
  _space_group_symop_operation_xyz
  'x, y, z'

loop_
  _atom_site_type_symbol
  _atom_site_label
  _atom_site_symmetry_multiplicity
  _atom_site_fract_x
  _atom_site_fract_y
  _atom_site_fract_z
  _atom_site_occupancy
  Zn  Zn1       1.0  0.8356439471244812  0.13714975118637085  0.8106476068496702  1.0000
  Zn  Zn2       1.0  0.8339816927909851  0.049321100115776055  0.050179604440927505  1.0000
  Zn  Zn3       1.0  0.33448413014411926  0.013281648978590964  0.833064615726471  1.0000
  Zn  Zn4       1.0  0.3371356129646301  0.4699290990829467  0.764731228351593  1.0000
  Zn  Zn5       1.0  0.8381432890892029  0.5387958288192749  0.6156560778617859  1.0000
  Zr  Zr1       1.0  0.8376822471618652  0.4131892621517181  0.8584600687026978  1.0000
  Zr  Zr2       1.0  0.8377060890197754  0.22972279787063596  0.7277054190635681  1.0000
  Zr  Zr3       1.0  0.33743253350257874  0.8425291180610656  0.5558525323867798  1.0000
  Zr  Zr4       1.0  0.33766213059425354  0.20217195153236386  0.010894559323787674  1.0000
