data_image0
_chemical_formula_structural       AsFZn4Zr3
_chemical_formula_sum              "As1 F1 Zn4 Zr3"
_cell_length_a       4.35684314458925
_cell_length_b       5.580583749627874
_cell_length_c       8.033588409423828
_cell_angle_alpha    90.45121389857152
_cell_angle_beta     90.90996935139015
_cell_angle_gamma    103.29664876966027

_space_group_name_H-M_alt    "P 1"
_space_group_IT_number       1

loop_
  _space_group_symop_operation_xyz
  'x, y, z'

loop_
  _atom_site_type_symbol
  _atom_site_label
  _atom_site_symmetry_multiplicity
  _atom_site_fract_x
  _atom_site_fract_y
  _atom_site_fract_z
  _atom_site_occupancy
  As  As1       1.0  0.12245992571115494  0.6186158657073975  0.17430295050144196  1.0000
  F   F1        1.0  0.6269152760505676  0.6499850153923035  0.6956999897956848  1.0000
  Zn  Zn1       1.0  0.11927978694438934  0.594845712184906  0.7328773736953735  1.0000
  Zn  Zn2       1.0  0.6132251024246216  0.1978977769613266  0.820318877696991  1.0000
  Zn  Zn3       1.0  0.6131269335746765  0.197434663772583  0.545803427696228  1.0000
  Zn  Zn4       1.0  0.11555319279432297  0.8607844114303589  0.32551905512809753  1.0000
  Zr  Zr1       1.0  0.12021267414093018  0.6998531818389893  0.2856452167034149  1.0000
  Zr  Zr2       1.0  0.12088298052549362  0.6637001037597656  0.6268075108528137  1.0000
  Zr  Zr3       1.0  0.4190275967121124  0.05754079297184944  0.8606173992156984  1.0000
