data_image0
_chemical_formula_structural       As3FZn5
_chemical_formula_sum              "As3 F1 Zn5"
_cell_length_a       4.744619430486785
_cell_length_b       4.869703567888639
_cell_length_c       8.399260520935059
_cell_angle_alpha    90.61536851174459
_cell_angle_beta     89.7025033983641
_cell_angle_gamma    104.9571233803811

_space_group_name_H-M_alt    "P 1"
_space_group_IT_number       1

loop_
  _space_group_symop_operation_xyz
  'x, y, z'

loop_
  _atom_site_type_symbol
  _atom_site_label
  _atom_site_symmetry_multiplicity
  _atom_site_fract_x
  _atom_site_fract_y
  _atom_site_fract_z
  _atom_site_occupancy
  As  As1       1.0  0.9208016991615295  0.7908758521080017  0.18360756337642667  1.0000
  As  As2       1.0  0.9530142545700073  0.8352745175361633  0.1793050765991211  1.0000
  As  As3       1.0  0.9535769820213318  0.6054722666740417  0.38161587715148926  1.0000
  F   F1        1.0  0.42850184440612793  0.3885711133480072  0.8924638628959656  1.0000
  Zn  Zn1       1.0  0.1380307823419571  0.4074917137622833  0.7216182351112366  1.0000
  Zn  Zn2       1.0  0.4443604350090027  0.23002302646636963  0.8464670777320862  1.0000
  Zn  Zn3       1.0  0.12389484792947769  0.7599079608917236  0.13442406058311462  1.0000
  Zn  Zn4       1.0  0.4485054612159729  0.41079726815223694  0.9867191314697266  1.0000
  Zn  Zn5       1.0  0.4431886076927185  0.24438275396823883  0.47292467951774597  1.0000
