data_image0
_chemical_formula_structural       HO4Sb2ScSmSr
_chemical_formula_sum              "H1 O4 Sb2 Sc1 Sm1 Sr1"
_cell_length_a       5.510726569805205
_cell_length_b       6.4161143349932885
_cell_length_c       7.367697238922119
_cell_angle_alpha    91.6441008839896
_cell_angle_beta     92.69912838387239
_cell_angle_gamma    88.59914226957915

_space_group_name_H-M_alt    "P 1"
_space_group_IT_number       1

loop_
  _space_group_symop_operation_xyz
  'x, y, z'

loop_
  _atom_site_type_symbol
  _atom_site_label
  _atom_site_symmetry_multiplicity
  _atom_site_fract_x
  _atom_site_fract_y
  _atom_site_fract_z
  _atom_site_occupancy
  H   H1        1.0  0.25108882784843445  0.7436636686325073  0.9084632396697998  1.0000
  O   O1        1.0  0.8126710653305054  0.4794050455093384  0.6649316549301147  1.0000
  O   O2        1.0  0.8465937376022339  0.7881987690925598  0.012196885421872139  1.0000
  O   O3        1.0  0.48328927159309387  0.1173868179321289  0.7750425338745117  1.0000
  O   O4        1.0  0.44331279397010803  0.4876437783241272  0.7575281262397766  1.0000
  Sb  Sb1       1.0  0.7433377504348755  0.399743914604187  0.8522669672966003  1.0000
  Sb  Sb2       1.0  0.7395809888839722  0.9743449091911316  0.420854389667511  1.0000
  Sc  Sc1       1.0  0.7346153855323792  0.983809769153595  0.6067519783973694  1.0000
  Sm  Sm1       1.0  0.991574764251709  0.24741771817207336  0.2704286277294159  1.0000
  Sr  Sr1       1.0  0.23908984661102295  0.47947314381599426  0.29799002408981323  1.0000
