data_image0
_chemical_formula_structural       BrClO6SbSr
_chemical_formula_sum              "Br1 Cl1 O6 Sb1 Sr1"
_cell_length_a       6.697494930992961
_cell_length_b       6.573099086799995
_cell_length_c       6.403682708740234
_cell_angle_alpha    58.04912946641679
_cell_angle_beta     59.69616317822857
_cell_angle_gamma    57.125030766883775

_space_group_name_H-M_alt    "P 1"
_space_group_IT_number       1

loop_
  _space_group_symop_operation_xyz
  'x, y, z'

loop_
  _atom_site_type_symbol
  _atom_site_label
  _atom_site_symmetry_multiplicity
  _atom_site_fract_x
  _atom_site_fract_y
  _atom_site_fract_z
  _atom_site_occupancy
  Br  Br1       1.0  0.2826806306838989  0.9294060468673706  0.25614362955093384  1.0000
  Cl  Cl1       1.0  0.9469565153121948  0.4358435273170471  0.5400015711784363  1.0000
  O   O1        1.0  0.4171554744243622  0.949238121509552  0.9319972991943359  1.0000
  O   O2        1.0  0.9067491292953491  0.8417762517929077  0.9435759782791138  1.0000
  O   O3        1.0  0.973173975944519  0.1185310110449791  0.2825661301612854  1.0000
  O   O4        1.0  0.9482703804969788  0.8718079924583435  0.500921905040741  1.0000
  O   O5        1.0  0.18629634380340576  0.6239781975746155  0.5272554159164429  1.0000
  O   O6        1.0  0.7086724042892456  0.6131995916366577  0.01376360934227705  1.0000
  Sb  Sb1       1.0  0.5688235759735107  0.6353050470352173  0.7938997745513916  1.0000
  Sr  Sr1       1.0  0.43863645195961  0.36147841811180115  0.09342026710510254  1.0000
