data_image0
_chemical_formula_structural       HHf3MnO3PtSr
_chemical_formula_sum              "H1 Hf3 Mn1 O3 Pt1 Sr1"
_cell_length_a       5.911223430281271
_cell_length_b       5.907829711787231
_cell_length_c       6.360724925994873
_cell_angle_alpha    63.94577255948199
_cell_angle_beta     63.4860170074604
_cell_angle_gamma    61.86891257409175

_space_group_name_H-M_alt    "P 1"
_space_group_IT_number       1

loop_
  _space_group_symop_operation_xyz
  'x, y, z'

loop_
  _atom_site_type_symbol
  _atom_site_label
  _atom_site_symmetry_multiplicity
  _atom_site_fract_x
  _atom_site_fract_y
  _atom_site_fract_z
  _atom_site_occupancy
  H   H1        1.0  0.724181592464447  0.7216168642044067  0.1701682060956955  1.0000
  Hf  Hf1       1.0  0.6461791396141052  0.8815969228744507  0.0011554098455235273  1.0000
  Hf  Hf2       1.0  0.7736278176307678  0.5116501450538635  0.34794941544532776  1.0000
  Hf  Hf3       1.0  0.13671626150608063  0.2813393771648407  0.6288960576057434  1.0000
  Mn  Mn1       1.0  0.00847631972283125  0.8320210576057434  0.8546114563941954  1.0000
  O   O1        1.0  0.9877666234970093  0.6951097249984741  0.9985298514366149  1.0000
  O   O2        1.0  0.4213216006755829  0.3664626479148865  0.8594983220100402  1.0000
  O   O3        1.0  0.4233425259590149  0.36810895800590515  0.8690247535705565  1.0000
  Pt  Pt1       1.0  0.2816317677497864  0.05258405953645706  0.3527734875679016  1.0000
  Sr  Sr1       1.0  0.1437549889087677  0.847501814365387  0.3448062837123871  1.0000
