data_image0
_chemical_formula_structural       Hf2MoO3Sr4
_chemical_formula_sum              "Hf2 Mo1 O3 Sr4"
_cell_length_a       6.394003137745719
_cell_length_b       6.503075848196947
_cell_length_c       7.1356964111328125
_cell_angle_alpha    64.58331875970238
_cell_angle_beta     66.19202880581112
_cell_angle_gamma    64.48146742763063

_space_group_name_H-M_alt    "P 1"
_space_group_IT_number       1

loop_
  _space_group_symop_operation_xyz
  'x, y, z'

loop_
  _atom_site_type_symbol
  _atom_site_label
  _atom_site_symmetry_multiplicity
  _atom_site_fract_x
  _atom_site_fract_y
  _atom_site_fract_z
  _atom_site_occupancy
  Hf  Hf1       1.0  0.4509987831115723  0.6018807888031006  0.646712064743042  1.0000
  Hf  Hf2       1.0  0.7899275422096254  0.9020934700965882  0.7170984148979187  1.0000
  Mo  Mo1       1.0  0.275206595659256  0.5274307131767273  0.20960679650306702  1.0000
  O   O1        1.0  0.030580064281821234  0.439460963010788  0.9422752261161805  1.0000
  O   O2        1.0  0.49349033832550054  0.2617723345756531  0.6129444241523743  1.0000
  O   O3        1.0  0.061652779579162605  0.7040844559669495  0.20752955973148338  1.0000
  Sr  Sr1       1.0  0.04961102455854415  0.2415140122175217  0.9357447028160095  1.0000
  Sr  Sr2       1.0  0.7049487829208374  0.09432543069124223  0.15850454568862915  1.0000
  Sr  Sr3       1.0  0.9614040851593019  0.7082205414772034  0.6437479853630066  1.0000
  Sr  Sr4       1.0  0.36269906163215637  0.08726237714290619  0.42549270391464233  1.0000
