data_image0
_chemical_formula_structural       O3SSiSr4Te
_chemical_formula_sum              "O3 S1 Si1 Sr4 Te1"
_cell_length_a       6.355891803868652
_cell_length_b       6.850816012232943
_cell_length_c       6.774634838104248
_cell_angle_alpha    61.68560624566938
_cell_angle_beta     62.568174828376875
_cell_angle_gamma    62.111569885657126

_space_group_name_H-M_alt    "P 1"
_space_group_IT_number       1

loop_
  _space_group_symop_operation_xyz
  'x, y, z'

loop_
  _atom_site_type_symbol
  _atom_site_label
  _atom_site_symmetry_multiplicity
  _atom_site_fract_x
  _atom_site_fract_y
  _atom_site_fract_z
  _atom_site_occupancy
  O   O1        1.0  0.6028907299041748  0.6430333256721497  0.6415631175041199  1.0000
  O   O2        1.0  0.8279964923858644  0.139364555478096  0.16351750493049622  1.0000
  O   O3        1.0  0.9983597993850709  0.32334762811660767  0.49571377038955683  1.0000
  S   S1        1.0  0.18306881189346313  0.5422711372375488  0.38054031133651733  1.0000
  Si  Si1       1.0  0.5458680987358093  0.3678121864795685  0.8773075342178345  1.0000
  Sr  Sr1       1.0  0.4564854502677918  0.8566451072692871  0.3493383526802063  1.0000
  Sr  Sr2       1.0  0.9245840907096864  0.6624829173088074  0.36976027488708496  1.0000
  Sr  Sr3       1.0  0.41379752755165106  0.9816091656684875  0.2850833535194397  1.0000
  Sr  Sr4       1.0  0.5825737714767456  0.3902285099029541  0.9168670177459716  1.0000
  Te  Te1       1.0  0.960356116294861  0.19184817373752594  0.5040755271911621  1.0000
