data_image0
_chemical_formula_structural       HO6Sr3
_chemical_formula_sum              "H1 O6 Sr3"
_cell_length_a       6.585928068524213
_cell_length_b       6.58478065001054
_cell_length_c       6.836147785186768
_cell_angle_alpha    64.75473953647817
_cell_angle_beta     60.278939843192035
_cell_angle_gamma    61.457613211264686

_space_group_name_H-M_alt    "P 1"
_space_group_IT_number       1

loop_
  _space_group_symop_operation_xyz
  'x, y, z'

loop_
  _atom_site_type_symbol
  _atom_site_label
  _atom_site_symmetry_multiplicity
  _atom_site_fract_x
  _atom_site_fract_y
  _atom_site_fract_z
  _atom_site_occupancy
  H   H1        1.0  0.615394949913025  0.9914097189903258  0.11185183376073839  1.0000
  O   O1        1.0  0.941986083984375  0.18914970755577087  0.8360822200775148  1.0000
  O   O2        1.0  0.29798123240470886  0.027369154617190358  0.41952344775199896  1.0000
  O   O3        1.0  0.5487402677536011  0.13221409916877747  0.6215545535087585  1.0000
  O   O4        1.0  0.6611403822898865  0.3175225257873535  0.9930921196937562  1.0000
  O   O5        1.0  0.2532048225402832  0.10275756567716599  0.09817690402269365  1.0000
  O   O6        1.0  0.5604407787322998  0.8378969430923462  0.12917791306972504  1.0000
  Sr  Sr1       1.0  0.5750759243965149  0.760692834854126  0.6045815348625183  1.0000
  Sr  Sr2       1.0  0.041300784796476406  0.8977003693580626  0.985661268234253  1.0000
  Sr  Sr3       1.0  0.02436929941177368  0.6964868307113647  0.42440167069435125  1.0000
