data_image0
_chemical_formula_structural       Ba2O5P2
_chemical_formula_sum              "Ba2 O5 P2"
_cell_length_a       4.1318217818737315
_cell_length_b       5.888160576934717
_cell_length_c       6.724111557006836
_cell_angle_alpha    102.72063954832932
_cell_angle_beta     106.84977287992237
_cell_angle_gamma    88.87893795197753

_space_group_name_H-M_alt    "P 1"
_space_group_IT_number       1

loop_
  _space_group_symop_operation_xyz
  'x, y, z'

loop_
  _atom_site_type_symbol
  _atom_site_label
  _atom_site_symmetry_multiplicity
  _atom_site_fract_x
  _atom_site_fract_y
  _atom_site_fract_z
  _atom_site_occupancy
  Ba  Ba1       1.0  0.31696486473083496  0.6255255937576294  0.5748098492622375  1.0000
  Ba  Ba2       1.0  0.8324297666549683  0.24472856521606445  0.3144499659538269  1.0000
  O   O1        1.0  0.824258029460907  0.9102704524993896  0.08913610130548477  1.0000
  O   O2        1.0  0.3279000520706177  0.3593243956565857  0.562316358089447  1.0000
  O   O3        1.0  0.7305464148521423  0.8408530950546265  0.5810512900352478  1.0000
  O   O4        1.0  0.4677511751651764  0.577534019947052  0.7989555597305298  1.0000
  O   O5        1.0  0.17497971653938293  0.007438955828547478  0.448246568441391  1.0000
  P   P1        1.0  0.9094591736793518  0.4025021195411682  0.839931845664978  1.0000
  P   P2        1.0  0.41335391998291016  0.09663665294647217  0.9932505488395691  1.0000
