data_image0
_chemical_formula_structural       Ba3O4P2
_chemical_formula_sum              "Ba3 O4 P2"
_cell_length_a       4.5397888706535765
_cell_length_b       5.9384685611988735
_cell_length_c       7.426850318908691
_cell_angle_alpha    97.6308917902907
_cell_angle_beta     103.9780172619927
_cell_angle_gamma    89.32108392697563

_space_group_name_H-M_alt    "P 1"
_space_group_IT_number       1

loop_
  _space_group_symop_operation_xyz
  'x, y, z'

loop_
  _atom_site_type_symbol
  _atom_site_label
  _atom_site_symmetry_multiplicity
  _atom_site_fract_x
  _atom_site_fract_y
  _atom_site_fract_z
  _atom_site_occupancy
  Ba  Ba1       1.0  0.2144889235496521  0.3152710795402527  0.408913254737854  1.0000
  Ba  Ba2       1.0  0.03784601762890816  0.6707340478897095  0.8987427353858948  1.0000
  Ba  Ba3       1.0  0.6269626021385193  0.00502013647928834  0.5863599181175232  1.0000
  O   O1        1.0  0.036804940551519394  0.9798220992088318  0.411564439535141  1.0000
  O   O2        1.0  0.6574385166168213  0.10371896624565125  0.09980686753988266  1.0000
  O   O3        1.0  0.37017184495925903  0.6785175204277039  0.44663137197494507  1.0000
  O   O4        1.0  0.8394173979759216  0.6643813848495483  0.4636744260787964  1.0000
  P   P1        1.0  0.10825107246637344  0.9659276008605957  0.027153676375746727  1.0000
  P   P2        1.0  0.6957120895385742  0.6827134490013123  0.4014449119567871  1.0000
