data_image0
_chemical_formula_structural       Ba4O2P3
_chemical_formula_sum              "Ba4 O2 P3"
_cell_length_a       4.964108369747531
_cell_length_b       6.737276160969324
_cell_length_c       7.201470851898193
_cell_angle_alpha    100.90756071726857
_cell_angle_beta     90.5302389183946
_cell_angle_gamma    87.85378218644786

_space_group_name_H-M_alt    "P 1"
_space_group_IT_number       1

loop_
  _space_group_symop_operation_xyz
  'x, y, z'

loop_
  _atom_site_type_symbol
  _atom_site_label
  _atom_site_symmetry_multiplicity
  _atom_site_fract_x
  _atom_site_fract_y
  _atom_site_fract_z
  _atom_site_occupancy
  Ba  Ba1       1.0  0.23261158168315885  0.19611668586730957  0.6588589549064636  1.0000
  Ba  Ba2       1.0  0.7807449102401733  0.6535956263542175  0.19444511830806735  1.0000
  Ba  Ba3       1.0  0.7740356922149658  0.11704451590776443  0.6934558749198914  1.0000
  Ba  Ba4       1.0  0.2257505804300308  0.8711086511611938  0.0358188562095165  1.0000
  O   O1        1.0  0.42850127816200256  0.5586948990821838  0.41457524895668035  1.0000
  O   O2        1.0  0.495137333869934  0.15119944512844086  0.19175644218921664  1.0000
  P   P1        1.0  0.2642953097820282  0.7911589741706848  0.7031856179237367  1.0000
  P   P2        1.0  0.21673132479190826  0.2704405188560486  0.0434860847890377  1.0000
  P   P3        1.0  0.7435691952705383  0.30463749170303345  0.958153784275055  1.0000
