data_image0
_chemical_formula_structural       Ba4O2P3
_chemical_formula_sum              "Ba4 O2 P3"
_cell_length_a       5.539548460520488
_cell_length_b       5.973644363366931
_cell_length_c       7.372346878051758
_cell_angle_alpha    92.81724399831546
_cell_angle_beta     83.93558680911134
_cell_angle_gamma    89.94786078257441

_space_group_name_H-M_alt    "P 1"
_space_group_IT_number       1

loop_
  _space_group_symop_operation_xyz
  'x, y, z'

loop_
  _atom_site_type_symbol
  _atom_site_label
  _atom_site_symmetry_multiplicity
  _atom_site_fract_x
  _atom_site_fract_y
  _atom_site_fract_z
  _atom_site_occupancy
  Ba  Ba1       1.0  0.28408461809158325  0.8800631761550903  0.2277858555316925  1.0000
  Ba  Ba2       1.0  0.7395545840263367  0.29959818720817566  0.7046692371368408  1.0000
  Ba  Ba3       1.0  0.9908163547515869  0.5581053495407104  0.5674322247505188  1.0000
  Ba  Ba4       1.0  0.27868688106536865  0.32969433069229126  0.4799153208732605  1.0000
  O   O1        1.0  0.49689003825187683  0.6115291118621826  0.4763296842575073  1.0000
  O   O2        1.0  0.7937689423561096  0.35673850774765015  0.22082656621932983  1.0000
  P   P1        1.0  0.7204908132553101  0.030050577595829964  0.9589501023292542  1.0000
  P   P2        1.0  0.6810164451599121  0.5353692173957825  0.948172390460968  1.0000
  P   P3        1.0  0.7539376020431519  0.8858274221420288  0.21479171514511108  1.0000
