data_image0
_chemical_formula_structural       GePb7Zr
_chemical_formula_sum              "Ge1 Pb7 Zr1"
_cell_length_a       6.014375452758443
_cell_length_b       6.38242189878338
_cell_length_c       7.584552764892578
_cell_angle_alpha    89.64326282286385
_cell_angle_beta     90.3834817929646
_cell_angle_gamma    90.66473680539949

_space_group_name_H-M_alt    "P 1"
_space_group_IT_number       1

loop_
  _space_group_symop_operation_xyz
  'x, y, z'

loop_
  _atom_site_type_symbol
  _atom_site_label
  _atom_site_symmetry_multiplicity
  _atom_site_fract_x
  _atom_site_fract_y
  _atom_site_fract_z
  _atom_site_occupancy
  Ge  Ge1       1.0  0.480693519115448  0.6690572500228882  0.8699639439582825  1.0000
  Pb  Pb1       1.0  0.4863416850566864  0.37717142701148987  0.7230980396270753  1.0000
  Pb  Pb2       1.0  0.9848082065582275  0.7926102876663208  0.965051829814911  1.0000
  Pb  Pb3       1.0  0.9669491648674011  0.11042315512895584  0.2843008041381836  1.0000
  Pb  Pb4       1.0  0.9914329648017883  0.9885873198509216  0.012701024301350118  1.0000
  Pb  Pb5       1.0  0.4914339780807495  0.46948665380477905  0.42987793684005743  1.0000
  Pb  Pb6       1.0  0.4937022626399994  0.3859449625015259  0.952773153781891  1.0000
  Pb  Pb7       1.0  0.9796416759490967  0.5651818513870239  0.8333007097244264  1.0000
  Zr  Zr1       1.0  0.9883607029914856  0.8446865081787109  0.494157761335373  1.0000
