data_image0
_chemical_formula_structural       CuLaPb5Zr2
_chemical_formula_sum              "Cu1 La1 Pb5 Zr2"
_cell_length_a       6.692352486438734
_cell_length_b       7.185126997510875
_cell_length_c       7.879631042480469
_cell_angle_alpha    121.06789515389964
_cell_angle_beta     90.21672246633801
_cell_angle_gamma    90.41385784550363

_space_group_name_H-M_alt    "P 1"
_space_group_IT_number       1

loop_
  _space_group_symop_operation_xyz
  'x, y, z'

loop_
  _atom_site_type_symbol
  _atom_site_label
  _atom_site_symmetry_multiplicity
  _atom_site_fract_x
  _atom_site_fract_y
  _atom_site_fract_z
  _atom_site_occupancy
  Cu  Cu1       1.0  0.09706741571426392  0.921349287033081  0.7143324613571167  1.0000
  La  La1       1.0  0.09649711847305298  0.32247260212898254  0.07523167133331302  1.0000
  Pb  Pb1       1.0  0.5978482961654663  0.8079119324684143  0.646826446056366  1.0000
  Pb  Pb2       1.0  0.09723377972841263  0.5837928056716919  0.1211615726351738  1.0000
  Pb  Pb3       1.0  0.5973406434059143  0.5345498919487  0.7000957131385803  1.0000
  Pb  Pb4       1.0  0.09781061112880707  0.625641405582428  0.7000939846038818  1.0000
  Pb  Pb5       1.0  0.5977098941802979  0.8014549016952515  0.788968563079834  1.0000
  Zr  Zr1       1.0  0.5979312062263489  0.9729524850845337  0.1515849530696869  1.0000
  Zr  Zr2       1.0  0.09800741821527481  0.8027253150939941  0.24092651903629303  1.0000
