data_image0
_chemical_formula_structural       Pb9
_chemical_formula_sum              "Pb9"
_cell_length_a       5.225277498351672
_cell_length_b       5.441583027989151
_cell_length_c       13.521864891052246
_cell_angle_alpha    89.82203555638765
_cell_angle_beta     91.27782887799394
_cell_angle_gamma    102.54612921869891

_space_group_name_H-M_alt    "P 1"
_space_group_IT_number       1

loop_
  _space_group_symop_operation_xyz
  'x, y, z'

loop_
  _atom_site_type_symbol
  _atom_site_label
  _atom_site_symmetry_multiplicity
  _atom_site_fract_x
  _atom_site_fract_y
  _atom_site_fract_z
  _atom_site_occupancy
  Pb  Pb1       1.0  0.5634382963180542  0.5500996708869934  0.8193968534469606  1.0000
  Pb  Pb2       1.0  0.5672258138656616  0.9500426650047301  0.939422369003296  1.0000
  Pb  Pb3       1.0  0.06668510288000107  0.7966408133506775  0.7252228856086732  1.0000
  Pb  Pb4       1.0  0.5678126215934753  0.6091935038566589  0.43733623623847967  1.0000
  Pb  Pb5       1.0  0.06686846166849136  0.5092941522598267  0.7720597982406617  1.0000
  Pb  Pb6       1.0  0.5690889358520508  0.8133968710899353  0.05992070585489274  1.0000
  Pb  Pb7       1.0  0.5686269402503967  0.7605662941932678  0.8591593503952027  1.0000
  Pb  Pb8       1.0  0.06727290898561478  0.29258331656455994  0.4080954492092133  1.0000
  Pb  Pb9       1.0  0.06848577409982681  0.0029904774855822325  0.05012702941894532  1.0000
