data_image0
_chemical_formula_structural       CsPb6Zr2
_chemical_formula_sum              "Cs1 Pb6 Zr2"
_cell_length_a       6.0415733401477585
_cell_length_b       5.958112176595597
_cell_length_c       11.237129211425781
_cell_angle_alpha    91.77050925060891
_cell_angle_beta     89.72815066101984
_cell_angle_gamma    92.9091285788066

_space_group_name_H-M_alt    "P 1"
_space_group_IT_number       1

loop_
  _space_group_symop_operation_xyz
  'x, y, z'

loop_
  _atom_site_type_symbol
  _atom_site_label
  _atom_site_symmetry_multiplicity
  _atom_site_fract_x
  _atom_site_fract_y
  _atom_site_fract_z
  _atom_site_occupancy
  Cs  Cs1       1.0  0.5854085683822632  0.6260347962379456  0.20889602601528168  1.0000
  Pb  Pb1       1.0  0.08385732024908066  0.8452107310295105  0.731464147567749  1.0000
  Pb  Pb2       1.0  0.11464637517929077  0.9958516359329224  0.11680052429437637  1.0000
  Pb  Pb3       1.0  0.08726827800273895  0.37556254863739014  0.17498114705085754  1.0000
  Pb  Pb4       1.0  0.08004139363765717  0.7342835664749146  0.817771852016449  1.0000
  Pb  Pb5       1.0  0.08238188177347183  0.28973832726478577  0.6324183940887451  1.0000
  Pb  Pb6       1.0  0.5792484283447266  0.3295418620109558  0.7976301312446594  1.0000
  Zr  Zr1       1.0  0.5889504551887512  0.5756150484085083  0.13982291519641876  1.0000
  Zr  Zr2       1.0  0.5953290462493896  0.5469186902046204  0.03193696588277817  1.0000
