data_image0
_chemical_formula_structural       Ge3O5PtSe
_chemical_formula_sum              "Ge3 O5 Pt1 Se1"
_cell_length_a       4.542135224662646
_cell_length_b       6.253686642135962
_cell_length_c       6.450352191925049
_cell_angle_alpha    101.7602093390951
_cell_angle_beta     94.55947330833747
_cell_angle_gamma    90.6075154689626

_space_group_name_H-M_alt    "P 1"
_space_group_IT_number       1

loop_
  _space_group_symop_operation_xyz
  'x, y, z'

loop_
  _atom_site_type_symbol
  _atom_site_label
  _atom_site_symmetry_multiplicity
  _atom_site_fract_x
  _atom_site_fract_y
  _atom_site_fract_z
  _atom_site_occupancy
  Ge  Ge1       1.0  0.17005200684070587  0.40594953298568726  0.7971194982528687  1.0000
  Ge  Ge2       1.0  0.012198912911117077  0.7516822218894958  0.27484720945358276  1.0000
  Ge  Ge3       1.0  0.6565365791320801  0.9180893898010254  0.662689745426178  1.0000
  O   O1        1.0  0.7535434365272522  0.8781832456588745  0.9589178562164307  1.0000
  O   O2        1.0  0.7517436742782593  0.42027172446250916  0.9630798697471619  1.0000
  O   O3        1.0  0.18446677923202515  0.9182348251342773  0.8703711628913879  1.0000
  O   O4        1.0  0.28492745757102966  0.9198950529098511  0.33791670203208923  1.0000
  O   O5        1.0  0.7639325261116028  0.4279765188694  0.21239407360553741  1.0000
  Pt  Pt1       1.0  0.5892789959907532  0.18334665894508362  0.0956035777926445  1.0000
  Se  Se1       1.0  0.39321616291999817  0.9290209412574768  0.324624240398407  1.0000
