data_image0
_chemical_formula_structural       Ge3LaO3Se3
_chemical_formula_sum              "Ge3 La1 O3 Se3"
_cell_length_a       4.691367134016665
_cell_length_b       6.208445467444204
_cell_length_c       6.063653469085693
_cell_angle_alpha    112.20089172880249
_cell_angle_beta     89.65152554190377
_cell_angle_gamma    91.12075146271204

_space_group_name_H-M_alt    "P 1"
_space_group_IT_number       1

loop_
  _space_group_symop_operation_xyz
  'x, y, z'

loop_
  _atom_site_type_symbol
  _atom_site_label
  _atom_site_symmetry_multiplicity
  _atom_site_fract_x
  _atom_site_fract_y
  _atom_site_fract_z
  _atom_site_occupancy
  Ge  Ge1       1.0  0.7516884803771973  0.03403189405798912  0.7765734791755676  1.0000
  Ge  Ge2       1.0  0.7528390884399414  0.40467202663421636  0.51544588804245  1.0000
  Ge  Ge3       1.0  0.23743048310279846  0.6312386989593506  0.0027841038536280944  1.0000
  La  La1       1.0  0.2772652804851532  0.016484146937727928  0.9606508016586305  1.0000
  O   O1        1.0  0.2501033544540405  0.4349770843982697  0.32954120635986334  1.0000
  O   O2        1.0  0.6301136612892151  0.6746635437011719  0.7305027842521667  1.0000
  O   O3        1.0  0.0452972948551178  0.42805913090705877  0.856357216835022  1.0000
  Se  Se1       1.0  0.7553510665893555  0.03428056836128235  0.31927719712257385  1.0000
  Se  Se2       1.0  0.2528795003890991  0.42773896455764776  0.23193795979022985  1.0000
  Se  Se3       1.0  0.7501776218414307  0.6593285799026489  0.7385863661766052  1.0000
