data_image0
_chemical_formula_structural       Ge3O5Se2
_chemical_formula_sum              "Ge3 O5 Se2"
_cell_length_a       5.152551347222837
_cell_length_b       6.108103187518073
_cell_length_c       6.3589301109313965
_cell_angle_alpha    116.31350717090784
_cell_angle_beta     105.4443179561671
_cell_angle_gamma    92.24528969405199

_space_group_name_H-M_alt    "P 1"
_space_group_IT_number       1

loop_
  _space_group_symop_operation_xyz
  'x, y, z'

loop_
  _atom_site_type_symbol
  _atom_site_label
  _atom_site_symmetry_multiplicity
  _atom_site_fract_x
  _atom_site_fract_y
  _atom_site_fract_z
  _atom_site_occupancy
  Ge  Ge1       1.0  0.22471684217453003  0.6569745540618896  0.09656625241041189  1.0000
  Ge  Ge2       1.0  0.704703152179718  0.337573766708374  0.5140638947486877  1.0000
  Ge  Ge3       1.0  0.9468554258346558  0.8709540963172913  0.15071144700050368  1.0000
  O   O1        1.0  0.2893873155117035  0.26139146089553833  0.4901371300220489  1.0000
  O   O2        1.0  0.31673872470855713  0.0737718790769577  0.21371775865554807  1.0000
  O   O3        1.0  0.8217852711677551  0.3271865248680115  0.36197072267532343  1.0000
  O   O4        1.0  0.9778044819831848  0.6635349988937378  0.7653168439865111  1.0000
  O   O5        1.0  0.7952837944030762  0.8295944929122925  0.5795040130615234  1.0000
  Se  Se1       1.0  0.38364773988723755  0.33921492099761963  0.3833273351192474  1.0000
  Se  Se2       1.0  0.06515726447105408  0.6571928262710571  0.4674368798732757  1.0000
