data_image0
_chemical_formula_structural       Ge4O2OsSe3
_chemical_formula_sum              "Ge4 O2 Os1 Se3"
_cell_length_a       5.271403597035422
_cell_length_b       5.668250098976517
_cell_length_c       5.698312759399414
_cell_angle_alpha    90.84573037690197
_cell_angle_beta     90.19586808412456
_cell_angle_gamma    91.52504031080174

_space_group_name_H-M_alt    "P 1"
_space_group_IT_number       1

loop_
  _space_group_symop_operation_xyz
  'x, y, z'

loop_
  _atom_site_type_symbol
  _atom_site_label
  _atom_site_symmetry_multiplicity
  _atom_site_fract_x
  _atom_site_fract_y
  _atom_site_fract_z
  _atom_site_occupancy
  Ge  Ge1       1.0  0.795361340045929  0.2711755037307739  0.3391933739185333  1.0000
  Ge  Ge2       1.0  0.1681998372077942  0.31922587752342224  0.9528343677520752  1.0000
  Ge  Ge3       1.0  0.4772347807884216  0.06101898103952408  0.6330021023750305  1.0000
  Ge  Ge4       1.0  0.7924848794937134  0.8199790716171265  0.33181628584861755  1.0000
  O   O1        1.0  0.2191876024007797  0.253563791513443  0.1493651270866394  1.0000
  O   O2        1.0  0.7324691414833069  0.2416752576828003  0.9353715777397156  1.0000
  Os  Os1       1.0  0.9910550117492675  0.5634009838104248  0.8334830403327942  1.0000
  Se  Se1       1.0  0.4969194829463958  0.560913622379303  0.859566330909729  1.0000
  Se  Se2       1.0  0.0164067130535841  0.8400194644927979  0.43463826179504395  1.0000
  Se  Se3       1.0  0.48809933662414545  0.5590949058532715  0.30513373017311096  1.0000
