data_image0
_chemical_formula_structural       Ge3O4ScSe2
_chemical_formula_sum              "Ge3 O4 Sc1 Se2"
_cell_length_a       5.064521521308867
_cell_length_b       5.698228381723597
_cell_length_c       6.167985916137695
_cell_angle_alpha    109.6947760379363
_cell_angle_beta     100.53701540075697
_cell_angle_gamma    96.26050588411852

_space_group_name_H-M_alt    "P 1"
_space_group_IT_number       1

loop_
  _space_group_symop_operation_xyz
  'x, y, z'

loop_
  _atom_site_type_symbol
  _atom_site_label
  _atom_site_symmetry_multiplicity
  _atom_site_fract_x
  _atom_site_fract_y
  _atom_site_fract_z
  _atom_site_occupancy
  Ge  Ge1       1.0  0.6516406536102295  0.09817960113286972  0.1502695232629776  1.0000
  Ge  Ge2       1.0  0.6394875645637512  0.9549897313117981  0.2640593945980072  1.0000
  Ge  Ge3       1.0  0.14558444917201996  0.2724345028400421  0.7459733486175537  1.0000
  O   O1        1.0  0.2651253342628479  0.8739340305328369  0.25481370091438293  1.0000
  O   O2        1.0  0.4497927129268646  0.8629535436630249  0.4234825372695923  1.0000
  O   O3        1.0  0.24923580884933472  0.47197937965393066  0.5987943410873413  1.0000
  O   O4        1.0  0.7667155265808105  0.6159505844116211  0.6544283628463745  1.0000
  Sc  Sc1       1.0  0.14283934235572815  0.4135385751724243  0.9362744688987732  1.0000
  Se  Se1       1.0  0.7200971245765686  0.1509496569633484  0.5667973756790161  1.0000
  Se  Se2       1.0  0.12449687719345093  0.09621487557888031  0.4113895893096924  1.0000
