data_image0
_chemical_formula_structural       Ge3O4Se3
_chemical_formula_sum              "Ge3 O4 Se3"
_cell_length_a       4.514422485732797
_cell_length_b       5.668822861373673
_cell_length_c       5.687027931213379
_cell_angle_alpha    92.00421692140668
_cell_angle_beta     90.962256522996
_cell_angle_gamma    88.28046184804853

_space_group_name_H-M_alt    "P 1"
_space_group_IT_number       1

loop_
  _space_group_symop_operation_xyz
  'x, y, z'

loop_
  _atom_site_type_symbol
  _atom_site_label
  _atom_site_symmetry_multiplicity
  _atom_site_fract_x
  _atom_site_fract_y
  _atom_site_fract_z
  _atom_site_occupancy
  Ge  Ge1       1.0  0.12772274017333984  0.7757261991500854  0.06128152087330818  1.0000
  Ge  Ge2       1.0  0.11623343825340271  0.3386872112751007  0.05253409594297409  1.0000
  Ge  Ge3       1.0  0.12946629524230957  0.722510814666748  0.8262044787406921  1.0000
  O   O1        1.0  0.05200529471039772  0.8908451199531555  0.6665274500846863  1.0000
  O   O2        1.0  0.10488761961460114  0.5278661251068115  0.4585201144218445  1.0000
  O   O3        1.0  0.6325845122337341  0.7618659138679504  0.6171900629997253  1.0000
  O   O4        1.0  0.618122398853302  0.36387211084365845  0.21138949692249298  1.0000
  Se  Se1       1.0  0.6331911087036133  0.05552554875612259  0.32510948181152344  1.0000
  Se  Se2       1.0  0.10924950242042542  0.47565844655036926  0.3659438490867615  1.0000
  Se  Se3       1.0  0.631179690361023  0.9616878628730774  0.3301575779914856  1.0000
