data_image0
_chemical_formula_structural       F2GaLi7LuSrTlZr
_chemical_formula_sum              "F2 Ga1 Li7 Lu1 Sr1 Tl1 Zr1"
_cell_length_a       6.065579240449725
_cell_length_b       7.194779862361611
_cell_length_c       7.232554912567139
_cell_angle_alpha    78.18824177990074
_cell_angle_beta     70.29254386386229
_cell_angle_gamma    64.32323126263087

_space_group_name_H-M_alt    "P 1"
_space_group_IT_number       1

loop_
  _space_group_symop_operation_xyz
  'x, y, z'

loop_
  _atom_site_type_symbol
  _atom_site_label
  _atom_site_symmetry_multiplicity
  _atom_site_fract_x
  _atom_site_fract_y
  _atom_site_fract_z
  _atom_site_occupancy
  F   F1        1.0  0.06982055306434631  0.5390952825546265  0.7433490753173828  1.0000
  F   F2        1.0  0.062381815165281296  0.7436285018920898  0.019971031695604324  1.0000
  Ga  Ga1       1.0  0.9957809448242188  0.7345750331878662  0.9704958796501161  1.0000
  Li  Li1       1.0  0.35594820976257324  0.8001922369003296  0.985439419746399  1.0000
  Li  Li2       1.0  0.03156823292374611  0.3196975290775299  0.7808709144592285  1.0000
  Li  Li3       1.0  0.49295100569725037  0.009736323729157448  0.042784012854099274  1.0000
  Li  Li4       1.0  0.18221811950206757  0.26245883107185364  0.25154682993888855  1.0000
  Li  Li5       1.0  0.7125099897384644  0.754574716091156  0.37356242537498474  1.0000
  Li  Li6       1.0  0.38251540064811707  0.5382822751998901  0.6038161516189575  1.0000
  Li  Li7       1.0  0.7562816143035889  0.015054560266435146  0.9034429192543032  1.0000
  Lu  Lu1       1.0  0.7501698136329651  0.105424664914608  0.945091247558594  1.0000
  Sr  Sr1       1.0  0.01874646358191967  0.9177764654159546  0.7072470188140869  1.0000
  Tl  Tl1       1.0  0.03983953967690468  0.17013193666934967  0.7095794677734375  1.0000
  Zr  Zr1       1.0  0.815669596195221  0.4075345993041992  0.5515462160110474  1.0000
