data_image0
_chemical_formula_structural       AlF2I2Li8Sr
_chemical_formula_sum              "Al1 F2 I2 Li8 Sr1"
_cell_length_a       6.436448286735344
_cell_length_b       6.6817272329702355
_cell_length_c       6.80385684967041
_cell_angle_alpha    89.65800891666754
_cell_angle_beta     88.07389614625156
_cell_angle_gamma    90.46000731263136

_space_group_name_H-M_alt    "P 1"
_space_group_IT_number       1

loop_
  _space_group_symop_operation_xyz
  'x, y, z'

loop_
  _atom_site_type_symbol
  _atom_site_label
  _atom_site_symmetry_multiplicity
  _atom_site_fract_x
  _atom_site_fract_y
  _atom_site_fract_z
  _atom_site_occupancy
  Al  Al1       1.0  0.6740873456001282  0.0719359964132309  0.44894504547119135  1.0000
  F   F1        1.0  0.9484356641769409  0.8792278766632079  0.941941201686859  1.0000
  F   F2        1.0  0.671765923500061  0.9490649104118346  0.6919100880622864  1.0000
  I   I1        1.0  0.6673247814178467  0.13737183809280396  0.36905980110168457  1.0000
  I   I2        1.0  0.16633997857570648  0.9682528972625731  0.5611998438835144  1.0000
  Li  Li1       1.0  0.671003520488739  0.9831020236015319  0.9812296032905578  1.0000
  Li  Li2       1.0  0.18382552266120908  0.3729208409786224  0.5156508088111877  1.0000
  Li  Li3       1.0  0.4559642970561981  0.34325486421585083  0.8186531662940979  1.0000
  Li  Li4       1.0  0.9821775555610657  0.2518555223941803  0.9476309418678283  1.0000
  Li  Li5       1.0  0.9593101739883423  0.6423332095146179  0.9412506818771361  1.0000
  Li  Li6       1.0  0.6744632124900818  0.08769053965806961  0.7676940560340881  1.0000
  Li  Li7       1.0  0.1685277223587036  0.4642148613929748  0.5889559388160706  1.0000
  Li  Li8       1.0  0.20507749915122986  0.2521666884422302  0.025624068453907967  1.0000
  Sr  Sr1       1.0  0.16950680315494537  0.9154309630393981  0.2863597869873047  1.0000
