data_image0
_chemical_formula_structural       AlF2Li7Sr4
_chemical_formula_sum              "Al1 F2 Li7 Sr4"
_cell_length_a       5.964296964521799
_cell_length_b       5.9445602937523185
_cell_length_c       6.826031684875488
_cell_angle_alpha    73.72460910846686
_cell_angle_beta     69.33760321213856
_cell_angle_gamma    69.73312431722458

_space_group_name_H-M_alt    "P 1"
_space_group_IT_number       1

loop_
  _space_group_symop_operation_xyz
  'x, y, z'

loop_
  _atom_site_type_symbol
  _atom_site_label
  _atom_site_symmetry_multiplicity
  _atom_site_fract_x
  _atom_site_fract_y
  _atom_site_fract_z
  _atom_site_occupancy
  Al  Al1       1.0  0.8936102986335754  0.9009396433830261  0.1968009620904923  1.0000
  F   F1        1.0  0.8805812001228333  0.7430874109268188  0.10726197063922882  1.0000
  F   F2        1.0  0.8782162070274353  0.36129337549209595  0.24704349040985107  1.0000
  Li  Li1       1.0  0.29219815135002136  0.6123902201652527  0.1013541892170906  1.0000
  Li  Li2       1.0  0.5702707767486572  0.9691464900970459  0.28481370210647583  1.0000
  Li  Li3       1.0  0.3289251923561096  0.5140497088432312  0.106993667781353  1.0000
  Li  Li4       1.0  0.2739648222923279  0.6875166893005371  0.01862017624080181  1.0000
  Li  Li5       1.0  0.5766549110412598  0.17945672571659088  0.9677974581718445  1.0000
  Li  Li6       1.0  0.5771114826202393  0.3616812527179718  0.8561880588531494  1.0000
  Li  Li7       1.0  0.8460824489593506  0.41248735785484314  0.5481007695198059  1.0000
  Sr  Sr1       1.0  0.8945550918579102  0.816179096698761  0.5304598808288574  1.0000
  Sr  Sr2       1.0  0.40414509177207947  0.5542857050895691  0.9948902726173401  1.0000
  Sr  Sr3       1.0  0.4201871454715729  0.9587802886962891  0.4632059931755066  1.0000
  Sr  Sr4       1.0  0.9010586142539978  0.9161986112594604  0.5130860209465028  1.0000
