data_image0
_chemical_formula_structural       F2Li6PPdSnSrZr2
_chemical_formula_sum              "F2 Li6 P1 Pd1 Sn1 Sr1 Zr2"
_cell_length_a       6.18951059507561
_cell_length_b       5.91574415200052
_cell_length_c       6.392032146453857
_cell_angle_alpha    64.64776109437278
_cell_angle_beta     64.02712569734895
_cell_angle_gamma    63.52919066973125

_space_group_name_H-M_alt    "P 1"
_space_group_IT_number       1

loop_
  _space_group_symop_operation_xyz
  'x, y, z'

loop_
  _atom_site_type_symbol
  _atom_site_label
  _atom_site_symmetry_multiplicity
  _atom_site_fract_x
  _atom_site_fract_y
  _atom_site_fract_z
  _atom_site_occupancy
  F   F1        1.0  0.11958336085081096  0.8818784952163697  0.02795293554663658  1.0000
  F   F2        1.0  0.11111684888601303  0.19546498358249664  0.4167124629020691  1.0000
  Li  Li1       1.0  0.873481273651123  0.8939443826675416  0.08627138286828995  1.0000
  Li  Li2       1.0  0.6248752474784851  0.4243831932544709  0.4530633985996245  1.0000
  Li  Li3       1.0  0.6143049597740173  0.837730646133423  0.7675774693489075  1.0000
  Li  Li4       1.0  0.9416368007659911  0.055710639804601676  0.45375639200210566  1.0000
  Li  Li5       1.0  0.3442062735557556  0.13184496760368347  0.35508960485458374  1.0000
  Li  Li6       1.0  0.8556600213050842  0.6399334073066711  0.11486513167619697  1.0000
  P   P1        1.0  0.4090869128704071  0.8323587775230409  0.17262358963489532  1.0000
  Pd  Pd1       1.0  0.16400986909866333  0.3573809564113617  0.5357754230499268  1.0000
  Sn  Sn1       1.0  0.1586984246969223  0.35182520747184753  0.8067333698272705  1.0000
  Sr  Sr1       1.0  0.38814401626586914  0.7707212567329407  0.8213881850242615  1.0000
  Zr  Zr1       1.0  0.9446253180503845  0.8881623744964601  0.44826555252075195  1.0000
  Zr  Zr2       1.0  0.6509952545166016  0.2800931930541992  0.4272842705249785  1.0000
