data_image0
_chemical_formula_structural       AlF2Li7Sr4
_chemical_formula_sum              "Al1 F2 Li7 Sr4"
_cell_length_a       5.414862639481503
_cell_length_b       5.371264313071689
_cell_length_c       6.055858135223389
_cell_angle_alpha    64.9316949111318
_cell_angle_beta     64.1104875045697
_cell_angle_gamma    59.7485313960461

_space_group_name_H-M_alt    "P 1"
_space_group_IT_number       1

loop_
  _space_group_symop_operation_xyz
  'x, y, z'

loop_
  _atom_site_type_symbol
  _atom_site_label
  _atom_site_symmetry_multiplicity
  _atom_site_fract_x
  _atom_site_fract_y
  _atom_site_fract_z
  _atom_site_occupancy
  Al  Al1       1.0  0.4533802568912506  0.9019509553909302  0.6673026084899902  1.0000
  F   F1        1.0  0.7248216867446899  0.2327720671892166  0.2404338717460632  1.0000
  F   F2        1.0  0.0952749028801918  0.04834356531500816  0.43894234299659723  1.0000
  Li  Li1       1.0  0.2372421771287918  0.635132908821106  0.9170342087745665  1.0000
  Li  Li2       1.0  0.47500932216644287  0.5508337616920471  0.8840568661689757  1.0000
  Li  Li3       1.0  0.1755000352859497  0.9002615213394165  0.441008448600769  1.0000
  Li  Li4       1.0  0.7154428362846375  0.2579420804977417  0.3661316633224487  1.0000
  Li  Li5       1.0  0.22043968737125397  0.9408862590789795  0.9341917037963866  1.0000
  Li  Li6       1.0  0.7424259185791016  0.8723037838935852  0.41598486900329584  1.0000
  Li  Li7       1.0  0.8383996486663818  0.36383605003356934  0.5166147351264954  1.0000
  Sr  Sr1       1.0  0.38584837317466736  0.8719485998153687  0.48566958308219904  1.0000
  Sr  Sr2       1.0  0.7700199484825134  0.8782416582107544  0.6458150148391724  1.0000
  Sr  Sr3       1.0  0.8053225874900818  0.42539340257644653  0.19065092504024503  1.0000
  Sr  Sr4       1.0  0.37736690044403076  0.03756962716579437  0.9911898374557494  1.0000
