data_image0
_chemical_formula_structural       AlF2Li6Sr3Zr2
_chemical_formula_sum              "Al1 F2 Li6 Sr3 Zr2"
_cell_length_a       6.3804898771388805
_cell_length_b       6.206530758743083
_cell_length_c       6.631529331207275
_cell_angle_alpha    57.92806536973198
_cell_angle_beta     62.80141080284897
_cell_angle_gamma    60.44329651448595

_space_group_name_H-M_alt    "P 1"
_space_group_IT_number       1

loop_
  _space_group_symop_operation_xyz
  'x, y, z'

loop_
  _atom_site_type_symbol
  _atom_site_label
  _atom_site_symmetry_multiplicity
  _atom_site_fract_x
  _atom_site_fract_y
  _atom_site_fract_z
  _atom_site_occupancy
  Al  Al1       1.0  0.22546406090259552  0.15195909142494202  0.9293932318687438  1.0000
  F   F1        1.0  0.26496782898902893  0.12321160733699799  0.6360865831375122  1.0000
  F   F2        1.0  0.8266550302505493  0.3472736179828644  0.903313636779785  1.0000
  Li  Li1       1.0  0.7563381195068359  0.36020827293395996  0.34907990694046026  1.0000
  Li  Li2       1.0  0.20985399186611176  0.5808953046798706  0.6226987242698669  1.0000
  Li  Li3       1.0  0.7734451293945312  0.7754716873168945  0.12800653278827667  1.0000
  Li  Li4       1.0  0.13264600932598114  0.5776323676109314  0.1525028795003891  1.0000
  Li  Li5       1.0  0.5499479174613953  0.13370847702026367  0.5894849300384521  1.0000
  Li  Li6       1.0  0.03702003136277199  0.2540889084339142  0.5364453792572021  1.0000
  Sr  Sr1       1.0  0.5306257009506226  0.5114427804946899  0.09535276889801031  1.0000
  Sr  Sr2       1.0  0.2698912024497986  0.9220534563064575  0.17708605527877808  1.0000
  Sr  Sr3       1.0  0.768983781337738  0.2836477756500244  0.5587144494056702  1.0000
  Zr  Zr1       1.0  0.009770005010068417  0.09266505390405655  0.5111183524131775  1.0000
  Zr  Zr2       1.0  0.7645909190177917  0.06550315767526627  0.25654575228691107  1.0000
