data_image0
_chemical_formula_structural       Ge4LiMoNbTlY
_chemical_formula_sum              "Ge4 Li1 Mo1 Nb1 Tl1 Y1"
_cell_length_a       5.83659054149525
_cell_length_b       5.823628576723415
_cell_length_c       5.801040172576904
_cell_angle_alpha    92.1757470086368
_cell_angle_beta     92.18623448223111
_cell_angle_gamma    91.60614006611851

_space_group_name_H-M_alt    "P 1"
_space_group_IT_number       1

loop_
  _space_group_symop_operation_xyz
  'x, y, z'

loop_
  _atom_site_type_symbol
  _atom_site_label
  _atom_site_symmetry_multiplicity
  _atom_site_fract_x
  _atom_site_fract_y
  _atom_site_fract_z
  _atom_site_occupancy
  Ge  Ge1       1.0  0.49274879693984985  0.996887743473053  0.8110507726669312  1.0000
  Ge  Ge2       1.0  0.6976398229598999  0.6551976799964905  0.2157784104347229  1.0000
  Ge  Ge3       1.0  0.19080600142478943  0.2861166000366211  0.21571113169193268  1.0000
  Ge  Ge4       1.0  0.9837275147438049  0.5032365322113037  0.7556679844856262  1.0000
  Li  Li1       1.0  0.23077985644340515  0.7198993563652039  0.07812105864286423  1.0000
  Mo  Mo1       1.0  0.7574602961540222  0.24750858545303345  0.07822977751493454  1.0000
  Nb  Nb1       1.0  0.4856916666030884  0.9976892471313477  0.34286102652549744  1.0000
  Tl  Tl1       1.0  0.9831092953681946  0.9928959012031555  0.622065007686615  1.0000
  Y   Y1        1.0  0.47955521941185  0.4937118589878082  0.621294379234314  1.0000
