data_image0
_chemical_formula_structural       Ge3Nb4Tl2
_chemical_formula_sum              "Ge3 Nb4 Tl2"
_cell_length_a       4.161684927831169
_cell_length_b       6.173392324769283
_cell_length_c       8.002073287963867
_cell_angle_alpha    111.80849020956771
_cell_angle_beta     104.9905408071281
_cell_angle_gamma    90.28263990796802

_space_group_name_H-M_alt    "P 1"
_space_group_IT_number       1

loop_
  _space_group_symop_operation_xyz
  'x, y, z'

loop_
  _atom_site_type_symbol
  _atom_site_label
  _atom_site_symmetry_multiplicity
  _atom_site_fract_x
  _atom_site_fract_y
  _atom_site_fract_z
  _atom_site_occupancy
  Ge  Ge1       1.0  0.43649017810821533  0.28069981932640076  0.09287317842245102  1.0000
  Ge  Ge2       1.0  0.20305107533931732  0.7983831763267517  0.6354370713233948  1.0000
  Ge  Ge3       1.0  0.8714593648910522  0.4634583294391632  0.9732826352119446  1.0000
  Nb  Nb1       1.0  0.041803132742643356  0.40887245535850525  0.3149183690547943  1.0000
  Nb  Nb2       1.0  0.8165284991264343  0.04511977732181549  0.8600059747695923  1.0000
  Nb  Nb3       1.0  0.6941755414009094  0.5249086618423462  0.6226040124893188  1.0000
  Nb  Nb4       1.0  0.24068693816661835  0.2652122676372528  0.7181475162506104  1.0000
  Tl  Tl1       1.0  0.5898971557617188  0.9288697242736816  0.38759249448776245  1.0000
  Tl  Tl2       1.0  0.3710337281227112  0.7817752361297607  0.9883854389190674  1.0000
