data_image0
_chemical_formula_structural       Ge2Nb3ThTl3
_chemical_formula_sum              "Ge2 Nb3 Th1 Tl3"
_cell_length_a       6.3108835686396025
_cell_length_b       6.301182518940095
_cell_length_c       6.878867149353027
_cell_angle_alpha    103.52468965221216
_cell_angle_beta     104.98253467605204
_cell_angle_gamma    117.46028231696982

_space_group_name_H-M_alt    "P 1"
_space_group_IT_number       1

loop_
  _space_group_symop_operation_xyz
  'x, y, z'

loop_
  _atom_site_type_symbol
  _atom_site_label
  _atom_site_symmetry_multiplicity
  _atom_site_fract_x
  _atom_site_fract_y
  _atom_site_fract_z
  _atom_site_occupancy
  Ge  Ge1       1.0  0.5135201811790466  0.277848482131958  0.5347961783409119  1.0000
  Ge  Ge2       1.0  0.20347298681735992  0.590323805809021  0.9522072672843933  1.0000
  Nb  Nb1       1.0  0.8062042593955994  0.21447531878948212  0.8404395580291748  1.0000
  Nb  Nb2       1.0  0.5518044233322144  0.9094897508621216  0.34475183486938477  1.0000
  Nb  Nb3       1.0  0.5158202052116394  0.6923991441726685  0.7612935304641724  1.0000
  Th  Th1       1.0  0.47385725378990173  0.3162532448768616  0.09342485666275024  1.0000
  Tl  Tl1       1.0  0.9334419965744019  0.848054051399231  0.13232515752315518  1.0000
  Tl  Tl2       1.0  0.08855871111154556  0.4156207740306854  0.33823415637016296  1.0000
  Tl  Tl3       1.0  0.022652344778180122  0.8449710607528687  0.6282108426094055  1.0000
