data_image0
_chemical_formula_structural       Ge4Nb2PTlZr
_chemical_formula_sum              "Ge4 Nb2 P1 Tl1 Zr1"
_cell_length_a       5.81084369580165
_cell_length_b       5.785117106717509
_cell_length_c       5.693000316619873
_cell_angle_alpha    97.84158633955494
_cell_angle_beta     97.88656842558328
_cell_angle_gamma    96.66413684458482

_space_group_name_H-M_alt    "P 1"
_space_group_IT_number       1

loop_
  _space_group_symop_operation_xyz
  'x, y, z'

loop_
  _atom_site_type_symbol
  _atom_site_label
  _atom_site_symmetry_multiplicity
  _atom_site_fract_x
  _atom_site_fract_y
  _atom_site_fract_z
  _atom_site_occupancy
  Ge  Ge1       1.0  0.7118757367134094  0.05953781306743622  0.6646143794059753  1.0000
  Ge  Ge2       1.0  0.4722297787666321  0.34589871764183044  0.881523847579956  1.0000
  Ge  Ge3       1.0  0.8230940103530884  0.07837722450494766  0.2689356207847595  1.0000
  Ge  Ge4       1.0  0.028514787554740906  0.7663450241088867  0.08731313794851304  1.0000
  Nb  Nb1       1.0  0.030704345554113388  0.33183398842811584  0.9574428200721741  1.0000
  Nb  Nb2       1.0  0.24100054800510406  0.0770883560180664  0.49127310514450073  1.0000
  P   P1        1.0  0.16904745995998383  0.5598604083061218  0.6194362044334412  1.0000
  Tl  Tl1       1.0  0.6476086378097534  0.5498952865600586  0.40697014331817627  1.0000
  Zr  Zr1       1.0  0.46477213501930237  0.8504246473312378  0.9476706981658936  1.0000
