data_image0
_chemical_formula_structural       B4Be2Ca2
_chemical_formula_sum              "B4 Be2 Ca2"
_cell_length_a       3.4765080788958747
_cell_length_b       3.7770712055004054
_cell_length_c       8.356078147888184
_cell_angle_alpha    102.81673011835963
_cell_angle_beta     101.8125579284474
_cell_angle_gamma    90.27375713990287

_space_group_name_H-M_alt    "P 1"
_space_group_IT_number       1

loop_
  _space_group_symop_operation_xyz
  'x, y, z'

loop_
  _atom_site_type_symbol
  _atom_site_label
  _atom_site_symmetry_multiplicity
  _atom_site_fract_x
  _atom_site_fract_y
  _atom_site_fract_z
  _atom_site_occupancy
  B   B1        1.0  0.5378957390785217  0.437755286693573  0.22805410623550415  1.0000
  B   B2        1.0  0.716648280620575  0.11474740505218506  0.6008874177932739  1.0000
  B   B3        1.0  0.425974041223526  0.31521090865135193  0.005214274395257235  1.0000
  B   B4        1.0  0.851219654083252  0.25031277537345886  0.8464295864105225  1.0000
  Be  Be1       1.0  0.15624476969242096  0.04988987743854523  0.46923354268074036  1.0000
  Be  Be2       1.0  0.6501411199569702  0.5461704134941101  0.4511500298976898  1.0000
  Ca  Ca1       1.0  0.29709896445274353  0.6816437244415283  0.7392920255661011  1.0000
  Ca  Ca2       1.0  0.9832548499107361  0.8727844953536987  0.11396126449108124  1.0000
