data_image0
_chemical_formula_structural       BeCCaCuF2TmZr
_chemical_formula_sum              "Be1 C1 Ca1 Cu1 F2 Tm1 Zr1"
_cell_length_a       4.943686421849583
_cell_length_b       4.933897693206963
_cell_length_c       4.93156623840332
_cell_angle_alpha    90.05591797796474
_cell_angle_beta     89.97656875187552
_cell_angle_gamma    89.94666195966977

_space_group_name_H-M_alt    "P 1"
_space_group_IT_number       1

loop_
  _space_group_symop_operation_xyz
  'x, y, z'

loop_
  _atom_site_type_symbol
  _atom_site_label
  _atom_site_symmetry_multiplicity
  _atom_site_fract_x
  _atom_site_fract_y
  _atom_site_fract_z
  _atom_site_occupancy
  Be  Be1       1.0  0.848417341709137  0.5915866494178772  0.4704683423042296  1.0000
  C   C1        1.0  0.13687659800052643  0.7134058475494385  0.46456921100616455  1.0000
  Ca  Ca1       1.0  0.6435315608978271  0.18695120513439178  0.970644474029541  1.0000
  Cu  Cu1       1.0  0.4454353153705597  0.5886313915252686  0.47612032294273376  1.0000
  F   F1        1.0  0.638096809387207  0.2069660723209381  0.4654511809349061  1.0000
  F   F2        1.0  0.6401572227478027  0.6950681805610657  0.9347115755081177  1.0000
  Tm  Tm1       1.0  0.13758952915668488  0.6930283308029175  0.9697386622428894  1.0000
  Zr  Zr1       1.0  0.1433868557214737  0.17598837614059448  0.4700157940387726  1.0000
