data_image0
_chemical_formula_structural       BGa2IK2NNpO2PPbUVZn2Zr
_chemical_formula_sum              "B1 Ga2 I1 K2 N1 Np1 O2 P1 Pb1 U1 V1 Zn2 Zr1"
_cell_length_a       6.746987274887501
_cell_length_b       6.9366634957149245
_cell_length_c       8.92634391784668
_cell_angle_alpha    90.67688019039186
_cell_angle_beta     91.34541960371931
_cell_angle_gamma    108.69335818573173

_space_group_name_H-M_alt    "P 1"
_space_group_IT_number       1

loop_
  _space_group_symop_operation_xyz
  'x, y, z'

loop_
  _atom_site_type_symbol
  _atom_site_label
  _atom_site_symmetry_multiplicity
  _atom_site_fract_x
  _atom_site_fract_y
  _atom_site_fract_z
  _atom_site_occupancy
  B   B1        1.0  0.5661599636077881  0.1403486281633377  0.9146497845649719  1.0000
  Ga  Ga1       1.0  0.021113738417625427  0.38616636395454407  0.9983586072921753  1.0000
  Ga  Ga2       1.0  0.7181345224380493  0.4552611708641052  0.7543390393257141  1.0000
  I   I1        1.0  0.017301974818110466  0.7136383652687073  0.782434344291687  1.0000
  K   K1        1.0  0.7599285840988159  0.6401780843734741  0.904567539691925  1.0000
  K   K2        1.0  0.7574811577796936  0.4077922999858856  0.4789729118347168  1.0000
  N   N1        1.0  0.19820672273635864  0.06700662523508072  0.05400703847408295  1.0000
  Np  Np1       1.0  0.7864442467689514  0.9524480700492859  0.8181284070014954  1.0000
  O   O1        1.0  0.5284688472747803  0.2418527752161026  0.3284035325050354  1.0000
  O   O2        1.0  0.774564266204834  0.8867778182029724  0.8771059513092041  1.0000
  P   P1        1.0  0.30353692173957825  0.6877342462539673  0.9893227219581604  1.0000
  Pb  Pb1       1.0  0.4912455976009369  0.043121010065078735  0.20907573401927948  1.0000
  U   U1        1.0  0.7597475647926331  0.77557772397995  0.486221581697464  1.0000
  V   V1        1.0  0.45771002769470215  0.9889853000640869  0.6847579479217529  1.0000
  Zn  Zn1       1.0  0.4127291440963745  0.7761130332946777  0.4535384178161621  1.0000
  Zn  Zn2       1.0  0.9699341654777527  0.5552769303321838  0.7226930856704712  1.0000
  Zr  Zr1       1.0  0.0319608598947525  0.9350410103797913  0.21405084431171417  1.0000
