data_image0
_chemical_formula_structural       F2IInK2MnO3U2Zn3Zr2
_chemical_formula_sum              "F2 I1 In1 K2 Mn1 O3 U2 Zn3 Zr2"
_cell_length_a       5.905607413073362
_cell_length_b       8.560248583876099
_cell_length_c       9.395204544067383
_cell_angle_alpha    121.56689337082443
_cell_angle_beta     89.5647215022059
_cell_angle_gamma    88.74400473063848

_space_group_name_H-M_alt    "P 1"
_space_group_IT_number       1

loop_
  _space_group_symop_operation_xyz
  'x, y, z'

loop_
  _atom_site_type_symbol
  _atom_site_label
  _atom_site_symmetry_multiplicity
  _atom_site_fract_x
  _atom_site_fract_y
  _atom_site_fract_z
  _atom_site_occupancy
  F   F1        1.0  0.013853798620402813  0.599457323551178  0.5231017470359802  1.0000
  F   F2        1.0  0.4822210967540741  0.2302899956703186  0.469936728477478  1.0000
  I   I1        1.0  0.9880567193031311  0.7044389247894287  0.1981011927127838  1.0000
  In  In1       1.0  0.9720138907432556  0.5780118703842163  0.7524250149726869  1.0000
  K   K1        1.0  0.4949225187301636  0.22402502596378326  0.6741281747817993  1.0000
  K   K2        1.0  0.49631625413894653  0.828475296497345  0.6772385835647583  1.0000
  Mn  Mn1       1.0  0.9771621227264404  0.03545356169342995  0.20905759930610657  1.0000
  O   O1        1.0  0.4774501621723175  0.4387972354888916  0.1267715096473694  1.0000
  O   O2        1.0  0.9867212176322937  0.18153922259807587  0.4975152015686035  1.0000
  O   O3        1.0  0.499795526266098  0.9086522459983826  0.3999008536338807  1.0000
  U   U1        1.0  0.49425721168518066  0.21454490721225739  0.6862717866897583  1.0000
  U   U2        1.0  0.47983604669570923  0.4635853171348572  0.012199117802083492  1.0000
  Zn  Zn1       1.0  0.49228203296661377  0.27802395820617676  0.25238877534866333  1.0000
  Zn  Zn2       1.0  0.47751539945602417  0.2559463083744049  0.01777716912329197  1.0000
  Zn  Zn3       1.0  0.9843361377716064  0.1349835991859436  0.654415488243103  1.0000
  Zr  Zr1       1.0  0.9846492409706116  0.07554014772176743  0.8707699775695801  1.0000
  Zr  Zr2       1.0  0.99366694688797  0.6652191877365112  0.7806754112243652  1.0000
