data_image0
_chemical_formula_structural       As2K3Na5O4Ta3
_chemical_formula_sum              "As2 K3 Na5 O4 Ta3"
_cell_length_a       5.571389293173841
_cell_length_b       6.759498069724115
_cell_length_c       9.35339641571045
_cell_angle_alpha    113.99245427159413
_cell_angle_beta     90.01057357241284
_cell_angle_gamma    89.14658219072442

_space_group_name_H-M_alt    "P 1"
_space_group_IT_number       1

loop_
  _space_group_symop_operation_xyz
  'x, y, z'

loop_
  _atom_site_type_symbol
  _atom_site_label
  _atom_site_symmetry_multiplicity
  _atom_site_fract_x
  _atom_site_fract_y
  _atom_site_fract_z
  _atom_site_occupancy
  As  As1       1.0  0.659552812576294  0.05276850238442421  0.9588236212730408  1.0000
  As  As2       1.0  0.17947107553482056  0.5738828182220459  0.9605580568313599  1.0000
  K   K1        1.0  0.6765779256820679  0.5324224233627319  0.5069385766983032  1.0000
  K   K2        1.0  0.17747491598129272  0.2801884412765503  0.25386157631874084  1.0000
  K   K3        1.0  0.17228980362415314  0.8273839354515076  0.4086950719356537  1.0000
  Na  Na1       1.0  0.1706603318452835  0.6550180315971375  0.7428719997406006  1.0000
  Na  Na2       1.0  0.17040537297725677  0.09875818341970444  0.9502671957015991  1.0000
  Na  Na3       1.0  0.6738519668579102  0.7636936902999878  0.5928878784179688  1.0000
  Na  Na4       1.0  0.6707849502563477  0.6640521287918091  0.8878283500671387  1.0000
  Na  Na5       1.0  0.17188602685928345  0.5977888107299805  0.08931566029787064  1.0000
  O   O1        1.0  0.08124151080846786  0.9735838770866394  0.3219799101352691  1.0000
  O   O2        1.0  0.1760290116071701  0.24387459456920624  0.08976132422685623  1.0000
  O   O3        1.0  0.10871771723031999  0.21579624712467194  0.2708268165588379  1.0000
  O   O4        1.0  0.6844009160995483  0.19844543933868408  0.38653507828712463  1.0000
  Ta  Ta1       1.0  0.670140266418457  0.6667627096176147  0.4038310945034027  1.0000
  Ta  Ta2       1.0  0.6783022880554199  0.2623465657234192  0.4103042185306549  1.0000
  Ta  Ta3       1.0  0.17192770540714264  0.9061416983604431  0.31175419688224787  1.0000
