data_image0
_chemical_formula_structural       CaGaHO5PTi2UVZn4
_chemical_formula_sum              "Ca1 Ga1 H1 O5 P1 Ti2 U1 V1 Zn4"
_cell_length_a       5.6661549529098
_cell_length_b       7.149917502560675
_cell_length_c       8.011268615722656
_cell_angle_alpha    111.72410639189178
_cell_angle_beta     91.90061423760068
_cell_angle_gamma    109.89995640372787

_space_group_name_H-M_alt    "P 1"
_space_group_IT_number       1

loop_
  _space_group_symop_operation_xyz
  'x, y, z'

loop_
  _atom_site_type_symbol
  _atom_site_label
  _atom_site_symmetry_multiplicity
  _atom_site_fract_x
  _atom_site_fract_y
  _atom_site_fract_z
  _atom_site_occupancy
  Ca  Ca1       1.0  0.0674768239259719  0.9406344890594481  0.4212676286697387  1.0000
  Ga  Ga1       1.0  0.5728948712348938  0.5582127571105957  0.2220304757356643  1.0000
  H   H1        1.0  0.5871268510818481  0.3408204913139343  0.14622525870800016  1.0000
  O   O1        1.0  0.2637272775173187  0.21078571677207947  0.7031542658805846  1.0000
  O   O2        1.0  0.5150543451309204  0.8224495053291321  0.6590207815170288  1.0000
  O   O3        1.0  0.5844035744667053  0.4289717376232147  0.8354474902153015  1.0000
  O   O4        1.0  0.6308963894844055  0.17183299362659454  0.8651962876319885  1.0000
  O   O5        1.0  0.026607632637023926  0.11459032446146011  0.34263527393341064  1.0000
  P   P1        1.0  0.8607452511787415  0.8587950468063354  0.007080920506268684  1.0000
  Ti  Ti1       1.0  0.823096752166748  0.21934376657009125  0.7622047066688538  1.0000
  Ti  Ti2       1.0  0.002067923545837324  0.9661588668823241  0.681335985660553  1.0000
  U   U1        1.0  0.2594790756702423  0.4142439365386963  0.9947188496589661  1.0000
  V   V1        1.0  0.03187717869877815  0.4437940716743469  0.6892325282096863  1.0000
  Zn  Zn1       1.0  0.7597952485084534  0.4796737134456634  0.774635910987854  1.0000
  Zn  Zn2       1.0  0.26836010813713074  0.2523610591888428  0.05655231326818465  1.0000
  Zn  Zn3       1.0  0.25273165106773376  0.5259793400764465  0.7803148627281188  1.0000
  Zn  Zn4       1.0  0.26407453417778015  0.5801376700401306  0.38385292887687683  1.0000
