data_image0
_chemical_formula_structural       AsEuK5NaO3Ta6
_chemical_formula_sum              "As1 Eu1 K5 Na1 O3 Ta6"
_cell_length_a       5.4450796488253195
_cell_length_b       5.160887187861433
_cell_length_c       9.467418670654297
_cell_angle_alpha    102.22882150911661
_cell_angle_beta     87.83932777943694
_cell_angle_gamma    107.05718209308793

_space_group_name_H-M_alt    "P 1"
_space_group_IT_number       1

loop_
  _space_group_symop_operation_xyz
  'x, y, z'

loop_
  _atom_site_type_symbol
  _atom_site_label
  _atom_site_symmetry_multiplicity
  _atom_site_fract_x
  _atom_site_fract_y
  _atom_site_fract_z
  _atom_site_occupancy
  As  As1       1.0  0.6207576990127563  0.688066840171814  0.4340455234050751  1.0000
  Eu  Eu1       1.0  0.6217553019523621  0.6933438777923584  0.4194287955760956  1.0000
  K   K1        1.0  0.6252492666244507  0.3918369710445404  0.04012592136859894  1.0000
  K   K2        1.0  0.12196101248264314  0.28068986535072327  0.7420132756233215  1.0000
  K   K3        1.0  0.6248610019683838  0.9198283553123475  0.45883336663246155  1.0000
  K   K4        1.0  0.6222101449966431  0.25951245427131653  0.8653538227081299  1.0000
  K   K5        1.0  0.6249629259109497  0.36587029695510864  0.23667587339878082  1.0000
  Na  Na1       1.0  0.10991023480892181  0.6987752318382263  0.9924866557121277  1.0000
  O   O1        1.0  0.13001342117786407  0.2955980896949768  0.20532964169979095  1.0000
  O   O2        1.0  0.6193265318870544  0.9981779456138612  0.545243501663208  1.0000
  O   O3        1.0  0.02998257614672185  0.21454888582229617  0.48405858874320984  1.0000
  Ta  Ta1       1.0  0.12411478161811833  0.9798762798309327  0.15988455712795258  1.0000
  Ta  Ta2       1.0  0.12854892015457153  0.24853581190109256  0.5751345753669739  1.0000
  Ta  Ta3       1.0  0.6230916380882263  0.9089607000350953  0.060327883809804916  1.0000
  Ta  Ta4       1.0  0.12907060980796814  0.09643226116895676  0.1116410419344902  1.0000
  Ta  Ta5       1.0  0.12821239233016968  0.6743018627166748  0.14960309863090515  1.0000
  Ta  Ta6       1.0  0.6255761384963989  0.4471269249916077  0.4541657865047455  1.0000
