data_image0
_chemical_formula_structural       KO6PPbPtTaU2VZn3
_chemical_formula_sum              "K1 O6 P1 Pb1 Pt1 Ta1 U2 V1 Zn3"
_cell_length_a       6.608598547769941
_cell_length_b       6.765283139259104
_cell_length_c       8.787115097045898
_cell_angle_alpha    103.10235694602709
_cell_angle_beta     97.82957745164136
_cell_angle_gamma    112.85809065515156

_space_group_name_H-M_alt    "P 1"
_space_group_IT_number       1

loop_
  _space_group_symop_operation_xyz
  'x, y, z'

loop_
  _atom_site_type_symbol
  _atom_site_label
  _atom_site_symmetry_multiplicity
  _atom_site_fract_x
  _atom_site_fract_y
  _atom_site_fract_z
  _atom_site_occupancy
  K   K1        1.0  0.33363786339759827  0.5178937315940857  0.6581714749336243  1.0000
  O   O1        1.0  0.3860299289226532  0.7548549771308899  0.7064798474311829  1.0000
  O   O2        1.0  0.07848410308361047  0.94518905878067  0.9540225267410278  1.0000
  O   O3        1.0  0.7452400922775269  0.612882137298584  0.8920831084251404  1.0000
  O   O4        1.0  0.2885531783103943  0.9069855809211731  0.726242184638977  1.0000
  O   O5        1.0  0.901421844959259  0.002068394562229514  0.7524850368499756  1.0000
  O   O6        1.0  0.786704957485199  0.05095179006457329  0.666497528553009  1.0000
  P   P1        1.0  0.7942023873329163  0.45148757100105286  0.9035173058509827  1.0000
  Pb  Pb1       1.0  0.7702921628952026  0.6284340023994446  0.8159285187721252  1.0000
  Pt  Pt1       1.0  0.2643001973628998  0.8457318544387817  0.26249271631240845  1.0000
  Ta  Ta1       1.0  0.8515689373016357  0.1832079291343689  0.14772574603557587  1.0000
  U   U1        1.0  0.3904743492603302  0.5767991542816162  0.4814024865627289  1.0000
  U   U2        1.0  0.4236856698989868  0.13086295127868652  0.6455870866775513  1.0000
  V   V1        1.0  0.8911081552505493  0.6209293007850647  0.9967055916786194  1.0000
  Zn  Zn1       1.0  0.8897392749786377  0.7888182997703552  0.5620021224021912  1.0000
  Zn  Zn2       1.0  0.3045675456523895  0.12278014421463011  0.4205356538295746  1.0000
  Zn  Zn3       1.0  0.39679473638534546  0.8571117520332336  0.3407840430736542  1.0000
