data_image0
_chemical_formula_structural       AlHITi7Zn
_chemical_formula_sum              "Al1 H1 I1 Ti7 Zn1"
_cell_length_a       5.267491844608177
_cell_length_b       5.174539911841055
_cell_length_c       6.345160961151123
_cell_angle_alpha    125.06989975433163
_cell_angle_beta     93.88540052653845
_cell_angle_gamma    90.40098058276615

_space_group_name_H-M_alt    "P 1"
_space_group_IT_number       1

loop_
  _space_group_symop_operation_xyz
  'x, y, z'

loop_
  _atom_site_type_symbol
  _atom_site_label
  _atom_site_symmetry_multiplicity
  _atom_site_fract_x
  _atom_site_fract_y
  _atom_site_fract_z
  _atom_site_occupancy
  Al  Al1       1.0  0.12008219957351685  0.5655587315559387  0.32672426104545593  1.0000
  H   H1        1.0  0.60746830701828  0.37400904297828674  0.1987854242324829  1.0000
  I   I1        1.0  0.6190667152404785  0.40477454662323  0.5440385341644287  1.0000
  Ti  Ti1       1.0  0.10648008435964584  0.7421744465827942  0.8479905724525452  1.0000
  Ti  Ti2       1.0  0.6006805300712585  0.7329806685447693  0.42464819550514227  1.0000
  Ti  Ti3       1.0  0.15362533926963806  0.9021142721176147  0.54527747631073  1.0000
  Ti  Ti4       1.0  0.8718900680541992  0.6746408939361572  0.888648271560669  1.0000
  Ti  Ti5       1.0  0.6032761335372925  0.9990314245224  0.6743363738059998  1.0000
  Ti  Ti6       1.0  0.6204460263252258  0.6553142666816711  0.4622911810874939  1.0000
  Ti  Ti7       1.0  0.12237732112407684  0.9255704283714294  0.201055258512497  1.0000
  Zn  Zn1       1.0  0.10660988092422485  0.6228007078170776  0.7042015194892883  1.0000
