data_image0
_chemical_formula_structural       Al3HI3PbTi3
_chemical_formula_sum              "Al3 H1 I3 Pb1 Ti3"
_cell_length_a       6.489148444014718
_cell_length_b       6.116087798985401
_cell_length_c       7.646073818206787
_cell_angle_alpha    112.79910040957311
_cell_angle_beta     113.76110331751545
_cell_angle_gamma    96.38292495050653

_space_group_name_H-M_alt    "P 1"
_space_group_IT_number       1

loop_
  _space_group_symop_operation_xyz
  'x, y, z'

loop_
  _atom_site_type_symbol
  _atom_site_label
  _atom_site_symmetry_multiplicity
  _atom_site_fract_x
  _atom_site_fract_y
  _atom_site_fract_z
  _atom_site_occupancy
  Al  Al1       1.0  0.6227084994316101  0.26919931173324585  0.6162324547767639  1.0000
  Al  Al2       1.0  0.9664279222488403  0.6197026968002319  0.3424816131591797  1.0000
  Al  Al3       1.0  0.11470981687307358  0.5205528140068054  0.9861469268798828  1.0000
  H   H1        1.0  0.11852333694696426  0.22688177227973938  0.08593519777059556  1.0000
  I   I1        1.0  0.6027947664260864  0.11279583722352982  0.762390673160553  1.0000
  I   I2        1.0  0.10758767277002335  0.6454861164093018  0.5227226018905641  1.0000
  I   I3        1.0  0.11619704961776733  0.6642336249351501  0.7515062689781189  1.0000
  Pb  Pb1       1.0  0.11774574965238571  0.694711446762085  0.6585171222686768  1.0000
  Ti  Ti1       1.0  0.12659397721290588  0.22141051292419434  0.05359964072704315  1.0000
  Ti  Ti2       1.0  0.6017830967903137  0.8114732503890991  0.5373021364212036  1.0000
  Ti  Ti3       1.0  0.6081151366233826  0.9331756234169006  0.45535111427307134  1.0000
