data_image0
_chemical_formula_structural       Al2AsCaHI2Ti3Zn
_chemical_formula_sum              "Al2 As1 Ca1 H1 I2 Ti3 Zn1"
_cell_length_a       6.726277953084608
_cell_length_b       6.591242599468462
_cell_length_c       7.356427192687988
_cell_angle_alpha    104.45077008216421
_cell_angle_beta     103.64689451978283
_cell_angle_gamma    112.81648185680905

_space_group_name_H-M_alt    "P 1"
_space_group_IT_number       1

loop_
  _space_group_symop_operation_xyz
  'x, y, z'

loop_
  _atom_site_type_symbol
  _atom_site_label
  _atom_site_symmetry_multiplicity
  _atom_site_fract_x
  _atom_site_fract_y
  _atom_site_fract_z
  _atom_site_occupancy
  Al  Al1       1.0  0.16990119218826294  0.4259173274040222  0.5512695908546448  1.0000
  Al  Al2       1.0  0.1670244038105011  0.5157998204231262  0.862455725669861  1.0000
  As  As1       1.0  0.6811670064926147  0.8969151973724365  0.7823637723922731  1.0000
  Ca  Ca1       1.0  0.6690155267715454  0.41000932455062866  0.5091435313224792  1.0000
  H   H1        1.0  0.16870872676372528  0.9929450750350952  0.7994452714920045  1.0000
  I   I1        1.0  0.6689502596855164  0.9208733439445496  0.440039873123169  1.0000
  I   I2        1.0  0.6673698425292969  0.18841813504695892  0.7368251085281373  1.0000
  Ti  Ti1       1.0  0.17761997878551483  0.5634037852287292  0.2737499177455902  1.0000
  Ti  Ti2       1.0  0.673245906829834  0.9239060878753662  0.15717026591300964  1.0000
  Ti  Ti3       1.0  0.6704150438308716  0.5168589353561401  0.8956770300865174  1.0000
  Zn  Zn1       1.0  0.6692970991134644  0.5192908048629761  0.5018557906150818  1.0000
