data_image0
_chemical_formula_structural       Al4Au6Ti
_chemical_formula_sum              "Al4 Au6 Ti1"
_cell_length_a       5.33840609373315
_cell_length_b       5.305712456136734
_cell_length_c       4.786935329437256
_cell_angle_alpha    116.04560099033073
_cell_angle_beta     115.80293839879384
_cell_angle_gamma    96.20006868333478

_space_group_name_H-M_alt    "P 1"
_space_group_IT_number       1

loop_
  _space_group_symop_operation_xyz
  'x, y, z'

loop_
  _atom_site_type_symbol
  _atom_site_label
  _atom_site_symmetry_multiplicity
  _atom_site_fract_x
  _atom_site_fract_y
  _atom_site_fract_z
  _atom_site_occupancy
  Al  Al1       1.0  0.7586641311645508  0.6580653786659241  0.915949285030365  1.0000
  Al  Al2       1.0  0.06518776714801788  0.8269757032394409  0.45585936307907104  1.0000
  Al  Al3       1.0  0.3006647229194641  0.08759962767362595  0.23651766777038574  1.0000
  Al  Al4       1.0  0.8370348215103149  0.41867950558662415  0.09260270744562149  1.0000
  Au  Au1       1.0  0.33143481612205505  0.24054977297782898  0.6769547462463379  1.0000
  Au  Au2       1.0  0.7660403251647949  0.4911521077156067  0.11258348822593689  1.0000
  Au  Au3       1.0  0.6234122514724731  0.4291835427284241  0.1539064645767212  1.0000
  Au  Au4       1.0  0.30559244751930237  0.8877935409545898  0.2792888581752777  1.0000
  Au  Au5       1.0  0.1902717798948288  0.7949286103248596  0.28429123759269714  1.0000
  Au  Au6       1.0  0.7979488372802734  0.7912133932113647  0.862917423248291  1.0000
  Ti  Ti1       1.0  0.19303537905216217  0.5410122871398926  0.15100014209747314  1.0000
