data_image0
_chemical_formula_structural       Al2I2PtTi5Zn
_chemical_formula_sum              "Al2 I2 Pt1 Ti5 Zn1"
_cell_length_a       6.634824017623908
_cell_length_b       6.40417189647788
_cell_length_c       6.455761432647705
_cell_angle_alpha    108.96863066730921
_cell_angle_beta     110.01892299623965
_cell_angle_gamma    110.85071194237226

_space_group_name_H-M_alt    "P 1"
_space_group_IT_number       1

loop_
  _space_group_symop_operation_xyz
  'x, y, z'

loop_
  _atom_site_type_symbol
  _atom_site_label
  _atom_site_symmetry_multiplicity
  _atom_site_fract_x
  _atom_site_fract_y
  _atom_site_fract_z
  _atom_site_occupancy
  Al  Al1       1.0  0.21997904777526855  0.8314002156257629  0.4129970669746398  1.0000
  Al  Al2       1.0  0.9079172611236572  0.3021714389324188  0.7732346057891846  1.0000
  I   I1        1.0  0.9419516324996948  0.09002302587032318  0.4887813031673432  1.0000
  I   I2        1.0  0.21888570487499237  0.8913647532463074  0.11132241785526276  1.0000
  Pt  Pt1       1.0  0.9144405722618103  0.6173152327537537  0.5203644037246704  1.0000
  Ti  Ti1       1.0  0.24599631130695343  0.2320995330810547  0.7525632977485657  1.0000
  Ti  Ti2       1.0  0.7480491399765015  0.21127073466777802  0.31420862674713135  1.0000
  Ti  Ti3       1.0  0.42616063356399536  0.6544432640075684  0.19770172238349915  1.0000
  Ti  Ti4       1.0  0.8391799330711365  0.9876014590263367  0.0502699613571167  1.0000
  Ti  Ti5       1.0  0.43819934129714966  0.8789275884628296  0.647080659866333  1.0000
  Zn  Zn1       1.0  0.7411139011383057  0.04295487329363823  0.25242817401885986  1.0000
