data_image0
_chemical_formula_structural       Al5Au5Ti
_chemical_formula_sum              "Al5 Au5 Ti1"
_cell_length_a       5.420914062204047
_cell_length_b       4.955300242849592
_cell_length_c       5.993742942810059
_cell_angle_alpha    116.79038950246981
_cell_angle_beta     115.16169178549961
_cell_angle_gamma    89.3497248350879

_space_group_name_H-M_alt    "P 1"
_space_group_IT_number       1

loop_
  _space_group_symop_operation_xyz
  'x, y, z'

loop_
  _atom_site_type_symbol
  _atom_site_label
  _atom_site_symmetry_multiplicity
  _atom_site_fract_x
  _atom_site_fract_y
  _atom_site_fract_z
  _atom_site_occupancy
  Al  Al1       1.0  0.18007493019104004  0.862330973148346  0.5713381767272948  1.0000
  Al  Al2       1.0  0.46217888593673706  0.9920834302902222  0.5290555953979492  1.0000
  Al  Al3       1.0  0.8839918971061707  0.3958073556423187  0.5913900136947632  1.0000
  Al  Al4       1.0  0.6891601085662842  0.8451026082038879  0.4267565011978149  1.0000
  Al  Al5       1.0  0.12880530953407288  0.5381115674972534  0.0076600010506808385  1.0000
  Au  Au1       1.0  0.42718684673309326  0.5462542176246643  0.1370481699705124  1.0000
  Au  Au2       1.0  0.08351308107376099  0.3667714595794678  0.0805092602968216  1.0000
  Au  Au3       1.0  0.6774107217788696  0.803917407989502  0.7604014873504639  1.0000
  Au  Au4       1.0  0.18542273342609406  0.8084143996238708  0.5933891534805297  1.0000
  Au  Au5       1.0  0.3632737398147583  0.6881133913993835  0.8390631079673766  1.0000
  Ti  Ti1       1.0  0.9761197566986084  0.7725172638893127  0.7375428676605225  1.0000
