data_image0
_chemical_formula_structural       HHo3PPbZn
_chemical_formula_sum              "H1 Ho3 P1 Pb1 Zn1"
_cell_length_a       4.691193737747445
_cell_length_b       5.485652170421614
_cell_length_c       7.828239917755127
_cell_angle_alpha    117.74293370570709
_cell_angle_beta     90.13749933097037
_cell_angle_gamma    95.13932009797047

_space_group_name_H-M_alt    "P 1"
_space_group_IT_number       1

loop_
  _space_group_symop_operation_xyz
  'x, y, z'

loop_
  _atom_site_type_symbol
  _atom_site_label
  _atom_site_symmetry_multiplicity
  _atom_site_fract_x
  _atom_site_fract_y
  _atom_site_fract_z
  _atom_site_occupancy
  H   H1        1.0  0.2577565908432007  0.6415656208992004  0.09776233881711963  1.0000
  Ho  Ho1       1.0  0.013218913227319717  0.26782703399658203  0.39693278074264526  1.0000
  Ho  Ho2       1.0  0.5263327360153198  0.23397327959537506  0.8358624577522278  1.0000
  Ho  Ho3       1.0  0.27760353684425354  0.28336474299430847  0.0693325325846672  1.0000
  P   P1        1.0  0.46162116527557373  0.4680749773979187  0.7093347907066345  1.0000
  Pb  Pb1       1.0  0.0022749900817871094  0.755033552646637  0.3180687427520752  1.0000
  Zn  Zn1       1.0  0.7555634379386902  0.2639452815055847  0.3599226474761963  1.0000
