data_image0
_chemical_formula_structural       Fe2Ho5
_chemical_formula_sum              "Fe2 Ho5"
_cell_length_a       4.801765509431931
_cell_length_b       5.143918674132058
_cell_length_c       6.578821659088135
_cell_angle_alpha    73.73001463692269
_cell_angle_beta     68.64928312417098
_cell_angle_gamma    63.46229072147802

_space_group_name_H-M_alt    "P 1"
_space_group_IT_number       1

loop_
  _space_group_symop_operation_xyz
  'x, y, z'

loop_
  _atom_site_type_symbol
  _atom_site_label
  _atom_site_symmetry_multiplicity
  _atom_site_fract_x
  _atom_site_fract_y
  _atom_site_fract_z
  _atom_site_occupancy
  Fe  Fe1       1.0  0.31499791145324707  0.2959577441215515  0.8253756761550904  1.0000
  Fe  Fe2       1.0  0.8101946115493774  0.7747722268104553  0.7699891328811647  1.0000
  Ho  Ho1       1.0  0.32284408807754517  0.1708667278289795  0.5261106491088867  1.0000
  Ho  Ho2       1.0  0.32362058758735657  0.8198705315589905  0.6258469223976135  1.0000
  Ho  Ho3       1.0  0.8257408142089844  0.681693971157074  0.6472592353820802  1.0000
  Ho  Ho4       1.0  0.8207318186759949  0.3088192343711853  0.705100178718567  1.0000
  Ho  Ho5       1.0  0.8221603631973267  0.8547859787940979  0.033971790224313736  1.0000
