data_image0
_chemical_formula_structural       FeGaHHo2PPb
_chemical_formula_sum              "Fe1 Ga1 H1 Ho2 P1 Pb1"
_cell_length_a       4.8043632345463925
_cell_length_b       4.8394450732922865
_cell_length_c       6.654468059539795
_cell_angle_alpha    111.18655476796589
_cell_angle_beta     92.66365121381811
_cell_angle_gamma    94.83692843056785

_space_group_name_H-M_alt    "P 1"
_space_group_IT_number       1

loop_
  _space_group_symop_operation_xyz
  'x, y, z'

loop_
  _atom_site_type_symbol
  _atom_site_label
  _atom_site_symmetry_multiplicity
  _atom_site_fract_x
  _atom_site_fract_y
  _atom_site_fract_z
  _atom_site_occupancy
  Fe  Fe1       1.0  0.8845298290252686  0.15508191287517548  0.6949417591094971  1.0000
  Ga  Ga1       1.0  0.35179829597473145  0.15913301706314087  0.4310016334056854  1.0000
  H   H1        1.0  0.8909205198287965  0.8874188661575317  0.5574552416801453  1.0000
  Ho  Ho1       1.0  0.8694337606430054  0.7463418841362  0.3448309600353241  1.0000
  Ho  Ho2       1.0  0.3947804570198059  0.1614241749048233  0.7981250882148743  1.0000
  P   P1        1.0  0.7974696159362793  0.24490195512771606  0.7332664132118225  1.0000
  Pb  Pb1       1.0  0.35682255029678345  0.2816011607646942  0.41641467809677124  1.0000
