data_image0
_chemical_formula_structural       GaGe4Ni4Y2
_chemical_formula_sum              "Ga1 Ge4 Ni4 Y2"
_cell_length_a       4.868133461151756
_cell_length_b       4.61453774711818
_cell_length_c       6.945343494415283
_cell_angle_alpha    69.03056188973214
_cell_angle_beta     59.24293701855483
_cell_angle_gamma    27.504840719090705

_space_group_name_H-M_alt    "P 1"
_space_group_IT_number       1

loop_
  _space_group_symop_operation_xyz
  'x, y, z'

loop_
  _atom_site_type_symbol
  _atom_site_label
  _atom_site_symmetry_multiplicity
  _atom_site_fract_x
  _atom_site_fract_y
  _atom_site_fract_z
  _atom_site_occupancy
  Ga  Ga1       1.0  0.45497941970825195  0.009326282888650894  0.7815857529640198  1.0000
  Ge  Ge1       1.0  0.05509083718061447  0.2661169171333313  0.584845781326294  1.0000
  Ge  Ge2       1.0  0.5742419362068176  0.9449739456176758  0.14016634225845337  1.0000
  Ge  Ge3       1.0  0.16684822738170624  0.04773472249507904  0.5797075629234314  1.0000
  Ge  Ge4       1.0  0.6815876364707947  0.01245223730802536  0.45593366026878357  1.0000
  Ni  Ni1       1.0  0.8492939472198486  0.002595804398879409  0.07243817299604409  1.0000
  Ni  Ni2       1.0  0.1502351015806198  0.36158639192581177  0.938285231590271  1.0000
  Ni  Ni3       1.0  0.8400858044624329  0.4779725670814514  0.035815540701150894  1.0000
  Ni  Ni4       1.0  0.37628763914108276  0.3784101903438568  0.1641533374786377  1.0000
  Y   Y1        1.0  0.6918032765388489  0.5647381544113159  0.42799684405326843  1.0000
  Y   Y2        1.0  0.28283265233039856  0.5461361408233643  0.17589570581912994  1.0000
