data_image0
_chemical_formula_structural       Ga3Ge3H2Ni3
_chemical_formula_sum              "Ga3 Ge3 H2 Ni3"
_cell_length_a       5.593104300488203
_cell_length_b       6.157355520006831
_cell_length_c       6.126093864440918
_cell_angle_alpha    62.73484057526073
_cell_angle_beta     61.861389867897
_cell_angle_gamma    62.91425430863223

_space_group_name_H-M_alt    "P 1"
_space_group_IT_number       1

loop_
  _space_group_symop_operation_xyz
  'x, y, z'

loop_
  _atom_site_type_symbol
  _atom_site_label
  _atom_site_symmetry_multiplicity
  _atom_site_fract_x
  _atom_site_fract_y
  _atom_site_fract_z
  _atom_site_occupancy
  Ga  Ga1       1.0  0.6586829423904419  0.07345994561910629  0.5385430455207825  1.0000
  Ga  Ga2       1.0  0.4274841547012329  0.30995258688926697  0.18853066861629486  1.0000
  Ga  Ga3       1.0  0.41697585582733154  0.8348748683929443  0.003851771354675293  1.0000
  Ge  Ge1       1.0  0.9690326452255249  0.5222559571266174  0.07095053791999817  1.0000
  Ge  Ge2       1.0  0.6347900032997131  0.07092494517564774  0.35072940587997437  1.0000
  Ge  Ge3       1.0  0.9379716515541077  0.2464205026626587  0.2915589213371278  1.0000
  H   H1        1.0  0.04396666958928108  0.08350203931331635  0.6295257806777954  1.0000
  H   H2        1.0  0.4372088611125946  0.7546859383583069  0.5265787243843079  1.0000
  Ni  Ni1       1.0  0.6755810976028442  0.5634952783584595  0.7253300547599792  1.0000
  Ni  Ni2       1.0  0.19362705945968628  0.035011693835258484  0.776887834072113  1.0000
  Ni  Ni3       1.0  0.15221869945526123  0.5544674396514893  0.3458223044872284  1.0000
