data_image0
_chemical_formula_structural       Ga2Ge4HfNi4
_chemical_formula_sum              "Ga2 Ge4 Hf1 Ni4"
_cell_length_a       4.003487700187119
_cell_length_b       6.531808663744962
_cell_length_c       6.464500427246094
_cell_angle_alpha    89.32021111572068
_cell_angle_beta     89.84122441442656
_cell_angle_gamma    88.76657525504282

_space_group_name_H-M_alt    "P 1"
_space_group_IT_number       1

loop_
  _space_group_symop_operation_xyz
  'x, y, z'

loop_
  _atom_site_type_symbol
  _atom_site_label
  _atom_site_symmetry_multiplicity
  _atom_site_fract_x
  _atom_site_fract_y
  _atom_site_fract_z
  _atom_site_occupancy
  Ga  Ga1       1.0  0.9109527468681335  0.9408381581306458  0.3721267580986023  1.0000
  Ga  Ga2       1.0  0.9195086359977722  0.09835483878850937  0.2544502913951874  1.0000
  Ge  Ge1       1.0  0.9164096117019653  0.2414219081401825  0.8837966322898865  1.0000
  Ge  Ge2       1.0  0.4220401644706726  0.6099708080291748  0.43469706177711487  1.0000
  Ge  Ge3       1.0  0.40535345673561096  0.19150075316429138  0.18053996562957764  1.0000
  Ge  Ge4       1.0  0.41651955246925354  0.6228091716766357  0.888428270816803  1.0000
  Hf  Hf1       1.0  0.9105105996131897  0.7437590956687927  0.3767656683921814  1.0000
  Ni  Ni1       1.0  0.4120558500289917  0.5020322799682617  0.14541040360927582  1.0000
  Ni  Ni2       1.0  0.9077872037887573  0.7811339497566223  0.8753604292869568  1.0000
  Ni  Ni3       1.0  0.9055855870246887  0.5869168043136597  0.6682952642440796  1.0000
  Ni  Ni4       1.0  0.4188286066055298  0.753736138343811  0.6638386249542236  1.0000
