data_image0
_chemical_formula_structural       Ga4Ge3Ni4
_chemical_formula_sum              "Ga4 Ge3 Ni4"
_cell_length_a       5.836302512192258
_cell_length_b       6.135495054086747
_cell_length_c       6.236125946044922
_cell_angle_alpha    61.86382726446246
_cell_angle_beta     62.58352420949924
_cell_angle_gamma    61.92744123865437

_space_group_name_H-M_alt    "P 1"
_space_group_IT_number       1

loop_
  _space_group_symop_operation_xyz
  'x, y, z'

loop_
  _atom_site_type_symbol
  _atom_site_label
  _atom_site_symmetry_multiplicity
  _atom_site_fract_x
  _atom_site_fract_y
  _atom_site_fract_z
  _atom_site_occupancy
  Ga  Ga1       1.0  0.8037399649620056  0.18219305574893951  0.446552574634552  1.0000
  Ga  Ga2       1.0  0.9948753714561461  0.0053955018520355225  0.471600204706192  1.0000
  Ga  Ga3       1.0  0.42339786887168884  0.5326032638549805  0.9408670663833618  1.0000
  Ga  Ga4       1.0  0.4304434061050415  0.008593329228460789  0.7550618052482605  1.0000
  Ge  Ge1       1.0  0.9958665370941161  0.5111408233642578  0.6800704598426819  1.0000
  Ge  Ge2       1.0  0.7172715663909912  0.0153029328212142  0.785843014717102  1.0000
  Ge  Ge3       1.0  0.17065663635730738  0.8722060322761537  0.25379884243011475  1.0000
  Ni  Ni1       1.0  0.8100666999816895  0.6743396520614624  0.9705803990364075  1.0000
  Ni  Ni2       1.0  0.42860761284828186  0.07108885794878006  0.6596482992172241  1.0000
  Ni  Ni3       1.0  0.9816974401473998  0.4996412098407746  0.2704383134841919  1.0000
  Ni  Ni4       1.0  0.43214625120162964  0.5289672017097473  0.2484593391418457  1.0000
