data_image0
_chemical_formula_structural       Ga4Ge2Ni4Zr
_chemical_formula_sum              "Ga4 Ge2 Ni4 Zr1"
_cell_length_a       5.518268532388266
_cell_length_b       6.197845382852085
_cell_length_c       6.348695755004883
_cell_angle_alpha    64.33422903616517
_cell_angle_beta     62.23716513163977
_cell_angle_gamma    61.59352574854944

_space_group_name_H-M_alt    "P 1"
_space_group_IT_number       1

loop_
  _space_group_symop_operation_xyz
  'x, y, z'

loop_
  _atom_site_type_symbol
  _atom_site_label
  _atom_site_symmetry_multiplicity
  _atom_site_fract_x
  _atom_site_fract_y
  _atom_site_fract_z
  _atom_site_occupancy
  Ga  Ga1       1.0  0.3392324149608612  0.010033787228167057  0.6313377618789673  1.0000
  Ga  Ga2       1.0  0.6116483807563782  0.6447296142578125  0.015341896563768387  1.0000
  Ga  Ga3       1.0  0.857739269733429  0.47393205761909485  0.6394956707954407  1.0000
  Ga  Ga4       1.0  0.31794992089271545  0.15624558925628662  0.015857862308621407  1.0000
  Ge  Ge1       1.0  0.7653795480728149  0.1516430824995041  0.22532407939434052  1.0000
  Ge  Ge2       1.0  0.2793550193309784  0.6445832848548889  0.5088241100311279  1.0000
  Ni  Ni1       1.0  0.3507191240787506  0.4413404166698456  0.5125245451927185  1.0000
  Ni  Ni2       1.0  0.024469608440995216  0.1543833166360855  0.724017322063446  1.0000
  Ni  Ni3       1.0  0.03465048596262932  0.6489673852920532  0.8115916848182678  1.0000
  Ni  Ni4       1.0  0.6905387043952942  0.9716413021087646  0.01601499877870083  1.0000
  Zr  Zr1       1.0  0.02434111014008522  0.6536664962768555  0.768076479434967  1.0000
