data_image0
_chemical_formula_structural       Ga2Ge4Ni5
_chemical_formula_sum              "Ga2 Ge4 Ni5"
_cell_length_a       4.256462658103178
_cell_length_b       5.938808066667884
_cell_length_c       6.010475158691406
_cell_angle_alpha    106.49849347168598
_cell_angle_beta     90.02941504871299
_cell_angle_gamma    88.53681253642603

_space_group_name_H-M_alt    "P 1"
_space_group_IT_number       1

loop_
  _space_group_symop_operation_xyz
  'x, y, z'

loop_
  _atom_site_type_symbol
  _atom_site_label
  _atom_site_symmetry_multiplicity
  _atom_site_fract_x
  _atom_site_fract_y
  _atom_site_fract_z
  _atom_site_occupancy
  Ga  Ga1       1.0  0.13637784123420715  0.06788642704486847  0.46545758843421936  1.0000
  Ga  Ga2       1.0  0.12096912413835526  0.9653094410896301  0.9268320798873901  1.0000
  Ge  Ge1       1.0  0.6354559659957886  0.2621397078037262  0.275855541229248  1.0000
  Ge  Ge2       1.0  0.6377394199371338  0.6120299100875854  0.15564799308776855  1.0000
  Ge  Ge3       1.0  0.6324053406715393  0.9736334681510925  0.44053080677986145  1.0000
  Ge  Ge4       1.0  0.13614456355571747  0.9278485178947449  0.0015805254224687444  1.0000
  Ni  Ni1       1.0  0.1381748914718628  0.42209815979003906  0.47189581394195557  1.0000
  Ni  Ni2       1.0  0.6325046420097351  0.527457594871521  0.9634871482849121  1.0000
  Ni  Ni3       1.0  0.12964984774589539  0.49406200647354126  0.7909663915634155  1.0000
  Ni  Ni4       1.0  0.6289873719215393  0.44627273082733154  0.011968432925641518  1.0000
  Ni  Ni5       1.0  0.6350278258323669  0.20866015553474426  0.6686124205589294  1.0000
