data_image0
_chemical_formula_structural       Co3FP2
_chemical_formula_sum              "Co3 F1 P2"
_cell_length_a       4.374703150707368
_cell_length_b       3.5937661005222163
_cell_length_c       3.5032248497009277
_cell_angle_alpha    102.2214189314451
_cell_angle_beta     82.84300820246743
_cell_angle_gamma    95.47732884705394

_space_group_name_H-M_alt    "P 1"
_space_group_IT_number       1

loop_
  _space_group_symop_operation_xyz
  'x, y, z'

loop_
  _atom_site_type_symbol
  _atom_site_label
  _atom_site_symmetry_multiplicity
  _atom_site_fract_x
  _atom_site_fract_y
  _atom_site_fract_z
  _atom_site_occupancy
  Co  Co1       1.0  0.7674444913864136  0.57469642162323  0.9402223229408264  1.0000
  Co  Co2       1.0  0.2359819859266281  0.07520484179258347  0.8870939016342163  1.0000
  Co  Co3       1.0  0.23596853017807007  0.06714524328708649  0.2324693202972412  1.0000
  F   F1        1.0  0.7962961196899414  0.5779228210449219  0.2299000322818756  1.0000
  P   P1        1.0  0.5172178745269775  0.56937575340271  0.6690085530281067  1.0000
  P   P2        1.0  0.5981727838516235  0.24758273363113403  0.6771891117095947  1.0000
