data_image0
_chemical_formula_structural       Co3P2V
_chemical_formula_sum              "Co3 P2 V1"
_cell_length_a       3.2883363179486977
_cell_length_b       3.889500493349245
_cell_length_c       6.104857444763184
_cell_angle_alpha    94.04385493345853
_cell_angle_beta     97.7524040560705
_cell_angle_gamma    89.92904003741296

_space_group_name_H-M_alt    "P 1"
_space_group_IT_number       1

loop_
  _space_group_symop_operation_xyz
  'x, y, z'

loop_
  _atom_site_type_symbol
  _atom_site_label
  _atom_site_symmetry_multiplicity
  _atom_site_fract_x
  _atom_site_fract_y
  _atom_site_fract_z
  _atom_site_occupancy
  Co  Co1       1.0  0.2777699828147888  0.7315338850021362  0.6303199529647827  1.0000
  Co  Co2       1.0  0.8445121645927429  0.20702801644802094  0.9981270432472229  1.0000
  Co  Co3       1.0  0.23497837781906128  0.22657988965511322  0.8363564610481262  1.0000
  P   P1        1.0  0.823796272277832  0.7186137437820435  0.5095126032829285  1.0000
  P   P2        1.0  0.8197695016860962  0.22154207527637482  0.47217023372650146  1.0000
  V   V1        1.0  0.3559400737285614  0.48308876156806946  0.1298806369304657  1.0000
