data_image0
_chemical_formula_structural       Ba8Ga3NS2
_chemical_formula_sum              "Ba8 Ga3 N1 S2"
_cell_length_a       6.388692693711924
_cell_length_b       6.827353857632852
_cell_length_c       9.85208797454834
_cell_angle_alpha    98.01615399849717
_cell_angle_beta     90.90753033142929
_cell_angle_gamma    116.04787753604009

_space_group_name_H-M_alt    "P 1"
_space_group_IT_number       1

loop_
  _space_group_symop_operation_xyz
  'x, y, z'

loop_
  _atom_site_type_symbol
  _atom_site_label
  _atom_site_symmetry_multiplicity
  _atom_site_fract_x
  _atom_site_fract_y
  _atom_site_fract_z
  _atom_site_occupancy
  Ba  Ba1       1.0  0.3558357059955597  0.7567872405052185  0.3070670962333679  1.0000
  Ba  Ba2       1.0  0.8183743357658386  0.2550157606601715  0.34594225883483887  1.0000
  Ba  Ba3       1.0  0.817644476890564  0.7587805390357971  0.04297906160354613  1.0000
  Ba  Ba4       1.0  0.8064337372779846  0.2561461627483368  0.722206175327301  1.0000
  Ba  Ba5       1.0  0.8160762190818787  0.7513787746429443  0.7990695834159851  1.0000
  Ba  Ba6       1.0  0.3360883891582489  0.2602067291736603  0.11522770673036574  1.0000
  Ba  Ba7       1.0  0.32131028175354004  0.7515960335731506  0.6437436938285828  1.0000
  Ba  Ba8       1.0  0.262889564037323  0.9384684562683105  0.8659846782684325  1.0000
  Ga  Ga1       1.0  0.8437830805778503  0.5544185638427734  0.3803575038909912  1.0000
  Ga  Ga2       1.0  0.33087217807769775  0.2560022473335266  0.17817866802215576  1.0000
  Ga  Ga3       1.0  0.8090684413909912  0.7544918656349182  0.6964312791824341  1.0000
  N   N1        1.0  0.3241664469242096  0.26157188415527344  0.4724328219890594  1.0000
  S   S1        1.0  0.3365168869495392  0.24667112529277802  0.5791308283805847  1.0000
  S   S2        1.0  0.12556912004947662  0.24915054440498352  0.6374941468238831  1.0000
