data_image0
_chemical_formula_structural       Ba9Ga2LaS2
_chemical_formula_sum              "Ba9 Ga2 La1 S2"
_cell_length_a       6.446386174435037
_cell_length_b       7.3634770735150745
_cell_length_c       10.197670936584473
_cell_angle_alpha    106.81351093426909
_cell_angle_beta     90.84656712074322
_cell_angle_gamma    89.42840839884063

_space_group_name_H-M_alt    "P 1"
_space_group_IT_number       1

loop_
  _space_group_symop_operation_xyz
  'x, y, z'

loop_
  _atom_site_type_symbol
  _atom_site_label
  _atom_site_symmetry_multiplicity
  _atom_site_fract_x
  _atom_site_fract_y
  _atom_site_fract_z
  _atom_site_occupancy
  Ba  Ba1       1.0  0.010606224648654461  0.5322430729866028  0.10865045338869092  1.0000
  Ba  Ba2       1.0  0.5093857049942017  0.35309335589408875  0.20060674846172333  1.0000
  Ba  Ba3       1.0  0.008628249168395996  0.35643213987350464  0.7028220295906067  1.0000
  Ba  Ba4       1.0  0.5023022294044495  0.8500183820724487  0.44258248805999756  1.0000
  Ba  Ba5       1.0  0.002520001260563731  0.3492371439933777  0.3932574987411499  1.0000
  Ba  Ba6       1.0  0.9978582859039307  0.3516697883605957  0.9785536527633667  1.0000
  Ba  Ba7       1.0  0.5014249086380005  0.8473738431930542  0.4476126730442047  1.0000
  Ba  Ba8       1.0  0.5100325345993042  0.16722312569618225  0.7606262564659119  1.0000
  Ba  Ba9       1.0  0.49584871530532837  0.3534664511680603  0.9969274997711182  1.0000
  Ga  Ga1       1.0  0.013430564664304256  0.09435924887657166  0.5281386971473694  1.0000
  Ga  Ga2       1.0  0.010330324992537498  0.8482997417449951  0.6592470407485962  1.0000
  La  La1       1.0  0.7612709999084473  0.8571687340736389  0.4966089725494385  1.0000
  S   S1        1.0  0.010744656436145306  0.1518026441335678  0.6904760003089905  1.0000
  S   S2        1.0  0.008306541480123997  0.8531039953231812  0.1309408992528915  1.0000
