data_image0
_chemical_formula_structural       Ba9Ga3S2
_chemical_formula_sum              "Ba9 Ga3 S2"
_cell_length_a       6.310608376134572
_cell_length_b       7.684685012127095
_cell_length_c       9.34061050415039
_cell_angle_alpha    109.48766371682154
_cell_angle_beta     89.64225098070956
_cell_angle_gamma    88.6705701350526

_space_group_name_H-M_alt    "P 1"
_space_group_IT_number       1

loop_
  _space_group_symop_operation_xyz
  'x, y, z'

loop_
  _atom_site_type_symbol
  _atom_site_label
  _atom_site_symmetry_multiplicity
  _atom_site_fract_x
  _atom_site_fract_y
  _atom_site_fract_z
  _atom_site_occupancy
  Ba  Ba1       1.0  0.4930942356586457  0.4275489151477814  0.26569896936416626  1.0000
  Ba  Ba2       1.0  0.9921389818191529  0.6349973678588867  0.19092422723770144  1.0000
  Ba  Ba3       1.0  0.0038468600250780587  0.5273434519767761  0.7937641143798828  1.0000
  Ba  Ba4       1.0  0.7222294807434082  0.2896902561187744  0.33356988430023193  1.0000
  Ba  Ba5       1.0  0.9985341429710389  0.1345764398574829  0.8302111625671387  1.0000
  Ba  Ba6       1.0  0.49046397209167486  0.2278367877006531  0.683055579662323  1.0000
  Ba  Ba7       1.0  0.9987862110137941  0.9255819320678712  0.6773074269294739  1.0000
  Ba  Ba8       1.0  0.5012747049331665  0.47965860366821295  0.5872418284416199  1.0000
  Ba  Ba9       1.0  0.4981753528118134  0.9206988811492921  0.25160348415374756  1.0000
  Ga  Ga1       1.0  0.0014706463553011417  0.13838398456573486  0.7872584462165833  1.0000
  Ga  Ga2       1.0  0.9847698211669923  0.9430147409439088  0.5034435391426086  1.0000
  Ga  Ga3       1.0  0.7244626879692078  0.29041770100593567  0.9493750333786011  1.0000
  S   S1        1.0  0.9893661737442018  0.42393225431442266  0.416461318731308  1.0000
  S   S2        1.0  0.12945188581943512  0.9733453392982484  0.7081007957458496  1.0000
