data_image0
_chemical_formula_structural       Ba8Ga2NRhSSb
_chemical_formula_sum              "Ba8 Ga2 N1 Rh1 S1 Sb1"
_cell_length_a       6.123452277501721
_cell_length_b       6.291944366375128
_cell_length_c       11.262864112854004
_cell_angle_alpha    104.03460855491572
_cell_angle_beta     89.92435982404211
_cell_angle_gamma    89.65305165198455

_space_group_name_H-M_alt    "P 1"
_space_group_IT_number       1

loop_
  _space_group_symop_operation_xyz
  'x, y, z'

loop_
  _atom_site_type_symbol
  _atom_site_label
  _atom_site_symmetry_multiplicity
  _atom_site_fract_x
  _atom_site_fract_y
  _atom_site_fract_z
  _atom_site_occupancy
  Ba  Ba1       1.0  0.617595374584198  0.652749240398407  0.9134278893470763  1.0000
  Ba  Ba2       1.0  0.37285199761390686  0.18311403691768646  0.8772326707839966  1.0000
  Ba  Ba3       1.0  0.662503719329834  0.6828924417495728  0.7623836994171143  1.0000
  Ba  Ba4       1.0  0.8797315955162047  0.19443456828594208  0.6921790838241577  1.0000
  Ba  Ba5       1.0  0.3718950152397156  0.9538763761520386  0.35190412402153015  1.0000
  Ba  Ba6       1.0  0.08049222826957703  0.6922158002853394  0.24288272857666016  1.0000
  Ba  Ba7       1.0  0.8536651730537413  0.8277029991149902  0.3900129795074463  1.0000
  Ba  Ba8       1.0  0.13728715479373932  0.2321484386920929  0.09166120737791061  1.0000
  Ga  Ga1       1.0  0.7341623306274414  0.40921470522880554  0.10163740813732147  1.0000
  Ga  Ga2       1.0  0.3833962380886078  0.6822855472564697  0.172794908285141  1.0000
  N   N1        1.0  0.4503404796123504  0.9614790081977844  0.2820116877555847  1.0000
  Rh  Rh1       1.0  0.6023402214050293  0.6983556747436523  0.23859180510044098  1.0000
  S   S1        1.0  0.6365168690681458  0.6299241781234741  0.19093948602676392  1.0000
  Sb  Sb1       1.0  0.10375525057315825  0.2126845121383667  0.3975113332271576  1.0000
