data_image0
_chemical_formula_structural       Ba7Ga2NRhS2Sb
_chemical_formula_sum              "Ba7 Ga2 N1 Rh1 S2 Sb1"
_cell_length_a       6.139052288849873
_cell_length_b       6.366766663969963
_cell_length_c       10.869726181030273
_cell_angle_alpha    91.74338104421513
_cell_angle_beta     90.2255830012426
_cell_angle_gamma    89.33029039979252

_space_group_name_H-M_alt    "P 1"
_space_group_IT_number       1

loop_
  _space_group_symop_operation_xyz
  'x, y, z'

loop_
  _atom_site_type_symbol
  _atom_site_label
  _atom_site_symmetry_multiplicity
  _atom_site_fract_x
  _atom_site_fract_y
  _atom_site_fract_z
  _atom_site_occupancy
  Ba  Ba1       1.0  0.05875108018517495  0.6430041193962097  0.4604075253009796  1.0000
  Ba  Ba2       1.0  0.5518993139266968  0.6380470395088196  0.9605083465576172  1.0000
  Ba  Ba3       1.0  0.058612085878849036  0.13714782893657684  0.7109519839286804  1.0000
  Ba  Ba4       1.0  0.8561721444129945  0.9567668437957764  0.16661804914474487  1.0000
  Ba  Ba5       1.0  0.5447961091995239  0.1430674046278  0.693829357624054  1.0000
  Ba  Ba6       1.0  0.5550795793533325  0.4645003378391266  0.16685010492801666  1.0000
  Ba  Ba7       1.0  0.04066900908946991  0.1405460238456726  0.6051265597343445  1.0000
  Ga  Ga1       1.0  0.8507605195045472  0.6370852589607239  0.7390644550323486  1.0000
  Ga  Ga2       1.0  0.8243694901466371  0.6280825734138489  0.696587860584259  1.0000
  N   N1        1.0  0.35366058349609375  0.95183926820755  0.02047950029373169  1.0000
  Rh  Rh1       1.0  0.8680627942085267  0.9583184123039246  0.11042221635580063  1.0000
  S   S1        1.0  0.049667265266180045  0.14088687300682068  0.19807933270931244  1.0000
  S   S2        1.0  0.16978886723518372  0.6311978101730347  0.4563670754432678  1.0000
  Sb  Sb1       1.0  0.8476313948631288  0.45395728945732117  0.45986437797546387  1.0000
