data_image0
_chemical_formula_structural       Ba7Ga4S3
_chemical_formula_sum              "Ba7 Ga4 S3"
_cell_length_a       6.114906953252638
_cell_length_b       7.878152530950393
_cell_length_c       9.735347747802734
_cell_angle_alpha    107.4322864009132
_cell_angle_beta     91.54521803774612
_cell_angle_gamma    89.11335953216033

_space_group_name_H-M_alt    "P 1"
_space_group_IT_number       1

loop_
  _space_group_symop_operation_xyz
  'x, y, z'

loop_
  _atom_site_type_symbol
  _atom_site_label
  _atom_site_symmetry_multiplicity
  _atom_site_fract_x
  _atom_site_fract_y
  _atom_site_fract_z
  _atom_site_occupancy
  Ba  Ba1       1.0  0.6005239486694336  0.5983166098594666  0.6886922121047974  1.0000
  Ba  Ba2       1.0  0.08391527086496353  0.10615617781877518  0.8677532076835632  1.0000
  Ba  Ba3       1.0  0.5917469263076782  0.9158049225807189  0.8489042520523071  1.0000
  Ba  Ba4       1.0  0.5953331589698792  0.15937362611293793  0.8413823246955872  1.0000
  Ba  Ba5       1.0  0.104151651263237  0.6821895241737366  0.5343652367591858  1.0000
  Ba  Ba6       1.0  0.5823283791542053  0.1230935752391815  0.32086673378944397  1.0000
  Ba  Ba7       1.0  0.099361352622509  0.6730284094810486  0.43027281761169434  1.0000
  Ga  Ga1       1.0  0.7778464555740356  0.17852579057216644  0.7861559391021729  1.0000
  Ga  Ga2       1.0  0.09175428748130798  0.11852583289146422  0.36583513021469116  1.0000
  Ga  Ga3       1.0  0.5984736680984497  0.40608635544776917  0.013322358950972535  1.0000
  Ga  Ga4       1.0  0.7579632997512817  0.3785654902458191  0.5498946905136108  1.0000
  S   S1        1.0  0.8517301678657532  0.13813740015029907  0.03784696757793426  1.0000
  S   S2        1.0  0.34172141551971436  0.09114155918359756  0.22661782801151276  1.0000
  S   S3        1.0  0.07524199038743973  0.3871974050998688  0.8176530599594115  1.0000
