data_image0
_chemical_formula_structural       K2O4PtV2
_chemical_formula_sum              "K2 O4 Pt1 V2"
_cell_length_a       4.184092661637692
_cell_length_b       5.2196650173467845
_cell_length_c       7.4666972160339355
_cell_angle_alpha    93.63815836316753
_cell_angle_beta     93.73900516998947
_cell_angle_gamma    108.63355489563956

_space_group_name_H-M_alt    "P 1"
_space_group_IT_number       1

loop_
  _space_group_symop_operation_xyz
  'x, y, z'

loop_
  _atom_site_type_symbol
  _atom_site_label
  _atom_site_symmetry_multiplicity
  _atom_site_fract_x
  _atom_site_fract_y
  _atom_site_fract_z
  _atom_site_occupancy
  K   K1        1.0  0.12323270738124847  0.6668266654014587  0.4399729371070861  1.0000
  K   K2        1.0  0.6616336107254028  0.41947245597839355  0.5777592062950134  1.0000
  O   O1        1.0  0.021653035655617714  0.14776480197906494  0.0024822652339935303  1.0000
  O   O2        1.0  0.544786810874939  0.44265180826187134  0.837622582912445  1.0000
  O   O3        1.0  0.6145091652870178  0.7488905787467957  0.6798064112663269  1.0000
  O   O4        1.0  0.004058606456965208  0.6518279314041138  0.05385440215468407  1.0000
  Pt  Pt1       1.0  0.34150418639183044  0.22325322031974792  0.19857317209243772  1.0000
  V   V1        1.0  0.33717143535614014  0.9206637144088745  0.6367027163505554  1.0000
  V   V2        1.0  0.9824146032333374  0.4265553951263428  0.6306883692741394  1.0000
