data_image0
_chemical_formula_structural       K3O4V2
_chemical_formula_sum              "K3 O4 V2"
_cell_length_a       4.450814060190736
_cell_length_b       3.804336656052712
_cell_length_c       8.399384498596191
_cell_angle_alpha    94.0385200430414
_cell_angle_beta     103.96684722277676
_cell_angle_gamma    98.01375001830716

_space_group_name_H-M_alt    "P 1"
_space_group_IT_number       1

loop_
  _space_group_symop_operation_xyz
  'x, y, z'

loop_
  _atom_site_type_symbol
  _atom_site_label
  _atom_site_symmetry_multiplicity
  _atom_site_fract_x
  _atom_site_fract_y
  _atom_site_fract_z
  _atom_site_occupancy
  K   K1        1.0  0.00886527169495821  0.360839307308197  0.06580398231744766  1.0000
  K   K2        1.0  0.5716457962989807  0.38338467478752136  0.2741670608520508  1.0000
  K   K3        1.0  0.2194562554359436  0.8740383982658386  0.549687922000885  1.0000
  O   O1        1.0  0.6282676458358765  0.4051969647407532  0.4155574142932892  1.0000
  O   O2        1.0  0.3115200102329254  0.6526022553443909  0.9280197620391846  1.0000
  O   O3        1.0  0.31073036789894104  0.7557400465011597  0.978828489780426  1.0000
  O   O4        1.0  0.8432020545005798  0.010318685322999954  0.9061081409454346  1.0000
  V   V1        1.0  0.439741849899292  0.44796231389045715  0.9339860081672668  1.0000
  V   V2        1.0  0.48229464888572693  0.2841343879699707  0.27864474058151245  1.0000
