data_image0
_chemical_formula_structural       K2O2V5
_chemical_formula_sum              "K2 O2 V5"
_cell_length_a       3.5713458903293183
_cell_length_b       4.093390993171646
_cell_length_c       10.179156303405762
_cell_angle_alpha    92.11317614132405
_cell_angle_beta     86.42027492870922
_cell_angle_gamma    95.37032246206748

_space_group_name_H-M_alt    "P 1"
_space_group_IT_number       1

loop_
  _space_group_symop_operation_xyz
  'x, y, z'

loop_
  _atom_site_type_symbol
  _atom_site_label
  _atom_site_symmetry_multiplicity
  _atom_site_fract_x
  _atom_site_fract_y
  _atom_site_fract_z
  _atom_site_occupancy
  K   K1        1.0  0.42054513096809387  0.8740224838256836  0.050031911581754684  1.0000
  K   K2        1.0  0.3191773295402527  0.8741170763969421  0.21979528665542603  1.0000
  O   O1        1.0  0.31146493554115295  0.3802115321159363  0.2946769893169403  1.0000
  O   O2        1.0  0.8031417727470398  0.3827323913574219  0.19761531054973602  1.0000
  V   V1        1.0  0.8464787006378174  0.6312170028686523  0.07688857614994049  1.0000
  V   V2        1.0  0.3243981897830963  0.10013891756534576  0.6456282734870911  1.0000
  V   V3        1.0  0.33708256483078003  0.19196709990501404  0.012944096699357033  1.0000
  V   V4        1.0  0.8890150785446167  0.20917078852653503  0.7534806132316589  1.0000
  V   V5        1.0  0.3850075900554657  0.6985430717468262  0.915995717048645  1.0000
