data_image0
_chemical_formula_structural       K3O2V4
_chemical_formula_sum              "K3 O2 V4"
_cell_length_a       3.8695624936238926
_cell_length_b       4.811986961234324
_cell_length_c       8.929430961608887
_cell_angle_alpha    91.70506109323193
_cell_angle_beta     92.52992503237037
_cell_angle_gamma    106.49773022166573

_space_group_name_H-M_alt    "P 1"
_space_group_IT_number       1

loop_
  _space_group_symop_operation_xyz
  'x, y, z'

loop_
  _atom_site_type_symbol
  _atom_site_label
  _atom_site_symmetry_multiplicity
  _atom_site_fract_x
  _atom_site_fract_y
  _atom_site_fract_z
  _atom_site_occupancy
  K   K1        1.0  0.9894829988479613  0.936360478401184  0.47917550802230835  1.0000
  K   K2        1.0  0.6041079163551331  0.3608381152153015  0.12651564180850983  1.0000
  K   K3        1.0  0.18944410979747772  0.8932092189788818  0.977306067943573  1.0000
  O   O1        1.0  0.0030034692026674747  0.8769392371177673  0.422158420085907  1.0000
  O   O2        1.0  0.9437835216522216  0.3640119433403015  0.6029770374298096  1.0000
  V   V1        1.0  0.8024454116821289  0.6729822754859924  0.3182260990142822  1.0000
  V   V2        1.0  0.29045259952545166  0.1525876671075821  0.30834949016571045  1.0000
  V   V3        1.0  0.574385941028595  0.4484221935272216  0.06005062535405159  1.0000
  V   V4        1.0  0.5234950184822083  0.9635799527168273  0.4257008731365204  1.0000
