data_image0
_chemical_formula_structural       O5V4
_chemical_formula_sum              "O5 V4"
_cell_length_a       3.1332165253770863
_cell_length_b       5.086509418916392
_cell_length_c       8.224297523498535
_cell_angle_alpha    100.83465469610029
_cell_angle_beta     89.4895127620215
_cell_angle_gamma    103.8116810253944

_space_group_name_H-M_alt    "P 1"
_space_group_IT_number       1

loop_
  _space_group_symop_operation_xyz
  'x, y, z'

loop_
  _atom_site_type_symbol
  _atom_site_label
  _atom_site_symmetry_multiplicity
  _atom_site_fract_x
  _atom_site_fract_y
  _atom_site_fract_z
  _atom_site_occupancy
  O   O1        1.0  0.0775780975818634  0.26612430810928345  0.8988826870918274  1.0000
  O   O2        1.0  0.5744643211364746  0.17865602672100067  0.5637978315353394  1.0000
  O   O3        1.0  0.4438202381134034  0.5201281309127808  0.9996649026870728  1.0000
  O   O4        1.0  0.07526054233312607  0.2693471312522888  0.5458620190620422  1.0000
  O   O5        1.0  0.07491443306207657  0.7080841064453125  0.10493326932191847  1.0000
  V   V1        1.0  0.5806645750999451  0.27330878376960754  0.40320998430252075  1.0000
  V   V2        1.0  0.09909924119710924  0.7787325978279114  0.2875128984451294  1.0000
  V   V3        1.0  0.07779094576835632  0.7605130076408386  0.6359376907348633  1.0000
  V   V4        1.0  0.6002100110054016  0.798542320728302  0.6896475553512573  1.0000
