data_image0
_chemical_formula_structural       K2O4V3
_chemical_formula_sum              "K2 O4 V3"
_cell_length_a       3.5395781881061934
_cell_length_b       4.585329433722984
_cell_length_c       7.19554328918457
_cell_angle_alpha    90.08260693512052
_cell_angle_beta     95.28437336370148
_cell_angle_gamma    89.0075067057625

_space_group_name_H-M_alt    "P 1"
_space_group_IT_number       1

loop_
  _space_group_symop_operation_xyz
  'x, y, z'

loop_
  _atom_site_type_symbol
  _atom_site_label
  _atom_site_symmetry_multiplicity
  _atom_site_fract_x
  _atom_site_fract_y
  _atom_site_fract_z
  _atom_site_occupancy
  K   K1        1.0  0.6893358826637268  0.04291897639632225  0.21134062111377716  1.0000
  K   K2        1.0  0.9072595238685607  0.8687873482704163  0.5055489540100098  1.0000
  O   O1        1.0  0.6710137128829956  0.42053839564323425  0.3091999888420105  1.0000
  O   O2        1.0  0.2377076745033264  0.4441858232021332  0.3312518894672394  1.0000
  O   O3        1.0  0.9842953085899352  0.7641567587852478  0.4254951477050781  1.0000
  O   O4        1.0  0.2858218252658844  0.7408987283706665  0.12891140580177307  1.0000
  V   V1        1.0  0.7688950300216675  0.5717487931251526  0.7667834162712097  1.0000
  V   V2        1.0  0.2859676480293274  0.6481155753135681  0.8664493560791016  1.0000
  V   V3        1.0  0.8493583202362059  0.26718729734420776  0.03590792044997215  1.0000
