data_image0
_chemical_formula_structural       Lu5Ru4S
_chemical_formula_sum              "Lu5 Ru4 S1"
_cell_length_a       4.358337015091203
_cell_length_b       5.523026859222452
_cell_length_c       7.168975353240967
_cell_angle_alpha    91.07600596290114
_cell_angle_beta     91.64747566015198
_cell_angle_gamma    94.42963227809041

_space_group_name_H-M_alt    "P 1"
_space_group_IT_number       1

loop_
  _space_group_symop_operation_xyz
  'x, y, z'

loop_
  _atom_site_type_symbol
  _atom_site_label
  _atom_site_symmetry_multiplicity
  _atom_site_fract_x
  _atom_site_fract_y
  _atom_site_fract_z
  _atom_site_occupancy
  Lu  Lu1       1.0  0.36545443534851074  0.9337899684906006  0.6837571859359741  1.0000
  Lu  Lu2       1.0  0.7962493300437927  0.7353012561798096  0.13919393718242645  1.0000
  Lu  Lu3       1.0  0.19775763154029846  0.3687143325805664  0.3727811276912689  1.0000
  Lu  Lu4       1.0  0.6832023859024048  0.4251404404640198  0.6658031344413756  1.0000
  Lu  Lu5       1.0  0.6592226028442383  0.9197667837142944  0.4271836280822754  1.0000
  Ru  Ru1       1.0  0.8835102319717407  0.9265520572662354  0.6392527222633362  1.0000
  Ru  Ru2       1.0  0.14589647948741913  0.39460575580596924  0.886321187019348  1.0000
  Ru  Ru3       1.0  0.13920484483242035  0.4171106815338135  0.44436201453208923  1.0000
  Ru  Ru4       1.0  0.34935691952705383  0.7426207661628723  0.35112324357032776  1.0000
  S   S1        1.0  0.15002460777759552  0.3979882299900055  0.9376053810119629  1.0000
