data_image0
_chemical_formula_structural       Lu5Ru4S
_chemical_formula_sum              "Lu5 Ru4 S1"
_cell_length_a       4.144897820085595
_cell_length_b       5.46920246465708
_cell_length_c       7.575836181640625
_cell_angle_alpha    91.80182458924175
_cell_angle_beta     92.00970861248383
_cell_angle_gamma    89.8131167615683

_space_group_name_H-M_alt    "P 1"
_space_group_IT_number       1

loop_
  _space_group_symop_operation_xyz
  'x, y, z'

loop_
  _atom_site_type_symbol
  _atom_site_label
  _atom_site_symmetry_multiplicity
  _atom_site_fract_x
  _atom_site_fract_y
  _atom_site_fract_z
  _atom_site_occupancy
  Lu  Lu1       1.0  0.7797045707702637  0.5544412732124329  0.8030288815498353  1.0000
  Lu  Lu2       1.0  0.5157507061958313  0.2948935627937317  0.603062093257904  1.0000
  Lu  Lu3       1.0  0.25416457653045654  0.0483330637216568  0.33134278655052185  1.0000
  Lu  Lu4       1.0  0.721919059753418  0.5544676184654236  0.4023258984088898  1.0000
  Lu  Lu5       1.0  0.2851753234863281  0.5530114769935608  0.8726920485496522  1.0000
  Ru  Ru1       1.0  0.3083516061306  0.7995359301567078  0.8178187012672425  1.0000
  Ru  Ru2       1.0  0.4210091233253479  0.6594030857086182  0.5154344439506531  1.0000
  Ru  Ru3       1.0  0.8975958228111267  0.5445157885551453  0.2640756666660309  1.0000
  Ru  Ru4       1.0  0.8909225463867188  0.8817464113235474  0.6891236901283264  1.0000
  S   S1        1.0  0.4981551766395569  0.9365416765213013  0.04988441616296769  1.0000
