data_image0
_chemical_formula_structural       Lu3Ru7
_chemical_formula_sum              "Lu3 Ru7"
_cell_length_a       5.150491133914638
_cell_length_b       5.699071181148246
_cell_length_c       6.528909206390381
_cell_angle_alpha    109.6727803564809
_cell_angle_beta     112.9810932788729
_cell_angle_gamma    90.74677764177353

_space_group_name_H-M_alt    "P 1"
_space_group_IT_number       1

loop_
  _space_group_symop_operation_xyz
  'x, y, z'

loop_
  _atom_site_type_symbol
  _atom_site_label
  _atom_site_symmetry_multiplicity
  _atom_site_fract_x
  _atom_site_fract_y
  _atom_site_fract_z
  _atom_site_occupancy
  Lu  Lu1       1.0  0.9801028370857239  0.5308184027671814  0.9674447774887085  1.0000
  Lu  Lu2       1.0  0.4395526647567749  0.23265701532363892  0.17685377597808838  1.0000
  Lu  Lu3       1.0  0.3590598702430725  0.27165472507476807  0.31954771280288696  1.0000
  Ru  Ru1       1.0  0.5390433669090271  0.2538544535636902  0.6451185941696167  1.0000
  Ru  Ru2       1.0  0.7289276123046875  0.9902698397636414  0.9744362235069275  1.0000
  Ru  Ru3       1.0  0.21522565186023712  0.7411769032478333  0.7816612124443054  1.0000
  Ru  Ru4       1.0  0.24751241505146027  0.8902464509010315  0.8029933571815491  1.0000
  Ru  Ru5       1.0  0.23304851353168488  0.24791061878204346  0.9752660393714905  1.0000
  Ru  Ru6       1.0  0.8387868404388428  0.03460937738418579  0.8636335134506226  1.0000
  Ru  Ru7       1.0  0.7363875508308411  0.7422712445259094  0.3245634138584137  1.0000
