data_image0
_chemical_formula_structural       Lu3Ru6S
_chemical_formula_sum              "Lu3 Ru6 S1"
_cell_length_a       4.222969882689482
_cell_length_b       6.607278395859307
_cell_length_c       7.255141735076904
_cell_angle_alpha    121.34839543938459
_cell_angle_beta     90.38768529632128
_cell_angle_gamma    88.06581118791043

_space_group_name_H-M_alt    "P 1"
_space_group_IT_number       1

loop_
  _space_group_symop_operation_xyz
  'x, y, z'

loop_
  _atom_site_type_symbol
  _atom_site_label
  _atom_site_symmetry_multiplicity
  _atom_site_fract_x
  _atom_site_fract_y
  _atom_site_fract_z
  _atom_site_occupancy
  Lu  Lu1       1.0  0.8693950176239014  0.9375083446502686  0.5207236409187318  1.0000
  Lu  Lu2       1.0  0.3566536605358124  0.24140222370624542  0.9436622262001038  1.0000
  Lu  Lu3       1.0  0.8652691841125488  0.25695401430130005  0.7061386704444885  1.0000
  Ru  Ru1       1.0  0.3609861135482788  0.7694369554519653  0.736278235912323  1.0000
  Ru  Ru2       1.0  0.8626064658164978  0.4921284317970276  0.9278767108917236  1.0000
  Ru  Ru3       1.0  0.8659992814064026  0.11835895478725433  0.34325215220451355  1.0000
  Ru  Ru4       1.0  0.35960453748703003  0.2462715208530426  0.16600310802459717  1.0000
  Ru  Ru5       1.0  0.8693063259124756  0.9053344130516052  0.7642966508865356  1.0000
  Ru  Ru6       1.0  0.6181400418281555  0.09402953833341599  0.3803962171077728  1.0000
  S   S1        1.0  0.35130199790000916  0.26595404744148254  0.6894127130508423  1.0000
