data_image0
_chemical_formula_structural       B2Ru7S
_chemical_formula_sum              "B2 Ru7 S1"
_cell_length_a       3.884474182460004
_cell_length_b       5.937090618658227
_cell_length_c       6.1159749031066895
_cell_angle_alpha    132.384961815139
_cell_angle_beta     90.1214480151408
_cell_angle_gamma    85.96495484985037

_space_group_name_H-M_alt    "P 1"
_space_group_IT_number       1

loop_
  _space_group_symop_operation_xyz
  'x, y, z'

loop_
  _atom_site_type_symbol
  _atom_site_label
  _atom_site_symmetry_multiplicity
  _atom_site_fract_x
  _atom_site_fract_y
  _atom_site_fract_z
  _atom_site_occupancy
  B   B1        1.0  0.03854670748114586  0.8467727303504944  0.33588963747024536  1.0000
  B   B2        1.0  0.5507293939590454  0.05640767887234688  0.99753338098526  1.0000
  Ru  Ru1       1.0  0.030910560861229893  0.6395876407623291  0.7005711793899536  1.0000
  Ru  Ru2       1.0  0.03373251482844353  0.11357732117176056  0.7031357288360596  1.0000
  Ru  Ru3       1.0  0.5432586073875427  0.36381471157073975  0.20340134203433996  1.0000
  Ru  Ru4       1.0  0.5459206104278564  0.10466712713241577  0.5058301687240601  1.0000
  Ru  Ru5       1.0  0.05621161684393882  0.2982083261013031  0.06114644557237625  1.0000
  Ru  Ru6       1.0  0.5437873601913452  0.8611191511154175  0.41905447840690624  1.0000
  Ru  Ru7       1.0  0.05084629356861114  0.6460108160972595  0.9971407651901245  1.0000
  S   S1        1.0  0.5221816897392273  0.916402280330658  0.19731083512306213  1.0000
