data_image0
_chemical_formula_structural       BRu9
_chemical_formula_sum              "B1 Ru9"
_cell_length_a       4.353375758299149
_cell_length_b       6.424075235114758
_cell_length_c       6.225293159484863
_cell_angle_alpha    119.26504344030302
_cell_angle_beta     96.6267053105213
_cell_angle_gamma    87.3454434665552

_space_group_name_H-M_alt    "P 1"
_space_group_IT_number       1

loop_
  _space_group_symop_operation_xyz
  'x, y, z'

loop_
  _atom_site_type_symbol
  _atom_site_label
  _atom_site_symmetry_multiplicity
  _atom_site_fract_x
  _atom_site_fract_y
  _atom_site_fract_z
  _atom_site_occupancy
  B   B1        1.0  0.8030478358268738  0.4415165185928345  0.21663966774940488  1.0000
  Ru  Ru1       1.0  0.8137332797050476  0.10587114095687866  0.7249162793159485  1.0000
  Ru  Ru2       1.0  0.31254950165748596  0.1436133086681366  0.47441914677619934  1.0000
  Ru  Ru3       1.0  0.7989562749862671  0.4517013132572174  0.474789559841156  1.0000
  Ru  Ru4       1.0  0.04987993836402893  0.7413730025291443  0.46798312664031977  1.0000
  Ru  Ru5       1.0  0.30989885330200195  0.10587256401777267  0.7240954041481018  1.0000
  Ru  Ru6       1.0  0.7924500107765198  0.7291668653488159  0.47997114062309265  1.0000
  Ru  Ru7       1.0  0.5564772486686707  0.6917913556098938  0.973990261554718  1.0000
  Ru  Ru8       1.0  0.3052959740161896  0.43999767303466797  0.0109224459156394  1.0000
  Ru  Ru9       1.0  0.30253908038139343  0.11927983909845352  0.023992985486984253  1.0000
