data_image0
_chemical_formula_structural       HfIPPd2PtSb3ScZn
_chemical_formula_sum              "Hf1 I1 P1 Pd2 Pt1 Sb3 Sc1 Zn1"
_cell_length_a       5.4762938994303365
_cell_length_b       6.455459725545161
_cell_length_c       7.113420486450195
_cell_angle_alpha    122.88910133359978
_cell_angle_beta     89.12060312841268
_cell_angle_gamma    87.83078434066154

_space_group_name_H-M_alt    "P 1"
_space_group_IT_number       1

loop_
  _space_group_symop_operation_xyz
  'x, y, z'

loop_
  _atom_site_type_symbol
  _atom_site_label
  _atom_site_symmetry_multiplicity
  _atom_site_fract_x
  _atom_site_fract_y
  _atom_site_fract_z
  _atom_site_occupancy
  Hf  Hf1       1.0  0.5218614339828491  0.04419407621026039  0.7370198965072632  1.0000
  I   I1        1.0  0.5187605619430542  0.4617302119731903  0.35994753241539  1.0000
  P   P1        1.0  0.5157882571220398  0.28336480259895325  0.6018519401550293  1.0000
  Pd  Pd1       1.0  0.01794304884970188  0.8175573945045471  0.13154256343841553  1.0000
  Pd  Pd2       1.0  0.5273893475532532  0.872928261756897  0.10105535387992859  1.0000
  Pt  Pt1       1.0  0.5057227611541748  0.3533499836921692  0.9612153172492981  1.0000
  Sb  Sb1       1.0  0.5219516158103943  0.9376776218414307  0.2049379199743271  1.0000
  Sb  Sb2       1.0  0.030859759077429775  0.646744430065155  0.5586004257202148  1.0000
  Sb  Sb3       1.0  0.027838451787829403  0.9477277994155884  0.7460119128227234  1.0000
  Sc  Sc1       1.0  0.015089412219822409  0.5555257797241211  0.22019167244434357  1.0000
  Zn  Zn1       1.0  0.022800743579864502  0.161337748169899  0.3859398663043976  1.0000
