data_image0
_chemical_formula_structural       CoHI2PPd3Pt2Sb
_chemical_formula_sum              "Co1 H1 I2 P1 Pd3 Pt2 Sb1"
_cell_length_a       6.303088381677554
_cell_length_b       6.736753007759831
_cell_length_c       7.89459753036499
_cell_angle_alpha    110.68965906147712
_cell_angle_beta     90.72779681178987
_cell_angle_gamma    89.13976372282649

_space_group_name_H-M_alt    "P 1"
_space_group_IT_number       1

loop_
  _space_group_symop_operation_xyz
  'x, y, z'

loop_
  _atom_site_type_symbol
  _atom_site_label
  _atom_site_symmetry_multiplicity
  _atom_site_fract_x
  _atom_site_fract_y
  _atom_site_fract_z
  _atom_site_occupancy
  Co  Co1       1.0  0.5654668211936951  0.13864150643348694  0.26147797703742975  1.0000
  H   H1        1.0  0.2647770345211029  0.6832831501960754  0.9375500679016112  1.0000
  I   I1        1.0  0.7487987875938416  0.6519615650177002  0.49442276358604426  1.0000
  I   I2        1.0  0.059254299849271774  0.6531662344932556  0.6140388250350951  1.0000
  P   P1        1.0  0.48799633979797363  0.9581688642501831  0.434386909008026  1.0000
  Pd  Pd1       1.0  0.7669041752815247  0.7585858106613159  0.11655104905366893  1.0000
  Pd  Pd2       1.0  0.2447243481874466  0.16960835456848145  0.3643933534622192  1.0000
  Pd  Pd3       1.0  0.5259530544281006  0.9237414002418518  0.06608107686042784  1.0000
  Pt  Pt1       1.0  0.020133299753069878  0.3261200785636902  0.8597251176834105  1.0000
  Pt  Pt2       1.0  0.22868585586547852  0.2770002782344818  0.32424876093864435  1.0000
  Sb  Sb1       1.0  0.5516796708106995  0.9195584058761597  0.8538966178894042  1.0000
