data_image0
_chemical_formula_structural       NdPd5SSb4
_chemical_formula_sum              "Nd1 Pd5 S1 Sb4"
_cell_length_a       5.968218398327414
_cell_length_b       6.7033047057047925
_cell_length_c       7.0881428718566895
_cell_angle_alpha    107.56643233065516
_cell_angle_beta     108.07322457776652
_cell_angle_gamma    113.75700110297885

_space_group_name_H-M_alt    "P 1"
_space_group_IT_number       1

loop_
  _space_group_symop_operation_xyz
  'x, y, z'

loop_
  _atom_site_type_symbol
  _atom_site_label
  _atom_site_symmetry_multiplicity
  _atom_site_fract_x
  _atom_site_fract_y
  _atom_site_fract_z
  _atom_site_occupancy
  Nd  Nd1       1.0  0.046799607574939735  0.6706627011299133  0.12069190293550491  1.0000
  Pd  Pd1       1.0  0.8802502155303956  0.07873854786157608  0.9775310158729553  1.0000
  Pd  Pd2       1.0  0.9872508049011232  0.4688581824302673  0.7059203386306763  1.0000
  Pd  Pd3       1.0  0.9173797965049745  0.8738005161285399  0.25983336567878723  1.0000
  Pd  Pd4       1.0  0.36507570743560797  0.2058452069759369  0.14137715101242065  1.0000
  Pd  Pd5       1.0  0.6184156537055969  0.832287847995758  0.9317907691001892  1.0000
  S   S1        1.0  0.38362440466880804  0.7721531987190247  0.7980322241783142  1.0000
  Sb  Sb1       1.0  0.6239001154899597  0.6168510913848877  0.06456682085990906  1.0000
  Sb  Sb2       1.0  0.37706357240676885  0.6943983435630798  0.9608544707298279  1.0000
  Sb  Sb3       1.0  0.9114408493041993  0.9907628297805785  0.7862904667854309  1.0000
  Sb  Sb4       1.0  0.6035916209220886  0.0007834615535102785  0.6627768278121948  1.0000
