data_image0
_chemical_formula_structural       FNdPd5Sb4
_chemical_formula_sum              "F1 Nd1 Pd5 Sb4"
_cell_length_a       5.3791545517074795
_cell_length_b       5.352176153970628
_cell_length_c       6.832940101623535
_cell_angle_alpha    104.2736536159088
_cell_angle_beta     102.12714456969852
_cell_angle_gamma    132.3050803171289

_space_group_name_H-M_alt    "P 1"
_space_group_IT_number       1

loop_
  _space_group_symop_operation_xyz
  'x, y, z'

loop_
  _atom_site_type_symbol
  _atom_site_label
  _atom_site_symmetry_multiplicity
  _atom_site_fract_x
  _atom_site_fract_y
  _atom_site_fract_z
  _atom_site_occupancy
  F   F1        1.0  0.9232295155525206  0.4951169490814209  0.42105281352996826  1.0000
  Nd  Nd1       1.0  0.4061279594898224  0.26021310687065125  0.3024560809135437  1.0000
  Pd  Pd1       1.0  0.35792064666748047  0.31779155135154724  0.27376052737236023  1.0000
  Pd  Pd2       1.0  0.37150946259498596  0.9498417377471924  0.24130280315876007  1.0000
  Pd  Pd3       1.0  0.8671174645423888  0.5648514628410339  0.9188703894615173  1.0000
  Pd  Pd4       1.0  0.23855957388877866  0.5872317552566528  0.694779098033905  1.0000
  Pd  Pd5       1.0  0.9383737444877623  0.4778173565864563  0.758667528629303  1.0000
  Sb  Sb1       1.0  0.9043271541595458  0.717074990272522  0.9079722762107849  1.0000
  Sb  Sb2       1.0  0.6836190223693848  0.02136285789310932  0.07822917401790618  1.0000
  Sb  Sb3       1.0  0.4222257137298584  0.9911291003227234  0.9722102880477905  1.0000
  Sb  Sb4       1.0  0.4118744730949402  0.6972523927688599  0.9419057965278625  1.0000
