data_image0
_chemical_formula_structural       GePPd5Sb4
_chemical_formula_sum              "Ge1 P1 Pd5 Sb4"
_cell_length_a       6.346162792139761
_cell_length_b       7.525182828210146
_cell_length_c       8.045005798339844
_cell_angle_alpha    115.38060622930212
_cell_angle_beta     90.48049347508147
_cell_angle_gamma    86.38249361925467

_space_group_name_H-M_alt    "P 1"
_space_group_IT_number       1

loop_
  _space_group_symop_operation_xyz
  'x, y, z'

loop_
  _atom_site_type_symbol
  _atom_site_label
  _atom_site_symmetry_multiplicity
  _atom_site_fract_x
  _atom_site_fract_y
  _atom_site_fract_z
  _atom_site_occupancy
  Ge  Ge1       1.0  0.631988525390625  0.9829680919647218  0.6852331757545471  1.0000
  P   P1        1.0  0.6544210910797119  0.7503858804702759  0.8284081816673279  1.0000
  Pd  Pd1       1.0  0.13735748827457428  0.08803786337375641  0.7700715065002441  1.0000
  Pd  Pd2       1.0  0.13568612933158875  0.6116294860839844  0.6589872241020203  1.0000
  Pd  Pd3       1.0  0.15347246825695038  0.5356677770614624  0.25691720843315125  1.0000
  Pd  Pd4       1.0  0.6267148852348328  0.5058073997497559  0.6486033797264099  1.0000
  Pd  Pd5       1.0  0.13372045755386353  0.19120736420154572  0.7166827917098999  1.0000
  Sb  Sb1       1.0  0.6410366892814636  0.27025729417800903  0.014807650819420828  1.0000
  Sb  Sb2       1.0  0.6235815286636353  0.6432412266731262  0.7054445147514343  1.0000
  Sb  Sb3       1.0  0.820433497428894  0.6617748141288757  0.5040504932403564  1.0000
  Sb  Sb4       1.0  0.1318892389535904  0.3272585868835449  0.7751837968826294  1.0000
