data_image0
_chemical_formula_structural       HIPd3PtSb5
_chemical_formula_sum              "H1 I1 Pd3 Pt1 Sb5"
_cell_length_a       4.184016564388398
_cell_length_b       6.907489048557796
_cell_length_c       8.203750610351562
_cell_angle_alpha    99.28782513565066
_cell_angle_beta     81.77608838624876
_cell_angle_gamma    88.17388120386387

_space_group_name_H-M_alt    "P 1"
_space_group_IT_number       1

loop_
  _space_group_symop_operation_xyz
  'x, y, z'

loop_
  _atom_site_type_symbol
  _atom_site_label
  _atom_site_symmetry_multiplicity
  _atom_site_fract_x
  _atom_site_fract_y
  _atom_site_fract_z
  _atom_site_occupancy
  H   H1        1.0  0.15939365327358246  0.08317478746175766  0.3857634961605072  1.0000
  I   I1        1.0  0.5016802549362183  0.9456407427787781  0.5267521739006042  1.0000
  Pd  Pd1       1.0  0.9831972718238831  0.34571534395217896  0.8650748133659363  1.0000
  Pd  Pd2       1.0  0.4897269010543823  0.8351868987083435  0.6088823676109314  1.0000
  Pd  Pd3       1.0  0.5238648653030396  0.9273257255554199  0.4616893529891968  1.0000
  Pt  Pt1       1.0  0.5273878574371338  0.3852171003818512  0.8970204591751099  1.0000
  Sb  Sb1       1.0  0.5034881234169006  0.5598952770233154  0.34171053767204285  1.0000
  Sb  Sb2       1.0  0.52688068151474  0.1797122210264206  0.40889236330986023  1.0000
  Sb  Sb3       1.0  0.010670548304915428  0.9144313931465149  0.8358917236328125  1.0000
  Sb  Sb4       1.0  0.5158264636993408  0.2622995674610138  0.830184280872345  1.0000
  Sb  Sb5       1.0  0.023179348558187485  0.4592559039592743  0.7027698159217834  1.0000
