data_image0
_chemical_formula_structural       B4Ba2Ca2
_chemical_formula_sum              "B4 Ba2 Ca2"
_cell_length_a       4.656866899301724
_cell_length_b       4.907672215582331
_cell_length_c       7.783568859100342
_cell_angle_alpha    70.39178111439797
_cell_angle_beta     66.37703349619025
_cell_angle_gamma    61.19500846547319

_space_group_name_H-M_alt    "P 1"
_space_group_IT_number       1

loop_
  _space_group_symop_operation_xyz
  'x, y, z'

loop_
  _atom_site_type_symbol
  _atom_site_label
  _atom_site_symmetry_multiplicity
  _atom_site_fract_x
  _atom_site_fract_y
  _atom_site_fract_z
  _atom_site_occupancy
  B   B1        1.0  0.8063388466835022  0.0024795171339064837  0.7544316649436951  1.0000
  B   B2        1.0  0.4744674265384674  0.2445468008518219  0.039727360010147095  1.0000
  B   B3        1.0  0.8026124835014343  0.42309024930000305  0.9245762228965759  1.0000
  B   B4        1.0  0.11005112528800964  0.535883367061615  0.3760996460914612  1.0000
  Ba  Ba1       1.0  0.5238953828811646  0.767562210559845  0.5942069292068481  1.0000
  Ba  Ba2       1.0  0.3346542418003082  0.9843907356262207  0.7598315477371216  1.0000
  Ca  Ca1       1.0  0.025390755385160446  0.7796506285667419  0.22718152403831482  1.0000
  Ca  Ca2       1.0  0.7926532030105591  0.4512730836868286  0.863456666469574  1.0000
