data_image0
_chemical_formula_structural       B5BaCa2
_chemical_formula_sum              "B5 Ba1 Ca2"
_cell_length_a       3.7451747764375694
_cell_length_b       5.164988364233329
_cell_length_c       7.907021999359131
_cell_angle_alpha    116.44779069487443
_cell_angle_beta     83.08153588971862
_cell_angle_gamma    89.09622706220897

_space_group_name_H-M_alt    "P 1"
_space_group_IT_number       1

loop_
  _space_group_symop_operation_xyz
  'x, y, z'

loop_
  _atom_site_type_symbol
  _atom_site_label
  _atom_site_symmetry_multiplicity
  _atom_site_fract_x
  _atom_site_fract_y
  _atom_site_fract_z
  _atom_site_occupancy
  B   B1        1.0  0.8363272547721864  0.45905551314353943  0.21363505721092219  1.0000
  B   B2        1.0  0.33873492479324346  0.9614105820655823  0.9455538392066954  1.0000
  B   B3        1.0  0.8174315094947816  0.8023775219917297  0.16054591536521906  1.0000
  B   B4        1.0  0.31892132759094244  0.3079673945903778  0.5658487677574158  1.0000
  B   B5        1.0  0.3246679306030274  0.05395333096385002  0.49975124001502985  1.0000
  Ba  Ba1       1.0  0.8229012489318849  0.7404247522354126  0.864030361175537  1.0000
  Ca  Ca1       1.0  0.33145767450332647  0.3846420645713806  0.1640675514936447  1.0000
  Ca  Ca2       1.0  0.8305302858352662  0.25981196761131287  0.5459308624267578  1.0000
