data_image0
_chemical_formula_structural       B5Ca3
_chemical_formula_sum              "B5 Ca3"
_cell_length_a       4.527148747977639
_cell_length_b       6.035612669519605
_cell_length_c       6.341107368469238
_cell_angle_alpha    118.72738522521293
_cell_angle_beta     78.31825842598015
_cell_angle_gamma    87.36127799001028

_space_group_name_H-M_alt    "P 1"
_space_group_IT_number       1

loop_
  _space_group_symop_operation_xyz
  'x, y, z'

loop_
  _atom_site_type_symbol
  _atom_site_label
  _atom_site_symmetry_multiplicity
  _atom_site_fract_x
  _atom_site_fract_y
  _atom_site_fract_z
  _atom_site_occupancy
  B   B1        1.0  0.9705515503883361  0.861444890499115  0.38341075181961065  1.0000
  B   B2        1.0  0.43419432640075684  0.29641783237457275  0.39868065714836126  1.0000
  B   B3        1.0  0.44528126716613764  0.036753859370946884  0.8803462386131288  1.0000
  B   B4        1.0  0.4378070831298828  0.6596869826316833  0.7421800494194032  1.0000
  B   B5        1.0  0.474785178899765  0.3268953263759613  0.6922978758811951  1.0000
  Ca  Ca1       1.0  0.47488120198249817  0.6451168656349182  0.41160008311271673  1.0000
  Ca  Ca2       1.0  0.9697312116622924  0.07572606205940247  0.3206307590007782  1.0000
  Ca  Ca3       1.0  0.9629563093185425  0.9172238707542419  0.5803205370903015  1.0000
