data_image0
_chemical_formula_structural       B5Ba2Ca
_chemical_formula_sum              "B5 Ba2 Ca1"
_cell_length_a       4.3153706331107555
_cell_length_b       4.66671045331053
_cell_length_c       8.492303848266602
_cell_angle_alpha    81.67621807996545
_cell_angle_beta     73.91891470685746
_cell_angle_gamma    60.15846247169586

_space_group_name_H-M_alt    "P 1"
_space_group_IT_number       1

loop_
  _space_group_symop_operation_xyz
  'x, y, z'

loop_
  _atom_site_type_symbol
  _atom_site_label
  _atom_site_symmetry_multiplicity
  _atom_site_fract_x
  _atom_site_fract_y
  _atom_site_fract_z
  _atom_site_occupancy
  B   B1        1.0  0.20831671357154846  0.5386112332344055  0.9592984914779663  1.0000
  B   B2        1.0  0.6455225944519043  0.02056223899126053  0.26380500197410583  1.0000
  B   B3        1.0  0.23692059516906738  0.5432954430580139  0.44512277841567993  1.0000
  B   B4        1.0  0.011064753867685795  0.7771589159965515  0.9523606896400452  1.0000
  B   B5        1.0  0.4811360836029053  0.7651044130325317  0.7657333016395569  1.0000
  Ba  Ba1       1.0  0.6269839406013489  0.05836863815784454  0.8630225658416748  1.0000
  Ba  Ba2       1.0  0.5206485390663147  0.269815057516098  0.5985230803489685  1.0000
  Ca  Ca1       1.0  0.9544464945793153  0.030203545466065407  0.7023170590400696  1.0000
