data_image0
_chemical_formula_structural       Ca5Co2I2O5
_chemical_formula_sum              "Ca5 Co2 I2 O5"
_cell_length_a       5.586400660785787
_cell_length_b       9.187768176923154
_cell_length_c       9.642829895019531
_cell_angle_alpha    119.59149775144625
_cell_angle_beta     89.32819538994497
_cell_angle_gamma    90.04645151737927

_space_group_name_H-M_alt    "P 1"
_space_group_IT_number       1

loop_
  _space_group_symop_operation_xyz
  'x, y, z'

loop_
  _atom_site_type_symbol
  _atom_site_label
  _atom_site_symmetry_multiplicity
  _atom_site_fract_x
  _atom_site_fract_y
  _atom_site_fract_z
  _atom_site_occupancy
  Ca  Ca1       1.0  0.26313501596450806  0.23301996290683744  0.5632514357566833  1.0000
  Ca  Ca2       1.0  0.24558910727500916  0.979547619819641  0.6689620018005371  1.0000
  Ca  Ca3       1.0  0.7653714418411255  0.2503145635128021  0.394178569316864  1.0000
  Ca  Ca4       1.0  0.2625533640384674  0.8747199773788452  0.6054332852363586  1.0000
  Ca  Ca5       1.0  0.7699285745620728  0.12171086668968199  0.9687796831130981  1.0000
  Co  Co1       1.0  0.7626667022705078  0.5421254634857178  0.08416083455085754  1.0000
  Co  Co2       1.0  0.7593453526496887  0.865067720413208  0.6177095770835876  1.0000
  I   I1        1.0  0.26063817739486694  0.5553529858589172  0.72696453332901  1.0000
  I   I2        1.0  0.7625007033348083  0.5733848810195923  0.9639221429824829  1.0000
  O   O1        1.0  0.2812596261501312  0.6236909627914429  0.390156239271164  1.0000
  O   O2        1.0  0.2831774353981018  0.08118706941604614  0.9204357862472534  1.0000
  O   O3        1.0  0.797379732131958  0.5290679931640625  0.10279718041419983  1.0000
  O   O4        1.0  0.2882290482521057  0.5258910655975342  0.09165813773870468  1.0000
  O   O5        1.0  0.7776907682418823  0.8770288228988647  0.5648918151855469  1.0000
