data_image0
_chemical_formula_structural       Ca4Co4IO5
_chemical_formula_sum              "Ca4 Co4 I1 O5"
_cell_length_a       4.922348683534804
_cell_length_b       8.18547574137018
_cell_length_c       8.404823303222656
_cell_angle_alpha    121.23269574725212
_cell_angle_beta     89.86563333566754
_cell_angle_gamma    89.53879123520255

_space_group_name_H-M_alt    "P 1"
_space_group_IT_number       1

loop_
  _space_group_symop_operation_xyz
  'x, y, z'

loop_
  _atom_site_type_symbol
  _atom_site_label
  _atom_site_symmetry_multiplicity
  _atom_site_fract_x
  _atom_site_fract_y
  _atom_site_fract_z
  _atom_site_occupancy
  Ca  Ca1       1.0  0.6161810755729675  0.765956461429596  0.08584831655025482  1.0000
  Ca  Ca2       1.0  0.600843608379364  0.2762432098388672  0.05188767611980438  1.0000
  Ca  Ca3       1.0  0.6108090877532959  0.5264632701873779  0.4811921715736389  1.0000
  Ca  Ca4       1.0  0.11060795933008194  0.7891325354576111  0.8454998731613159  1.0000
  Co  Co1       1.0  0.6113401055335999  0.30761024355888367  0.26415544748306274  1.0000
  Co  Co2       1.0  0.112291119992733  0.2879108786582947  0.19715037941932678  1.0000
  Co  Co3       1.0  0.11029189079999924  0.08920159190893173  0.21125547587871552  1.0000
  Co  Co4       1.0  0.6073122620582581  0.2983633279800415  0.6991081237792969  1.0000
  I   I1        1.0  0.10982628166675568  0.5977465510368347  0.47116768360137945  1.0000
  O   O1        1.0  0.0901622474193573  0.08680902421474457  0.19970744848251343  1.0000
  O   O2        1.0  0.10954305529594421  0.8342757821083069  0.2527404725551605  1.0000
  O   O3        1.0  0.6125003695487976  0.5155653357505798  0.7338993549346924  1.0000
  O   O4        1.0  0.6103740334510803  0.3005748987197876  0.3843734860420227  1.0000
  O   O5        1.0  0.616430401802063  0.6469608545303345  0.5743186473846436  1.0000
