data_image0
_chemical_formula_structural       CaCo2IO10
_chemical_formula_sum              "Ca1 Co2 I1 O10"
_cell_length_a       4.694070460536049
_cell_length_b       7.59240765517669
_cell_length_c       8.178174018859863
_cell_angle_alpha    119.58609248934805
_cell_angle_beta     92.6998745367744
_cell_angle_gamma    89.51995616701177

_space_group_name_H-M_alt    "P 1"
_space_group_IT_number       1

loop_
  _space_group_symop_operation_xyz
  'x, y, z'

loop_
  _atom_site_type_symbol
  _atom_site_label
  _atom_site_symmetry_multiplicity
  _atom_site_fract_x
  _atom_site_fract_y
  _atom_site_fract_z
  _atom_site_occupancy
  Ca  Ca1       1.0  0.28954076766967773  0.025703951716423035  0.0937364473938942  1.0000
  Co  Co1       1.0  0.08007621765136719  0.6465752720832825  0.48528626561164856  1.0000
  Co  Co2       1.0  0.6172593832015991  0.6446235775947571  0.0007519290084019168  1.0000
  I   I1        1.0  0.5140678882598877  0.18735522031784058  0.7108818292617798  1.0000
  O   O1        1.0  0.7978257536888123  0.8414738774299622  0.7185819745063782  1.0000
  O   O2        1.0  0.2710517644882202  0.8356282114982605  0.6334875226020813  1.0000
  O   O3        1.0  0.8271793127059937  0.8452944755554199  0.48463061451911926  1.0000
  O   O4        1.0  0.32656073570251465  0.7612226605415344  0.2227407693862915  1.0000
  O   O5        1.0  0.04804369434714317  0.40877658128738403  0.23249813914299008  1.0000
  O   O6        1.0  0.8044008016586304  0.012459118850529194  0.9244762659072876  1.0000
  O   O7        1.0  0.320614755153656  0.6646953821182251  0.9518325924873352  1.0000
  O   O8        1.0  0.6086037158966064  0.606549084186554  0.06067505106329918  1.0000
  O   O9        1.0  0.8229905366897583  0.9023568034172058  0.36501532793045044  1.0000
  O   O10       1.0  0.8500972390174866  0.3049986958503723  0.9490317106246948  1.0000
