data_image0
_chemical_formula_structural       Ca2Ir4O8
_chemical_formula_sum              "Ca2 Ir4 O8"
_cell_length_a       3.899872376550621
_cell_length_b       7.882224548402926
_cell_length_c       7.6515679359436035
_cell_angle_alpha    119.53632720218863
_cell_angle_beta     90.72936328402979
_cell_angle_gamma    89.50145188685339

_space_group_name_H-M_alt    "P 1"
_space_group_IT_number       1

loop_
  _space_group_symop_operation_xyz
  'x, y, z'

loop_
  _atom_site_type_symbol
  _atom_site_label
  _atom_site_symmetry_multiplicity
  _atom_site_fract_x
  _atom_site_fract_y
  _atom_site_fract_z
  _atom_site_occupancy
  Ca  Ca1       1.0  0.9139444828033448  0.1855906844139099  0.545854389667511  1.0000
  Ca  Ca2       1.0  0.4169095158576966  0.08830664306879044  0.33570393919944763  1.0000
  Ir  Ir1       1.0  0.9162274003028871  0.534732460975647  0.7385396361351013  1.0000
  Ir  Ir2       1.0  0.4132167994976044  0.7421802282333374  0.0759964138269425  1.0000
  Ir  Ir3       1.0  0.9219583868980409  0.1757030189037323  0.772153377532959  1.0000
  Ir  Ir4       1.0  0.40980601310729986  0.9187222123146057  0.30914905667305  1.0000
  O   O1        1.0  0.4119749069213868  0.996265709400177  0.03423072025179863  1.0000
  O   O2        1.0  0.4129056930541993  0.6048855185508728  0.4181809425354004  1.0000
  O   O3        1.0  0.9212043881416322  0.6854758262634277  0.3428458571434021  1.0000
  O   O4        1.0  0.9092964529991151  0.6899527311325073  0.6057864427566528  1.0000
  O   O5        1.0  0.9139384627342225  0.525626003742218  0.1320856660604477  1.0000
  O   O6        1.0  0.911901891231537  0.27958154678344727  0.15848329663276672  1.0000
  O   O7        1.0  0.4157769978046418  0.520418107509613  0.3150734603404999  1.0000
  O   O8        1.0  0.4044823050498963  0.9898324608802795  0.5617673397064209  1.0000
