data_image0
_chemical_formula_structural       Ca3Co3CrIO6
_chemical_formula_sum              "Ca3 Co3 Cr1 I1 O6"
_cell_length_a       4.655014151055304
_cell_length_b       8.599210078037324
_cell_length_c       8.92320728302002
_cell_angle_alpha    119.75644705056945
_cell_angle_beta     88.14585314306863
_cell_angle_gamma    89.6370370858634

_space_group_name_H-M_alt    "P 1"
_space_group_IT_number       1

loop_
  _space_group_symop_operation_xyz
  'x, y, z'

loop_
  _atom_site_type_symbol
  _atom_site_label
  _atom_site_symmetry_multiplicity
  _atom_site_fract_x
  _atom_site_fract_y
  _atom_site_fract_z
  _atom_site_occupancy
  Ca  Ca1       1.0  0.9730544090270996  0.9500396847724913  0.039596673101186704  1.0000
  Ca  Ca2       1.0  0.982557475566864  0.5545022487640381  0.34581303596496576  1.0000
  Ca  Ca3       1.0  0.49150824546813965  0.34023585915565485  0.38316428661346436  1.0000
  Co  Co1       1.0  0.9887881278991699  0.3476749658584594  0.6990468502044678  1.0000
  Co  Co2       1.0  0.9910469651222229  0.1907275170087814  0.5416082143783569  1.0000
  Co  Co3       1.0  0.48471593856811523  0.5135411620140076  0.19732062518596644  1.0000
  Cr  Cr1       1.0  0.48733949661254883  0.7089157104492186  0.5572633743286133  1.0000
  I   I1        1.0  0.9925645589828491  0.289842814207077  0.9248395562171936  1.0000
  O   O1        1.0  0.493724524974823  0.35357877612113947  0.04062447696924205  1.0000
  O   O2        1.0  0.9988879561424255  0.05241276696324348  0.887091338634491  1.0000
  O   O3        1.0  0.48970478773117065  0.8634548187255858  0.9934229254722595  1.0000
  O   O4        1.0  0.4921487867832184  0.0599394142627716  0.3451756536960602  1.0000
  O   O5        1.0  0.4597468972206116  0.33686113357543945  0.10147775709629056  1.0000
  O   O6        1.0  0.9898002743721008  0.7869897484779357  0.6501913666725159  1.0000
