data_image0
_chemical_formula_structural       BaCaIr4O8
_chemical_formula_sum              "Ba1 Ca1 Ir4 O8"
_cell_length_a       5.7998022972222145
_cell_length_b       6.564557777931846
_cell_length_c       6.54006290435791
_cell_angle_alpha    114.42239862774929
_cell_angle_beta     103.51485319028004
_cell_angle_gamma    106.6396373669215

_space_group_name_H-M_alt    "P 1"
_space_group_IT_number       1

loop_
  _space_group_symop_operation_xyz
  'x, y, z'

loop_
  _atom_site_type_symbol
  _atom_site_label
  _atom_site_symmetry_multiplicity
  _atom_site_fract_x
  _atom_site_fract_y
  _atom_site_fract_z
  _atom_site_occupancy
  Ba  Ba1       1.0  0.7680227160453796  0.7563450336456299  0.4951079487800598  1.0000
  Ca  Ca1       1.0  0.4914703667163849  0.4928322434425354  0.1267181634902954  1.0000
  Ir  Ir1       1.0  0.24697630107402802  0.9633266925811768  0.8633781671524048  1.0000
  Ir  Ir2       1.0  0.7524015307426453  0.8113605976104736  0.6866394877433777  1.0000
  Ir  Ir3       1.0  0.7430853843688965  0.029898980632424355  0.20313134789466858  1.0000
  Ir  Ir4       1.0  0.03387846052646637  0.4898117780685425  0.8793601989746094  1.0000
  O   O1        1.0  0.7731053829193115  0.7655450105667114  0.6211383938789368  1.0000
  O   O2        1.0  0.5038978457450867  0.45495903491973877  0.22978518903255463  1.0000
  O   O3        1.0  0.7515060901641846  0.4679938852787018  0.700086236000061  1.0000
  O   O4        1.0  0.3189804255962372  0.9638254046440125  0.4180627763271332  1.0000
  O   O5        1.0  0.16613467037677765  0.45150840282440186  0.7020706534385681  1.0000
  O   O6        1.0  0.24302059412002563  0.37170809507369995  0.5830414295196533  1.0000
  O   O7        1.0  0.7465434670448303  0.1399858444929123  0.29479289054870605  1.0000
  O   O8        1.0  0.2515900731086731  0.24163587391376495  0.5691542029380798  1.0000
