data_image0
_chemical_formula_structural       Ge2O5PPbTl
_chemical_formula_sum              "Ge2 O5 P1 Pb1 Tl1"
_cell_length_a       6.025948744378747
_cell_length_b       6.324253357480643
_cell_length_c       6.706667423248291
_cell_angle_alpha    113.8928217914571
_cell_angle_beta     110.97188787925546
_cell_angle_gamma    93.15497139740424

_space_group_name_H-M_alt    "P 1"
_space_group_IT_number       1

loop_
  _space_group_symop_operation_xyz
  'x, y, z'

loop_
  _atom_site_type_symbol
  _atom_site_label
  _atom_site_symmetry_multiplicity
  _atom_site_fract_x
  _atom_site_fract_y
  _atom_site_fract_z
  _atom_site_occupancy
  Ge  Ge1       1.0  0.10973681509494781  0.8459673523902893  0.9304922223091125  1.0000
  Ge  Ge2       1.0  0.11004722118377686  0.06624235212802887  0.9456354975700378  1.0000
  O   O1        1.0  0.33205223083496094  0.22769357264041898  0.8457798361778259  1.0000
  O   O2        1.0  0.908582329750061  0.8670084476470947  0.42210477590560913  1.0000
  O   O3        1.0  0.46276918053627014  0.540948212146759  0.708321213722229  1.0000
  O   O4        1.0  0.3419210612773895  0.5638176202774048  0.06824900209903717  1.0000
  O   O5        1.0  0.9833062887191772  0.5522574186325073  0.5862044095993042  1.0000
  P   P1        1.0  0.7700023055076599  0.3466140627861023  0.10490891337394714  1.0000
  Pb  Pb1       1.0  0.2347303330898285  0.3703804612159729  0.6374185085296631  1.0000
  Tl  Tl1       1.0  0.5007633566856384  0.8539977669715881  0.39782232046127314  1.0000
