data_image0
_chemical_formula_structural       Ge3O4PbSiTl
_chemical_formula_sum              "Ge3 O4 Pb1 Si1 Tl1"
_cell_length_a       5.621284748191805
_cell_length_b       5.645032619531236
_cell_length_c       6.363982677459717
_cell_angle_alpha    117.58698031432586
_cell_angle_beta     114.34127317971355
_cell_angle_gamma    93.14783138696798

_space_group_name_H-M_alt    "P 1"
_space_group_IT_number       1

loop_
  _space_group_symop_operation_xyz
  'x, y, z'

loop_
  _atom_site_type_symbol
  _atom_site_label
  _atom_site_symmetry_multiplicity
  _atom_site_fract_x
  _atom_site_fract_y
  _atom_site_fract_z
  _atom_site_occupancy
  Ge  Ge1       1.0  0.8857010006904602  0.7097508907318115  0.8231738805770873  1.0000
  Ge  Ge2       1.0  0.621799886226654  0.19240936636924744  0.49273195862770075  1.0000
  Ge  Ge3       1.0  0.9077517986297607  0.5656908750534058  0.25396060943603516  1.0000
  O   O1        1.0  0.3551520109176636  0.48778679966926575  0.843793213367462  1.0000
  O   O2        1.0  0.8459039926528931  0.9905997514724731  0.46172606945037836  1.0000
  O   O3        1.0  0.09130088239908218  0.6345046162605286  0.10010389983654025  1.0000
  O   O4        1.0  0.7402710914611816  0.46803510189056396  0.9606918692588805  1.0000
  Pb  Pb1       1.0  0.9665055274963379  0.13983313739299774  0.7107747197151184  1.0000
  Si  Si1       1.0  0.7342724800109863  0.05322112888097763  0.9713938832283019  1.0000
  Tl  Tl1       1.0  0.3518557846546173  0.9611037969589233  0.2254090458154679  1.0000
