data_image0
_chemical_formula_structural       Ge4O4Pb2
_chemical_formula_sum              "Ge4 O4 Pb2"
_cell_length_a       6.369247334291097
_cell_length_b       6.470361907681158
_cell_length_c       6.5114030838012695
_cell_angle_alpha    115.53129784274468
_cell_angle_beta     104.04928635632947
_cell_angle_gamma    112.02829380451665

_space_group_name_H-M_alt    "P 1"
_space_group_IT_number       1

loop_
  _space_group_symop_operation_xyz
  'x, y, z'

loop_
  _atom_site_type_symbol
  _atom_site_label
  _atom_site_symmetry_multiplicity
  _atom_site_fract_x
  _atom_site_fract_y
  _atom_site_fract_z
  _atom_site_occupancy
  Ge  Ge1       1.0  0.8873019814491272  0.3184002637863159  0.803867518901825  1.0000
  Ge  Ge2       1.0  0.21544770896434784  0.3897589147090912  0.40931621193885803  1.0000
  Ge  Ge3       1.0  0.13998574018478394  0.7528868913650513  0.7119068503379822  1.0000
  Ge  Ge4       1.0  0.5076611042022705  0.4899875819683075  0.9125808477401733  1.0000
  O   O1        1.0  0.37989455461502075  0.5189329385757446  0.07114060968160622  1.0000
  O   O2        1.0  0.02848743461072445  0.04296041652560234  0.176250621676445  1.0000
  O   O3        1.0  0.5700351595878601  0.3864145576953888  0.5695057511329651  1.0000
  O   O4        1.0  0.841210126876831  0.2759460508823395  0.31476542353630066  1.0000
  Pb  Pb1       1.0  0.39499229192733765  0.8402180671691895  0.8523650169372559  1.0000
  Pb  Pb2       1.0  0.7943359613418579  0.795376718044281  0.5585268139839172  1.0000
