data_image0
_chemical_formula_structural       Ge4O5Pt
_chemical_formula_sum              "Ge4 O5 Pt1"
_cell_length_a       6.100472022736685
_cell_length_b       6.554276666630313
_cell_length_c       6.453103065490723
_cell_angle_alpha    111.30366256782806
_cell_angle_beta     104.00203616118785
_cell_angle_gamma    111.11861036180701

_space_group_name_H-M_alt    "P 1"
_space_group_IT_number       1

loop_
  _space_group_symop_operation_xyz
  'x, y, z'

loop_
  _atom_site_type_symbol
  _atom_site_label
  _atom_site_symmetry_multiplicity
  _atom_site_fract_x
  _atom_site_fract_y
  _atom_site_fract_z
  _atom_site_occupancy
  Ge  Ge1       1.0  0.5182084441184998  0.06086920946836471  0.24376867711544034  1.0000
  Ge  Ge2       1.0  0.993213176727295  0.004968153778463602  0.4881713390350341  1.0000
  Ge  Ge3       1.0  0.46911042928695684  0.3154027760028839  0.42516750097274775  1.0000
  Ge  Ge4       1.0  0.02352631278336048  0.386461466550827  0.7274553775787352  1.0000
  O   O1        1.0  0.4029595851898194  0.8370696902275085  0.7311252951622008  1.0000
  O   O2        1.0  0.4240043759346009  0.5398911833763123  0.2557720839977264  1.0000
  O   O3        1.0  0.07163698226213455  0.28017640113830566  0.23942175507545468  1.0000
  O   O4        1.0  0.5669135451316833  0.805173397064209  0.7357627153396605  1.0000
  O   O5        1.0  0.9187060594558717  0.8357735872268677  0.40886968374252314  1.0000
  Pt  Pt1       1.0  0.0639992505311966  0.7946420907974243  0.22943675518035886  1.0000
