data_image0
_chemical_formula_structural       Ge2O6PbS
_chemical_formula_sum              "Ge2 O6 Pb1 S1"
_cell_length_a       5.502911273474158
_cell_length_b       6.0556508576272945
_cell_length_c       6.080273151397705
_cell_angle_alpha    115.81522875758301
_cell_angle_beta     114.07055060616389
_cell_angle_gamma    94.27381462902864

_space_group_name_H-M_alt    "P 1"
_space_group_IT_number       1

loop_
  _space_group_symop_operation_xyz
  'x, y, z'

loop_
  _atom_site_type_symbol
  _atom_site_label
  _atom_site_symmetry_multiplicity
  _atom_site_fract_x
  _atom_site_fract_y
  _atom_site_fract_z
  _atom_site_occupancy
  Ge  Ge1       1.0  0.5088282823562622  0.8468055725097656  0.866273045539856  1.0000
  Ge  Ge2       1.0  0.02087179198861122  0.8631664514541626  0.14147348701953888  1.0000
  O   O1        1.0  0.4663092792034149  0.8166565895080566  0.18252260982990265  1.0000
  O   O2        1.0  0.04736614227294922  0.7938297986984253  0.887799859046936  1.0000
  O   O3        1.0  0.7583739161491394  0.31214696168899536  0.8931443095207214  1.0000
  O   O4        1.0  0.1424693912267685  0.44566383957862854  0.6911460161209106  1.0000
  O   O5        1.0  0.7309120893478394  0.12299388647079468  0.3911460041999817  1.0000
  O   O6        1.0  0.08654657006263733  0.227577343583107  0.6066005825996399  1.0000
  Pb  Pb1       1.0  0.737072229385376  0.8504799604415894  0.38356655836105347  1.0000
  S   S1        1.0  0.42550086975097656  0.22748759388923645  0.568473219871521  1.0000
