data_image0
_chemical_formula_structural       Ge2O7Pb
_chemical_formula_sum              "Ge2 O7 Pb1"
_cell_length_a       5.975232583105433
_cell_length_b       6.138486009637359
_cell_length_c       6.609261512756348
_cell_angle_alpha    105.93572422164013
_cell_angle_beta     104.49844711171845
_cell_angle_gamma    112.40331449455583

_space_group_name_H-M_alt    "P 1"
_space_group_IT_number       1

loop_
  _space_group_symop_operation_xyz
  'x, y, z'

loop_
  _atom_site_type_symbol
  _atom_site_label
  _atom_site_symmetry_multiplicity
  _atom_site_fract_x
  _atom_site_fract_y
  _atom_site_fract_z
  _atom_site_occupancy
  Ge  Ge1       1.0  0.3441654145717621  0.44202950596809387  0.4590590298175812  1.0000
  Ge  Ge2       1.0  0.3613024055957794  0.18336108326911926  0.4677084684371948  1.0000
  O   O1        1.0  0.9577851891517639  0.4671628475189209  0.9657414555549622  1.0000
  O   O2        1.0  0.46321749687194824  0.5304439663887024  0.26396062970161444  1.0000
  O   O3        1.0  0.7361170053482056  0.9577615261077881  0.5375627279281617  1.0000
  O   O4        1.0  0.9129578471183777  0.7625995874404907  0.3715175986289979  1.0000
  O   O5        1.0  0.459457665681839  0.7309174537658691  0.607855498790741  1.0000
  O   O6        1.0  0.5464483499526978  0.19484256207942963  0.9096521735191345  1.0000
  O   O7        1.0  0.45943954586982727  0.06545872986316681  0.24720542132854462  1.0000
  Pb  Pb1       1.0  0.8330422639846802  0.9366534352302551  0.4539672136306764  1.0000
