data_image0
_chemical_formula_structural       F4H3NNiZn3
_chemical_formula_sum              "F4 H3 N1 Ni1 Zn3"
_cell_length_a       4.857498977798353
_cell_length_b       4.746448116422516
_cell_length_c       8.123603820800781
_cell_angle_alpha    91.56010617134883
_cell_angle_beta     94.00136132484309
_cell_angle_gamma    139.80997042449252

_space_group_name_H-M_alt    "P 1"
_space_group_IT_number       1

loop_
  _space_group_symop_operation_xyz
  'x, y, z'

loop_
  _atom_site_type_symbol
  _atom_site_label
  _atom_site_symmetry_multiplicity
  _atom_site_fract_x
  _atom_site_fract_y
  _atom_site_fract_z
  _atom_site_occupancy
  F   F1        1.0  0.1379416137933732  0.7588467001914979  0.6172654032707214  1.0000
  F   F2        1.0  0.9415557384490967  0.522696316242218  0.6033098101615906  1.0000
  F   F3        1.0  0.5296830534934998  0.286285936832428  0.5273197889328003  1.0000
  F   F4        1.0  0.07410818338394173  0.7187946438789369  0.795444905757904  1.0000
  H   H1        1.0  0.544865369796753  0.7649672031402589  0.7657942771911621  1.0000
  H   H2        1.0  0.630604088306427  0.6733298897743225  0.16331930458545685  1.0000
  H   H3        1.0  0.605423629283905  0.3994822800159455  0.3231862783432007  1.0000
  N   N1        1.0  0.37967914342880255  0.36653116345405584  0.6673250794410706  1.0000
  Ni  Ni1       1.0  0.9290629625320435  0.6458871364593506  0.42727571725845337  1.0000
  Zn  Zn1       1.0  0.44064167141914373  0.9890605807304383  0.3398033678531647  1.0000
  Zn  Zn2       1.0  0.5489076375961305  0.711370348930359  0.671032726764679  1.0000
  Zn  Zn3       1.0  0.7604556679725647  0.34890800714492803  0.40347346663475037  1.0000
