data_image0
_chemical_formula_structural       F5H3Zn4
_chemical_formula_sum              "F5 H3 Zn4"
_cell_length_a       4.831999479303248
_cell_length_b       4.593079308785408
_cell_length_c       6.484238147735596
_cell_angle_alpha    90.67276641586251
_cell_angle_beta     91.26081016871736
_cell_angle_gamma    90.09101558225008

_space_group_name_H-M_alt    "P 1"
_space_group_IT_number       1

loop_
  _space_group_symop_operation_xyz
  'x, y, z'

loop_
  _atom_site_type_symbol
  _atom_site_label
  _atom_site_symmetry_multiplicity
  _atom_site_fract_x
  _atom_site_fract_y
  _atom_site_fract_z
  _atom_site_occupancy
  F   F1        1.0  0.11363554000854491  0.9475647211074829  0.9964070916175842  1.0000
  F   F2        1.0  0.11228305101394653  0.12390559911727905  0.4390130639076233  1.0000
  F   F3        1.0  0.12085502594709395  0.3560509979724884  0.8425495028495789  1.0000
  F   F4        1.0  0.09462723881006241  0.5287425518035889  0.027183406054973602  1.0000
  F   F5        1.0  0.6027294993400574  0.6397126317024231  0.20837552845478058  1.0000
  H   H1        1.0  0.6155984997749329  0.2505021393299103  0.9250722527503967  1.0000
  H   H2        1.0  0.6147310733795166  0.6257613897323608  0.46508127450942993  1.0000
  H   H3        1.0  0.6174734234809875  0.4593200087547302  0.3157934844493866  1.0000
  Zn  Zn1       1.0  0.11256556212902069  0.46097296476364136  0.7993427515029907  1.0000
  Zn  Zn2       1.0  0.11039712280035019  0.5808022022247314  0.5477195382118225  1.0000
  Zn  Zn3       1.0  0.11021173000335693  0.3835383653640747  0.8018522262573242  1.0000
  Zn  Zn4       1.0  0.6122263669967651  0.9426147937774658  0.9983280301094055  1.0000
