data_image0
_chemical_formula_structural       AlF4H5Zn2
_chemical_formula_sum              "Al1 F4 H5 Zn2"
_cell_length_a       4.721192442591335
_cell_length_b       4.817527500987396
_cell_length_c       5.9837141036987305
_cell_angle_alpha    85.42011968676027
_cell_angle_beta     87.16624388789008
_cell_angle_gamma    82.88093792034934

_space_group_name_H-M_alt    "P 1"
_space_group_IT_number       1

loop_
  _space_group_symop_operation_xyz
  'x, y, z'

loop_
  _atom_site_type_symbol
  _atom_site_label
  _atom_site_symmetry_multiplicity
  _atom_site_fract_x
  _atom_site_fract_y
  _atom_site_fract_z
  _atom_site_occupancy
  Al  Al1       1.0  0.42102909088134766  0.5403963327407837  0.6024202704429626  1.0000
  F   F1        1.0  0.9111668467521667  0.4421825408935547  0.989109694957733  1.0000
  F   F2        1.0  0.5408676266670227  0.5836824178695679  0.6832528710365295  1.0000
  F   F3        1.0  0.41718873381614685  0.8502383828163147  0.9392681121826172  1.0000
  F   F4        1.0  0.0891144871711731  0.6481837630271912  0.6254768967628479  1.0000
  H   H1        1.0  0.12819102406501773  0.9937250018119811  0.38415801525115967  1.0000
  H   H2        1.0  0.43403637409210205  0.776612401008606  0.9636163115501403  1.0000
  H   H3        1.0  0.16116316616535187  0.7591812014579773  0.6575795412063599  1.0000
  H   H4        1.0  0.6477718949317932  0.16309620440006256  0.05897994339466095  1.0000
  H   H5        1.0  0.8546146750450134  0.8405808210372925  0.5892513394355774  1.0000
  Zn  Zn1       1.0  0.9186134934425354  0.1861945241689682  0.42417508363723755  1.0000
  Zn  Zn2       1.0  0.41931775212287903  0.9822449684143065  0.9587822556495665  1.0000
