data_image0
_chemical_formula_structural       F3H3Zn4Zr2
_chemical_formula_sum              "F3 H3 Zn4 Zr2"
_cell_length_a       5.1112844150447065
_cell_length_b       4.975136617081369
_cell_length_c       7.498508930206299
_cell_angle_alpha    91.9410712783341
_cell_angle_beta     93.04008731291434
_cell_angle_gamma    110.70085007546814

_space_group_name_H-M_alt    "P 1"
_space_group_IT_number       1

loop_
  _space_group_symop_operation_xyz
  'x, y, z'

loop_
  _atom_site_type_symbol
  _atom_site_label
  _atom_site_symmetry_multiplicity
  _atom_site_fract_x
  _atom_site_fract_y
  _atom_site_fract_z
  _atom_site_occupancy
  F   F1        1.0  0.8393226265907288  0.11965098977088928  0.7598481774330139  1.0000
  F   F2        1.0  0.3256671726703644  0.9443429112434387  0.1274397224187851  1.0000
  F   F3        1.0  0.33191511034965515  0.31987521052360535  0.15539246797561646  1.0000
  H   H1        1.0  0.18034771084785461  0.4150668978691101  0.6883308291435242  1.0000
  H   H2        1.0  0.8441987037658691  0.8722456693649292  0.756320059299469  1.0000
  H   H3        1.0  0.8415372967720032  0.5485737323760986  0.3175705075263977  1.0000
  Zn  Zn1       1.0  0.8413074612617493  0.3696959614753723  0.5038514137268066  1.0000
  Zn  Zn2       1.0  0.3398497402667999  0.9436748027801514  0.4419694244861602  1.0000
  Zn  Zn3       1.0  0.342581570148468  0.041871946305036545  0.2014600932598114  1.0000
  Zn  Zn4       1.0  0.8417065739631653  0.37361493706703186  0.2739523947238922  1.0000
  Zr  Zr1       1.0  0.34843000769615173  0.4211888313293457  0.8150842189788818  1.0000
  Zr  Zr2       1.0  0.8499900698661804  0.2940118908882141  0.7760002017021179  1.0000
