data_image0
_chemical_formula_structural       F3H4IZn4
_chemical_formula_sum              "F3 H4 I1 Zn4"
_cell_length_a       4.847535759895336
_cell_length_b       4.940064191284378
_cell_length_c       5.493649005889893
_cell_angle_alpha    106.26607749753208
_cell_angle_beta     104.64822009098731
_cell_angle_gamma    91.68990955793127

_space_group_name_H-M_alt    "P 1"
_space_group_IT_number       1

loop_
  _space_group_symop_operation_xyz
  'x, y, z'

loop_
  _atom_site_type_symbol
  _atom_site_label
  _atom_site_symmetry_multiplicity
  _atom_site_fract_x
  _atom_site_fract_y
  _atom_site_fract_z
  _atom_site_occupancy
  F   F1        1.0  0.8827002048492432  0.732471764087677  0.026919329538941387  1.0000
  F   F2        1.0  0.3877827525138855  0.4715900123119354  0.49064588546752935  1.0000
  F   F3        1.0  0.3684104382991791  0.813915491104126  0.329446405172348  1.0000
  H   H1        1.0  0.3591693043708801  0.4854256212711334  0.3884792923927307  1.0000
  H   H2        1.0  0.36128056049346924  0.7628445029258728  0.4658565521240235  1.0000
  H   H3        1.0  0.36523452401161194  0.7053177356719971  0.3428475856781006  1.0000
  H   H4        1.0  0.8607977032661438  0.8291382789611816  0.7886273264884949  1.0000
  I   I1        1.0  0.3601817488670349  0.21510250866413116  0.410277932882309  1.0000
  Zn  Zn1       1.0  0.8589408993721008  0.9254307746887207  0.31498146057128906  1.0000
  Zn  Zn2       1.0  0.8576319217681885  0.49431872367858887  0.27147358655929565  1.0000
  Zn  Zn3       1.0  0.8588854074478149  0.6789325475692749  0.9042328000068666  1.0000
  Zn  Zn4       1.0  0.3521891236305237  0.2921636998653412  0.6109837293624878  1.0000
