data_image0
_chemical_formula_structural       Al3F4H3Zn2
_chemical_formula_sum              "Al3 F4 H3 Zn2"
_cell_length_a       4.49908668897825
_cell_length_b       4.347949278990359
_cell_length_c       5.12277889251709
_cell_angle_alpha    103.04649390857767
_cell_angle_beta     99.7621549412487
_cell_angle_gamma    90.69231771210782

_space_group_name_H-M_alt    "P 1"
_space_group_IT_number       1

loop_
  _space_group_symop_operation_xyz
  'x, y, z'

loop_
  _atom_site_type_symbol
  _atom_site_label
  _atom_site_symmetry_multiplicity
  _atom_site_fract_x
  _atom_site_fract_y
  _atom_site_fract_z
  _atom_site_occupancy
  Al  Al1       1.0  0.7685763239860535  0.11538887023925781  0.8769099712371826  1.0000
  Al  Al2       1.0  0.8185427784919739  0.08509968966245651  0.0665508434176445  1.0000
  Al  Al3       1.0  0.7322999238967896  0.5779178738594055  0.11334527283906937  1.0000
  F   F1        1.0  0.4279158115386963  0.06553754955530167  0.3076486885547638  1.0000
  F   F2        1.0  0.21277888119220734  0.9176968336105347  0.32811149954795843  1.0000
  F   F3        1.0  0.7585114240646362  0.2880898416042328  0.4783652424812317  1.0000
  F   F4        1.0  0.14787405729293823  0.6618722677230835  0.7682022452354431  1.0000
  H   H1        1.0  0.7929053902626038  0.27326640486717224  0.8013414144515991  1.0000
  H   H2        1.0  0.6624927520751953  0.46179306507110596  0.2663809657096863  1.0000
  H   H3        1.0  0.41332948207855225  0.7971821427345276  0.6102505326271057  1.0000
  Zn  Zn1       1.0  0.1718360036611557  0.1377553939819336  0.607995331287384  1.0000
  Zn  Zn2       1.0  0.17198464274406433  0.8193416595458984  0.9484257698059082  1.0000
