data_image0
_chemical_formula_structural       Pt2Si5
_chemical_formula_sum              "Pt2 Si5"
_cell_length_a       4.534136578749429
_cell_length_b       5.39772556420908
_cell_length_c       6.068357467651367
_cell_angle_alpha    108.65897521469138
_cell_angle_beta     109.19038020553485
_cell_angle_gamma    88.81233869187112

_space_group_name_H-M_alt    "P 1"
_space_group_IT_number       1

loop_
  _space_group_symop_operation_xyz
  'x, y, z'

loop_
  _atom_site_type_symbol
  _atom_site_label
  _atom_site_symmetry_multiplicity
  _atom_site_fract_x
  _atom_site_fract_y
  _atom_site_fract_z
  _atom_site_occupancy
  Pt  Pt1       1.0  0.15933211147785187  0.8459742665290833  0.8232685923576356  1.0000
  Pt  Pt2       1.0  0.16306915879249573  0.5082131028175354  0.5075464248657227  1.0000
  Si  Si1       1.0  0.6604897975921631  0.9857408404350281  0.5104352235794067  1.0000
  Si  Si2       1.0  0.6636353135108948  0.4849666953086853  0.008163152262568474  1.0000
  Si  Si3       1.0  0.43235325813293457  0.2653745412826538  0.2509264051914215  1.0000
  Si  Si4       1.0  0.15613821148872375  0.2365545630455017  0.5814037322998047  1.0000
  Si  Si5       1.0  0.670581042766571  0.18257169425487518  0.5111690759658813  1.0000
