data_image0
_chemical_formula_structural       Li2Se3Te4
_chemical_formula_sum              "Li2 Se3 Te4"
_cell_length_a       5.648872708799226
_cell_length_b       6.658174148709739
_cell_length_c       7.299067497253418
_cell_angle_alpha    108.61548005914234
_cell_angle_beta     99.47942036621394
_cell_angle_gamma    95.1437298938761

_space_group_name_H-M_alt    "P 1"
_space_group_IT_number       1

loop_
  _space_group_symop_operation_xyz
  'x, y, z'

loop_
  _atom_site_type_symbol
  _atom_site_label
  _atom_site_symmetry_multiplicity
  _atom_site_fract_x
  _atom_site_fract_y
  _atom_site_fract_z
  _atom_site_occupancy
  Li  Li1       1.0  0.4770033061504364  0.7094744443893433  0.4696756899356842  1.0000
  Li  Li2       1.0  0.929280161857605  0.23552359640598297  0.36605480313301086  1.0000
  Se  Se1       1.0  0.11895227432250977  0.4518531858921051  0.7782069444656372  1.0000
  Se  Se2       1.0  0.6444773077964783  0.008946685120463371  0.812004804611206  1.0000
  Se  Se3       1.0  0.4096430242061615  0.2826356291770935  0.34684714674949646  1.0000
  Te  Te1       1.0  0.5682660937309265  0.36803722381591797  0.7651189565658569  1.0000
  Te  Te2       1.0  0.04108697921037674  0.9252874851226807  0.6463004946708679  1.0000
  Te  Te3       1.0  0.21780440211296082  0.8426026701927185  0.0902460366487503  1.0000
  Te  Te4       1.0  0.8882991671562195  0.6942964792251587  0.26678916811943054  1.0000
