data_image0
_chemical_formula_structural       Br2GeLiNaSe2TeY
_chemical_formula_sum              "Br2 Ge1 Li1 Na1 Se2 Te1 Y1"
_cell_length_a       6.527951402531162
_cell_length_b       6.546908023951751
_cell_length_c       6.550083160400391
_cell_angle_alpha    90.1979503403022
_cell_angle_beta     90.22262202818538
_cell_angle_gamma    90.07278818265328

_space_group_name_H-M_alt    "P 1"
_space_group_IT_number       1

loop_
  _space_group_symop_operation_xyz
  'x, y, z'

loop_
  _atom_site_type_symbol
  _atom_site_label
  _atom_site_symmetry_multiplicity
  _atom_site_fract_x
  _atom_site_fract_y
  _atom_site_fract_z
  _atom_site_occupancy
  Br  Br1       1.0  0.3442552089691162  0.3091747760772705  0.2757742702960968  1.0000
  Br  Br2       1.0  0.6177951693534851  0.6220375299453735  0.5364704132080078  1.0000
  Ge  Ge1       1.0  0.17357657849788666  0.36915236711502075  0.7610386610031128  1.0000
  Li  Li1       1.0  0.7980283498764038  0.8143724799156189  0.8157193064689636  1.0000
  Na  Na1       1.0  0.2903791069984436  0.813202977180481  0.2618792951107025  1.0000
  Se  Se1       1.0  0.002732406137511134  0.5741220116615295  0.018093831837177277  1.0000
  Se  Se2       1.0  0.6143958568572998  0.020202025771141052  0.015785740688443184  1.0000
  Te  Te1       1.0  0.01085123885422945  0.034348633140325546  0.5506424903869629  1.0000
  Y   Y1        1.0  0.7885614037513733  0.31308022141456604  0.26336100697517395  1.0000
