data_image0
_chemical_formula_structural       Li3Se3Te3
_chemical_formula_sum              "Li3 Se3 Te3"
_cell_length_a       6.29780828491922
_cell_length_b       6.42568168778995
_cell_length_c       6.931418418884277
_cell_angle_alpha    81.8611644347399
_cell_angle_beta     73.42391378974894
_cell_angle_gamma    61.408508201910834

_space_group_name_H-M_alt    "P 1"
_space_group_IT_number       1

loop_
  _space_group_symop_operation_xyz
  'x, y, z'

loop_
  _atom_site_type_symbol
  _atom_site_label
  _atom_site_symmetry_multiplicity
  _atom_site_fract_x
  _atom_site_fract_y
  _atom_site_fract_z
  _atom_site_occupancy
  Li  Li1       1.0  0.9101476669311523  0.1475878804922104  0.4274766147136688  1.0000
  Li  Li2       1.0  0.15093860030174255  0.28648754954338074  0.8246810436248779  1.0000
  Li  Li3       1.0  0.4248778522014618  0.6818183064460754  0.8582131266593933  1.0000
  Se  Se1       1.0  0.08600390702486038  0.9501187801361084  0.08312848955392836  1.0000
  Se  Se2       1.0  0.5786446332931519  0.26482996344566345  0.7685502767562866  1.0000
  Se  Se3       1.0  0.3114863336086273  0.9764615893363953  0.5353754758834838  1.0000
  Te  Te1       1.0  0.899228572845459  0.5746050477027893  0.5353003144264221  1.0000
  Te  Te2       1.0  0.7259456515312195  0.5687097311019897  0.17887051403522491  1.0000
  Te  Te3       1.0  0.4826980233192444  0.1856323480606079  0.1854977011680603  1.0000
