data_image0
_chemical_formula_structural       ErFLiNNaSeTe2Y
_chemical_formula_sum              "Er1 F1 Li1 N1 Na1 Se1 Te2 Y1"
_cell_length_a       6.152857873747723
_cell_length_b       6.151269520579643
_cell_length_c       6.128794193267822
_cell_angle_alpha    92.90431044364642
_cell_angle_beta     92.30906496266591
_cell_angle_gamma    92.21601369149116

_space_group_name_H-M_alt    "P 1"
_space_group_IT_number       1

loop_
  _space_group_symop_operation_xyz
  'x, y, z'

loop_
  _atom_site_type_symbol
  _atom_site_label
  _atom_site_symmetry_multiplicity
  _atom_site_fract_x
  _atom_site_fract_y
  _atom_site_fract_z
  _atom_site_occupancy
  Er  Er1       1.0  0.3048528730869293  0.13595837354660034  0.9767075777053833  1.0000
  F   F1        1.0  0.4667152762413025  0.0447094589471817  0.2678573429584503  1.0000
  Li  Li1       1.0  0.9569395780563354  0.7249221801757812  0.9040869474411011  1.0000
  N   N1        1.0  0.04619988054037094  0.9538852572441101  0.12153220921754837  1.0000
  Na  Na1       1.0  0.24077995121479034  0.7223833799362183  0.3682149648666382  1.0000
  Se  Se1       1.0  0.08852650225162506  0.3710801303386688  0.6523145437240601  1.0000
  Te  Te1       1.0  0.5952630043029785  0.8706077337265015  0.7020463347434998  1.0000
  Te  Te2       1.0  0.6623259782791138  0.497687429189682  0.12872937321662903  1.0000
  Y   Y1        1.0  0.8321405649185181  0.10969246178865433  0.317819744348526  1.0000
