data_image0
_chemical_formula_structural       AlHNi3Sc5Si
_chemical_formula_sum              "Al1 H1 Ni3 Sc5 Si1"
_cell_length_a       4.296404114297987
_cell_length_b       6.811610716926735
_cell_length_c       6.7319841384887695
_cell_angle_alpha    120.01765869456514
_cell_angle_beta     88.55748203765677
_cell_angle_gamma    88.52223332493088

_space_group_name_H-M_alt    "P 1"
_space_group_IT_number       1

loop_
  _space_group_symop_operation_xyz
  'x, y, z'

loop_
  _atom_site_type_symbol
  _atom_site_label
  _atom_site_symmetry_multiplicity
  _atom_site_fract_x
  _atom_site_fract_y
  _atom_site_fract_z
  _atom_site_occupancy
  Al  Al1       1.0  0.47278809547424316  0.9434937238693237  0.3816631436347961  1.0000
  H   H1        1.0  0.9726380705833435  0.685697078704834  0.3584549725055695  1.0000
  Ni  Ni1       1.0  0.47800788283348083  0.951534628868103  0.9200326800346373  1.0000
  Ni  Ni2       1.0  0.4765091836452484  0.2622531056404114  0.6511620283126831  1.0000
  Ni  Ni3       1.0  0.9810817837715149  0.17798162996768951  0.2128432989120483  1.0000
  Sc  Sc1       1.0  0.9748161435127258  0.22352169454097748  0.38135221600532526  1.0000
  Sc  Sc2       1.0  0.4781867563724518  0.19352346658706665  0.47480067610740656  1.0000
  Sc  Sc3       1.0  0.9637638330459595  0.6737155318260193  0.09284798055887222  1.0000
  Sc  Sc4       1.0  0.977919340133667  0.42281562089920044  0.20381394028663638  1.0000
  Sc  Sc5       1.0  0.4747743606567383  0.8781765699386597  0.6504277586936951  1.0000
  Si  Si1       1.0  0.9751720428466797  0.6729634404182434  0.3590272068977356  1.0000
