data_image0
_chemical_formula_structural       AlHNi4Sc4Si
_chemical_formula_sum              "Al1 H1 Ni4 Sc4 Si1"
_cell_length_a       4.212974366558683
_cell_length_b       6.074390082724641
_cell_length_c       7.632519721984863
_cell_angle_alpha    101.53274681978013
_cell_angle_beta     95.5564032906572
_cell_angle_gamma    95.7169340338286

_space_group_name_H-M_alt    "P 1"
_space_group_IT_number       1

loop_
  _space_group_symop_operation_xyz
  'x, y, z'

loop_
  _atom_site_type_symbol
  _atom_site_label
  _atom_site_symmetry_multiplicity
  _atom_site_fract_x
  _atom_site_fract_y
  _atom_site_fract_z
  _atom_site_occupancy
  Al  Al1       1.0  0.08795557916164398  0.6966439485549927  0.09770686179399492  1.0000
  H   H1        1.0  0.9132033586502075  0.972111999988556  0.9767757058143616  1.0000
  Ni  Ni1       1.0  0.15592966973781586  0.21014089882373813  0.5261881351470947  1.0000
  Ni  Ni2       1.0  0.18519973754882812  0.6964210867881775  0.8681774139404297  1.0000
  Ni  Ni3       1.0  0.6181552410125732  0.71168053150177  0.5551007986068726  1.0000
  Ni  Ni4       1.0  0.9398986101150513  0.9695065617561341  0.013077808544039756  1.0000
  Sc  Sc1       1.0  0.5994086265563965  0.2155142575502396  0.8858753442764282  1.0000
  Sc  Sc2       1.0  0.33351650834083557  0.9715108275413514  0.920181155204773  1.0000
  Sc  Sc3       1.0  0.9123843312263489  0.7248324751853944  0.6505582332611084  1.0000
  Sc  Sc4       1.0  0.8331912755966187  0.4666860401630402  0.6544296741485596  1.0000
  Si  Si1       1.0  0.1282361000776291  0.2172014117240906  0.5802901387214661  1.0000
