data_image0
_chemical_formula_structural       Al2HNi3Sc4Si
_chemical_formula_sum              "Al2 H1 Ni3 Sc4 Si1"
_cell_length_a       4.955581471735334
_cell_length_b       6.50914640581383
_cell_length_c       6.822519302368164
_cell_angle_alpha    118.53959389300105
_cell_angle_beta     100.00017567078201
_cell_angle_gamma    89.50222527233434

_space_group_name_H-M_alt    "P 1"
_space_group_IT_number       1

loop_
  _space_group_symop_operation_xyz
  'x, y, z'

loop_
  _atom_site_type_symbol
  _atom_site_label
  _atom_site_symmetry_multiplicity
  _atom_site_fract_x
  _atom_site_fract_y
  _atom_site_fract_z
  _atom_site_occupancy
  Al  Al1       1.0  0.3495476543903351  0.2620096504688263  0.6404251456260681  1.0000
  Al  Al2       1.0  0.8020485043525696  0.6591419577598572  0.5538699626922607  1.0000
  H   H1        1.0  0.490073025226593  0.37774527072906494  0.14416004717350006  1.0000
  Ni  Ni1       1.0  0.1606961339712143  0.40431976318359375  0.8652112483978271  1.0000
  Ni  Ni2       1.0  0.5820261240005493  0.016168836504220963  0.9339718818664551  1.0000
  Ni  Ni3       1.0  0.8094863295555115  0.8907397985458373  0.12001359462738044  1.0000
  Sc  Sc1       1.0  0.8394830822944641  0.36866745352745056  0.6551263928413391  1.0000
  Sc  Sc2       1.0  0.8275147676467896  0.8382772207260131  0.30218279361724854  1.0000
  Sc  Sc3       1.0  0.3354647755622864  0.9658965468406676  0.40093404054641724  1.0000
  Sc  Sc4       1.0  0.9939935207366944  0.38045868277549744  0.10869015753269196  1.0000
  Si  Si1       1.0  0.5054675340652466  0.6645241379737854  0.41031092405319225  1.0000
