data_image0
_chemical_formula_structural       Al3HNi4Sc3
_chemical_formula_sum              "Al3 H1 Ni4 Sc3"
_cell_length_a       5.097025391330159
_cell_length_b       5.770905872977404
_cell_length_c       6.175820350646973
_cell_angle_alpha    108.06652214146267
_cell_angle_beta     104.81133378790712
_cell_angle_gamma    107.21884355126045

_space_group_name_H-M_alt    "P 1"
_space_group_IT_number       1

loop_
  _space_group_symop_operation_xyz
  'x, y, z'

loop_
  _atom_site_type_symbol
  _atom_site_label
  _atom_site_symmetry_multiplicity
  _atom_site_fract_x
  _atom_site_fract_y
  _atom_site_fract_z
  _atom_site_occupancy
  Al  Al1       1.0  0.9827421307563781  0.5988267660140991  0.04785962030291557  1.0000
  Al  Al2       1.0  0.4038797616958618  0.6110500693321228  0.5435179471969604  1.0000
  Al  Al3       1.0  0.7228479981422424  0.9257586002349854  0.3108270466327667  1.0000
  H   H1        1.0  0.6699174642562866  0.5943533778190613  0.0382307767868042  1.0000
  Ni  Ni1       1.0  0.09953908622264862  0.20577873289585114  0.7733666896820068  1.0000
  Ni  Ni2       1.0  0.1149025484919548  0.9058505892753601  0.7858152985572815  1.0000
  Ni  Ni3       1.0  0.014861361123621462  0.24420404434204102  0.9860139489173889  1.0000
  Ni  Ni4       1.0  0.22856184840202332  0.9203053116798401  0.640566349029541  1.0000
  Sc  Sc1       1.0  0.2343563288450241  0.7851473093032837  0.272584468126297  1.0000
  Sc  Sc2       1.0  0.45713451504707336  0.0933225005865097  0.03335278853774069  1.0000
  Sc  Sc3       1.0  0.749998152256012  0.2750755250453949  0.22890111804008484  1.0000
