data_image0
_chemical_formula_structural       Al5Ni3Sc3
_chemical_formula_sum              "Al5 Ni3 Sc3"
_cell_length_a       5.106407368125109
_cell_length_b       5.8529994530222975
_cell_length_c       6.114083766937256
_cell_angle_alpha    66.86519697220413
_cell_angle_beta     62.26697548451684
_cell_angle_gamma    61.0981124127677

_space_group_name_H-M_alt    "P 1"
_space_group_IT_number       1

loop_
  _space_group_symop_operation_xyz
  'x, y, z'

loop_
  _atom_site_type_symbol
  _atom_site_label
  _atom_site_symmetry_multiplicity
  _atom_site_fract_x
  _atom_site_fract_y
  _atom_site_fract_z
  _atom_site_occupancy
  Al  Al1       1.0  0.5244198441505432  0.3621845543384552  0.8985716104507447  1.0000
  Al  Al2       1.0  0.8912588953971863  0.33239060640335083  0.6109815239906311  1.0000
  Al  Al3       1.0  0.11803379654884338  0.38062578439712524  0.36204010248184204  1.0000
  Al  Al4       1.0  0.5165214538574219  0.015207074582576752  0.6398111581802368  1.0000
  Al  Al5       1.0  0.7398233413696289  0.7132536768913269  0.13929632306098938  1.0000
  Ni  Ni1       1.0  0.13037177920341492  0.6806887984275818  0.39984431862831116  1.0000
  Ni  Ni2       1.0  0.6553213596343994  0.7625629901885986  0.4457839727401734  1.0000
  Ni  Ni3       1.0  0.7758849859237671  0.4277307987213135  0.8709274530410768  1.0000
  Sc  Sc1       1.0  0.8735498189926147  0.3296222686767578  0.13453033566474915  1.0000
  Sc  Sc2       1.0  0.12845103442668915  0.05063069239258766  0.3194255232810974  1.0000
  Sc  Sc3       1.0  0.8651111125946045  0.8250646591186523  0.6402506232261658  1.0000
