data_image0
_chemical_formula_structural       Al4Ni3Sc4
_chemical_formula_sum              "Al4 Ni3 Sc4"
_cell_length_a       5.2065533011763465
_cell_length_b       5.700526075301569
_cell_length_c       6.264619827270508
_cell_angle_alpha    65.72794104315538
_cell_angle_beta     63.87935472321038
_cell_angle_gamma    57.861656556017785

_space_group_name_H-M_alt    "P 1"
_space_group_IT_number       1

loop_
  _space_group_symop_operation_xyz
  'x, y, z'

loop_
  _atom_site_type_symbol
  _atom_site_label
  _atom_site_symmetry_multiplicity
  _atom_site_fract_x
  _atom_site_fract_y
  _atom_site_fract_z
  _atom_site_occupancy
  Al  Al1       1.0  0.6952361464500427  0.363141804933548  0.9525205492973328  1.0000
  Al  Al2       1.0  0.15252195298671722  0.34035566449165344  0.5646910667419434  1.0000
  Al  Al3       1.0  0.5112807750701905  0.9817107319831847  0.7871541380882263  1.0000
  Al  Al4       1.0  0.5918254256248474  0.09415563941001892  0.8376606702804565  1.0000
  Ni  Ni1       1.0  0.27768245339393616  0.052569057792425156  0.8997568488121033  1.0000
  Ni  Ni2       1.0  0.9071248769760132  0.005212992429733276  0.9747034907341003  1.0000
  Ni  Ni3       1.0  0.9289312958717346  0.993679642677307  0.4812208116054535  1.0000
  Sc  Sc1       1.0  0.9517104625701904  0.44157904386520386  0.11698873341083527  1.0000
  Sc  Sc2       1.0  0.55810546875  0.46623650193214417  0.3834177851676941  1.0000
  Sc  Sc3       1.0  0.31088435649871826  0.9222000241279602  0.5188143253326416  1.0000
  Sc  Sc4       1.0  0.2947358191013336  0.9162763357162476  0.13238784670829773  1.0000
