data_image0
_chemical_formula_structural       Ba3DyGeVZn
_chemical_formula_sum              "Ba3 Dy1 Ge1 V1 Zn1"
_cell_length_a       5.775338169135739
_cell_length_b       5.958125769807205
_cell_length_c       8.144904136657715
_cell_angle_alpha    109.33362742324502
_cell_angle_beta     107.69402605846739
_cell_angle_gamma    109.92302840329704

_space_group_name_H-M_alt    "P 1"
_space_group_IT_number       1

loop_
  _space_group_symop_operation_xyz
  'x, y, z'

loop_
  _atom_site_type_symbol
  _atom_site_label
  _atom_site_symmetry_multiplicity
  _atom_site_fract_x
  _atom_site_fract_y
  _atom_site_fract_z
  _atom_site_occupancy
  Ba  Ba1       1.0  0.5588938593864441  0.9260448217391968  0.2043243944644928  1.0000
  Ba  Ba2       1.0  0.4056122303009033  0.7591825723648071  0.5554115176200867  1.0000
  Ba  Ba3       1.0  0.8965083360671997  0.26143670082092285  0.5070350766181946  1.0000
  Dy  Dy1       1.0  0.4084775149822235  0.6905925869941711  0.2226259857416153  1.0000
  Ge  Ge1       1.0  0.051961496472358704  0.8297059535980225  0.20508897304534915  1.0000
  V   V1        1.0  0.06376146525144577  0.8528966903686523  0.3202348053455353  1.0000
  Zn  Zn1       1.0  0.05451080948114395  0.3287074565887451  0.7302253246307373  1.0000
