data_image0
_chemical_formula_structural       CaF5KMo2O7
_chemical_formula_sum              "Ca1 F5 K1 Mo2 O7"
_cell_length_a       6.750229914040834
_cell_length_b       6.764434391490992
_cell_length_c       6.949631214141846
_cell_angle_alpha    107.68735664060951
_cell_angle_beta     108.38293582488505
_cell_angle_gamma    112.04393210674651

_space_group_name_H-M_alt    "P 1"
_space_group_IT_number       1

loop_
  _space_group_symop_operation_xyz
  'x, y, z'

loop_
  _atom_site_type_symbol
  _atom_site_label
  _atom_site_symmetry_multiplicity
  _atom_site_fract_x
  _atom_site_fract_y
  _atom_site_fract_z
  _atom_site_occupancy
  Ca  Ca1       1.0  0.2689113914966583  0.7559236288070679  0.12190028280019753  1.0000
  F   F1        1.0  0.7628692388534546  0.22506362199783328  0.004433154594153198  1.0000
  F   F2        1.0  0.4317189157009124  0.021232029423117638  0.2525991201400757  1.0000
  F   F3        1.0  0.6197912096977234  0.5290272831916809  0.8480256199836731  1.0000
  F   F4        1.0  0.24978707730770108  0.5181121230125427  0.642721951007843  1.0000
  F   F5        1.0  0.12835989892482758  0.5301827192306519  0.8436790108680725  1.0000
  K   K1        1.0  0.7619941234588623  0.7507691979408264  0.5816593170166016  1.0000
  Mo  Mo1       1.0  0.08903718739748001  0.016730228438973427  0.628552258014679  1.0000
  Mo  Mo2       1.0  0.7606091499328613  0.24924303591251376  0.37963780760765076  1.0000
  O   O1        1.0  0.1773847490549088  0.8367531299591066  0.920324444770813  1.0000
  O   O2        1.0  0.4771829545497895  0.7846839427947999  0.637312650680542  1.0000
  O   O3        1.0  0.17599721252918243  0.17448723316192627  0.3811877369880676  1.0000
  O   O4        1.0  0.9845148921012877  0.9548803567886354  0.14784733951091766  1.0000
  O   O5        1.0  0.8983576893806456  0.05358789861202241  0.0030058594420552254  1.0000
  O   O6        1.0  0.6017339825630188  0.4343139529228211  0.14703404903411865  1.0000
  O   O7        1.0  0.48447087407112116  0.27165696024894714  0.6423045992851257  1.0000
