data_image0
_chemical_formula_structural       F5K2Mo2O6Pd
_chemical_formula_sum              "F5 K2 Mo2 O6 Pd1"
_cell_length_a       6.343274810051203
_cell_length_b       6.52634649097922
_cell_length_c       7.023234844207764
_cell_angle_alpha    65.55815842502503
_cell_angle_beta     64.27972935983782
_cell_angle_gamma    63.69197219714339

_space_group_name_H-M_alt    "P 1"
_space_group_IT_number       1

loop_
  _space_group_symop_operation_xyz
  'x, y, z'

loop_
  _atom_site_type_symbol
  _atom_site_label
  _atom_site_symmetry_multiplicity
  _atom_site_fract_x
  _atom_site_fract_y
  _atom_site_fract_z
  _atom_site_occupancy
  F   F1        1.0  0.9236500263214111  0.0544993095099926  0.6266137957572936  1.0000
  F   F2        1.0  0.9108724594116211  0.9090467691421509  0.2889068126678466  1.0000
  F   F3        1.0  0.6490979790687561  0.24212202429771423  0.990351915359497  1.0000
  F   F4        1.0  0.6160889863967896  0.41648364067077637  0.5076266527175903  1.0000
  F   F5        1.0  0.8696262836456299  0.2799464762210846  0.9773462414741515  1.0000
  K   K1        1.0  0.6575286388397217  0.7481727600097656  0.7303840517997741  1.0000
  K   K2        1.0  0.9795664548873901  0.2550968527793884  0.11960186809301375  1.0000
  Mo  Mo1       1.0  0.07306720316410065  0.7614579796791077  0.4894104897975921  1.0000
  Mo  Mo2       1.0  0.412604421377182  0.41244110465049744  0.31419220566749567  1.0000
  O   O1        1.0  0.14906424283981323  0.1460319608449936  0.479817509651184  1.0000
  O   O2        1.0  0.6814669370651245  0.7479623556137085  0.7368952631950377  1.0000
  O   O3        1.0  0.10158239305019379  0.4025169909000397  0.976978302001953  1.0000
  O   O4        1.0  0.6719493865966797  0.7662244439125061  0.11543471366167067  1.0000
  O   O5        1.0  0.27412497997283936  0.4034017324447632  0.7875177860260009  1.0000
  O   O6        1.0  0.27609291672706604  0.10274843871593475  0.2260264307260513  1.0000
  Pd  Pd1       1.0  0.4391511380672455  0.9076589941978455  0.7786597609519957  1.0000
