data_image0
_chemical_formula_structural       F4Mo5O7
_chemical_formula_sum              "F4 Mo5 O7"
_cell_length_a       4.055155140149695
_cell_length_b       7.672436167415472
_cell_length_c       7.961645603179932
_cell_angle_alpha    119.0610490702569
_cell_angle_beta     88.2530383397943
_cell_angle_gamma    90.15460362843059

_space_group_name_H-M_alt    "P 1"
_space_group_IT_number       1

loop_
  _space_group_symop_operation_xyz
  'x, y, z'

loop_
  _atom_site_type_symbol
  _atom_site_label
  _atom_site_symmetry_multiplicity
  _atom_site_fract_x
  _atom_site_fract_y
  _atom_site_fract_z
  _atom_site_occupancy
  F   F1        1.0  0.3456254303455353  0.16275756061077118  0.4891022145748139  1.0000
  F   F2        1.0  0.8439624309539795  0.4740073084831238  0.16158016026020053  1.0000
  F   F3        1.0  0.8426085710525513  0.25327807664871216  0.13161359727382663  1.0000
  F   F4        1.0  0.34294265508651733  0.7919113636016846  0.9519633650779725  1.0000
  Mo  Mo1       1.0  0.836557149887085  0.7391869425773621  0.877442240715027  1.0000
  Mo  Mo2       1.0  0.33883851766586304  0.9132483601570129  0.0094622103497386  1.0000
  Mo  Mo3       1.0  0.3423888385295868  0.4286981523036957  0.40620255470275884  1.0000
  Mo  Mo4       1.0  0.8435287475585938  0.437120258808136  0.5414398312568666  1.0000
  Mo  Mo5       1.0  0.8338929414749146  0.4697253108024597  0.3872834742069245  1.0000
  O   O1        1.0  0.830643892288208  0.41568702459335327  0.030621916055679325  1.0000
  O   O2        1.0  0.8279789090156555  0.5345974564552307  0.3082633018493653  1.0000
  O   O3        1.0  0.34222206473350525  0.44148626923561096  0.5860087275505067  1.0000
  O   O4        1.0  0.8438717126846313  0.021707110106945038  0.3905633985996247  1.0000
  O   O5        1.0  0.33204329013824463  0.2385452836751938  0.9710025787353517  1.0000
  O   O6        1.0  0.33353909850120544  0.3156587779521942  0.6396247744560243  1.0000
  O   O7        1.0  0.8514280319213867  0.20284032821655273  0.19551005959510806  1.0000
