data_image0
_chemical_formula_structural       F5KMoO7PtV
_chemical_formula_sum              "F5 K1 Mo1 O7 Pt1 V1"
_cell_length_a       5.660774435677979
_cell_length_b       5.337987923367305
_cell_length_c       5.922330856323242
_cell_angle_alpha    63.77581197150872
_cell_angle_beta     63.23889883748158
_cell_angle_gamma    61.92000461685707

_space_group_name_H-M_alt    "P 1"
_space_group_IT_number       1

loop_
  _space_group_symop_operation_xyz
  'x, y, z'

loop_
  _atom_site_type_symbol
  _atom_site_label
  _atom_site_symmetry_multiplicity
  _atom_site_fract_x
  _atom_site_fract_y
  _atom_site_fract_z
  _atom_site_occupancy
  F   F1        1.0  0.30973029136657715  0.8133149743080139  0.27684909105300903  1.0000
  F   F2        1.0  0.4854832589626312  0.062314365059137344  0.09275817871093751  1.0000
  F   F3        1.0  0.5592970252037048  0.2330930083990097  0.7978927493095399  1.0000
  F   F4        1.0  0.5648339986801147  0.6046578884124756  0.33087220788002014  1.0000
  F   F5        1.0  0.9858060479164124  0.006702049635350704  0.4688651263713837  1.0000
  K   K1        1.0  0.3303773105144501  0.5806864500045776  0.4838109910488129  1.0000
  Mo  Mo1       1.0  0.7585790157318115  0.7560302019119263  0.17432914674282074  1.0000
  O   O1        1.0  0.8233828544616699  0.05250159278512001  0.5931538939476013  1.0000
  O   O2        1.0  0.6582645773887634  0.2978169918060303  0.0913638547062874  1.0000
  O   O3        1.0  0.8560007810592651  0.79448002576828  0.5314890742301941  1.0000
  O   O4        1.0  0.23717600107192993  0.027454223483800888  0.17274054884910583  1.0000
  O   O5        1.0  0.8540230989456177  0.3281102776527405  0.5437430143356323  1.0000
  O   O6        1.0  0.68426114320755  0.5241184234619141  0.24340128898620608  1.0000
  O   O7        1.0  0.19791072607040405  0.032494571059942245  0.8208104372024537  1.0000
  Pt  Pt1       1.0  0.6679903268814087  0.5427796840667725  0.7911705970764161  1.0000
  V   V1        1.0  0.7633870840072632  0.7473062872886658  0.7694875597953797  1.0000
