data_image0
_chemical_formula_structural       F6KO8V
_chemical_formula_sum              "F6 K1 O8 V1"
_cell_length_a       6.350710481328037
_cell_length_b       6.404094307719134
_cell_length_c       7.08417272567749
_cell_angle_alpha    104.7581841178878
_cell_angle_beta     105.35834728964261
_cell_angle_gamma    113.0379353903036

_space_group_name_H-M_alt    "P 1"
_space_group_IT_number       1

loop_
  _space_group_symop_operation_xyz
  'x, y, z'

loop_
  _atom_site_type_symbol
  _atom_site_label
  _atom_site_symmetry_multiplicity
  _atom_site_fract_x
  _atom_site_fract_y
  _atom_site_fract_z
  _atom_site_occupancy
  F   F1        1.0  0.012698724865913391  0.1451137661933899  0.9578549265861511  1.0000
  F   F2        1.0  0.7171149253845215  0.88840252161026  0.20604540407657623  1.0000
  F   F3        1.0  0.015755001455545425  0.1552649736404419  0.25129833817481995  1.0000
  F   F4        1.0  0.2628325819969177  0.6709555387496948  0.7530149221420288  1.0000
  F   F5        1.0  0.2481638491153717  0.41955822706222534  0.6954782009124756  1.0000
  F   F6        1.0  0.5216794610023499  0.16954851150512695  0.9801892638206482  1.0000
  K   K1        1.0  0.8946722745895386  0.8884966969490051  0.629867672920227  1.0000
  O   O1        1.0  0.8719562292098999  0.6512175798416138  0.6302263140678406  1.0000
  O   O2        1.0  0.22498534619808197  0.6696783900260925  0.956791877746582  1.0000
  O   O3        1.0  0.38808903098106384  0.9037144184112549  0.5073671936988831  1.0000
  O   O4        1.0  0.5661973357200623  0.7134274244308472  0.7336064577102661  1.0000
  O   O5        1.0  0.8687692284584045  0.13113871216773987  0.5266921520233154  1.0000
  O   O6        1.0  0.03817130625247955  0.14019982516765594  0.13037621974945068  1.0000
  O   O7        1.0  0.2810443639755249  0.17441537976264954  0.746039867401123  1.0000
  O   O8        1.0  0.8629938960075378  0.16447056829929352  0.4745739996433258  1.0000
  V   V1        1.0  0.5153223276138306  0.4749933183193207  0.9759435057640076  1.0000
