data_image0
_chemical_formula_structural       BF3Mo3NaO8
_chemical_formula_sum              "B1 F3 Mo3 Na1 O8"
_cell_length_a       4.805983918074088
_cell_length_b       6.496845161557731
_cell_length_c       7.17012357711792
_cell_angle_alpha    111.9533881564971
_cell_angle_beta     89.58704239716106
_cell_angle_gamma    126.1222670480518

_space_group_name_H-M_alt    "P 1"
_space_group_IT_number       1

loop_
  _space_group_symop_operation_xyz
  'x, y, z'

loop_
  _atom_site_type_symbol
  _atom_site_label
  _atom_site_symmetry_multiplicity
  _atom_site_fract_x
  _atom_site_fract_y
  _atom_site_fract_z
  _atom_site_occupancy
  B   B1        1.0  0.8838818073272705  0.9028460979461669  0.4747633337974548  1.0000
  F   F1        1.0  0.9510992765426636  0.7192546129226685  0.6516278386116028  1.0000
  F   F2        1.0  0.30785226821899414  0.009600254707038403  0.5346788167953491  1.0000
  F   F3        1.0  0.29797425866127014  0.3236601650714874  0.6479074358940125  1.0000
  Mo  Mo1       1.0  0.6687577962875366  0.6420161724090576  0.3232114911079407  1.0000
  Mo  Mo2       1.0  0.5538091063499451  0.5335264205932617  0.5612821578979492  1.0000
  Mo  Mo3       1.0  0.9879317283630371  0.39947038888931274  0.9175705909729004  1.0000
  Na  Na1       1.0  0.23802229762077332  0.4242081940174103  0.9116549491882324  1.0000
  O   O1        1.0  0.823921263217926  0.5438876152038574  0.33852967619895935  1.0000
  O   O2        1.0  0.26579028367996216  0.5198038816452026  0.41709697246551514  1.0000
  O   O3        1.0  0.5185323357582092  0.8341718912124634  0.9640440940856932  1.0000
  O   O4        1.0  0.3584429621696472  0.721474826335907  0.3154198229312897  1.0000
  O   O5        1.0  0.7831183075904846  0.5197980999946594  0.7281791567802429  1.0000
  O   O6        1.0  0.8016924262046814  0.049389615654945374  0.25665709376335144  1.0000
  O   O7        1.0  0.8283723592758178  0.9651495814323424  0.05053000897169107  1.0000
  O   O8        1.0  0.4236057698726654  0.30433720350265503  0.46573102474212646  1.0000
