data_image0
_chemical_formula_structural       CCdSc3Si2
_chemical_formula_sum              "C1 Cd1 Sc3 Si2"
_cell_length_a       4.986086230022871
_cell_length_b       5.3584829128510005
_cell_length_c       7.07214879989624
_cell_angle_alpha    110.7166065671807
_cell_angle_beta     104.06013399376408
_cell_angle_gamma    88.0356711966788

_space_group_name_H-M_alt    "P 1"
_space_group_IT_number       1

loop_
  _space_group_symop_operation_xyz
  'x, y, z'

loop_
  _atom_site_type_symbol
  _atom_site_label
  _atom_site_symmetry_multiplicity
  _atom_site_fract_x
  _atom_site_fract_y
  _atom_site_fract_z
  _atom_site_occupancy
  C   C1        1.0  0.43397194147109985  0.6783137321472168  0.7131155133247375  1.0000
  Cd  Cd1       1.0  0.9792906045913696  0.5047785043716431  0.6627510190010071  1.0000
  Sc  Sc1       1.0  0.6067441701889038  0.9720219969749451  0.026505043730139736  1.0000
  Sc  Sc2       1.0  0.4543183743953705  0.1737198382616043  0.4366022348403931  1.0000
  Sc  Sc3       1.0  0.42088475823402405  0.6122084856033325  0.70357745885849  1.0000
  Si  Si1       1.0  0.9429445862770081  0.1535293161869049  0.8050488829612733  1.0000
  Si  Si2       1.0  0.10289427638053894  0.538943886756897  0.05459334328770638  1.0000
