data_image0
_chemical_formula_structural       Cd2SSc3Si
_chemical_formula_sum              "Cd2 S1 Sc3 Si1"
_cell_length_a       5.130660644870568
_cell_length_b       5.6129371295057995
_cell_length_c       6.957796573638916
_cell_angle_alpha    113.84381509368166
_cell_angle_beta     105.5852952576808
_cell_angle_gamma    90.52906593594949

_space_group_name_H-M_alt    "P 1"
_space_group_IT_number       1

loop_
  _space_group_symop_operation_xyz
  'x, y, z'

loop_
  _atom_site_type_symbol
  _atom_site_label
  _atom_site_symmetry_multiplicity
  _atom_site_fract_x
  _atom_site_fract_y
  _atom_site_fract_z
  _atom_site_occupancy
  Cd  Cd1       1.0  0.16542162001132965  0.5760113000869751  0.672045111656189  1.0000
  Cd  Cd2       1.0  0.206961527466774  0.19693847000598907  0.6809098124504089  1.0000
  S   S1        1.0  0.4756350517272949  0.2673841118812561  0.42855751514434814  1.0000
  Sc  Sc1       1.0  0.2738054692745209  0.6029502153396606  0.8555589318275452  1.0000
  Sc  Sc2       1.0  0.8826665878295898  0.1449565887451172  0.36764487624168396  1.0000
  Sc  Sc3       1.0  0.6746285557746887  0.6027809381484985  0.6775239109992981  1.0000
  Si  Si1       1.0  0.139632910490036  0.8384847044944763  0.30818092823028564  1.0000
