data_image0
_chemical_formula_structural       H5NO2U3
_chemical_formula_sum              "H5 N1 O2 U3"
_cell_length_a       5.607545550535882
_cell_length_b       5.570238276488978
_cell_length_c       5.573600769042969
_cell_angle_alpha    107.64147549137823
_cell_angle_beta     102.3016964896238
_cell_angle_gamma    112.33850090093571

_space_group_name_H-M_alt    "P 1"
_space_group_IT_number       1

loop_
  _space_group_symop_operation_xyz
  'x, y, z'

loop_
  _atom_site_type_symbol
  _atom_site_label
  _atom_site_symmetry_multiplicity
  _atom_site_fract_x
  _atom_site_fract_y
  _atom_site_fract_z
  _atom_site_occupancy
  H   H1        1.0  0.8990092873573303  0.7009076476097107  0.2360902577638626  1.0000
  H   H2        1.0  0.12117479741573334  0.9726517200469971  0.7417746782302856  1.0000
  H   H3        1.0  0.12947772443294525  0.3040507435798645  0.2370225489139557  1.0000
  H   H4        1.0  0.3545118570327759  0.690168559551239  0.963739275932312  1.0000
  H   H5        1.0  0.5138450264930725  0.5788937211036682  0.3432351350784302  1.0000
  N   N1        1.0  0.11953875422477722  0.29951465129852295  0.49740278720855713  1.0000
  O   O1        1.0  0.009843192063272  0.7857046127319336  0.7398683428764343  1.0000
  O   O2        1.0  0.9458040595054626  0.588979184627533  0.23841944336891174  1.0000
  U   U1        1.0  0.5960580706596375  0.2871492803096771  0.9404160380363464  1.0000
  U   U2        1.0  0.33031314611434937  0.5412024259567261  0.29022207856178284  1.0000
  U   U3        1.0  0.6774688959121704  0.06550047546625137  0.7356749773025513  1.0000
