data_image0
_chemical_formula_structural       AsCH4NO4
_chemical_formula_sum              "As1 C1 H4 N1 O4"
_cell_length_a       5.110810020396229
_cell_length_b       5.248596996171906
_cell_length_c       5.595141410827637
_cell_angle_alpha    64.5544102171905
_cell_angle_beta     66.5435104601007
_cell_angle_gamma    67.99418071317007

_space_group_name_H-M_alt    "P 1"
_space_group_IT_number       1

loop_
  _space_group_symop_operation_xyz
  'x, y, z'

loop_
  _atom_site_type_symbol
  _atom_site_label
  _atom_site_symmetry_multiplicity
  _atom_site_fract_x
  _atom_site_fract_y
  _atom_site_fract_z
  _atom_site_occupancy
  As  As1       1.0  0.5824539065361023  0.6079317927360535  0.3094998002052307  1.0000
  C   C1        1.0  0.932754933834076  0.8283478021621704  0.07216044515371323  1.0000
  H   H1        1.0  0.08041739463806152  0.5975099205970764  0.8877770304679871  1.0000
  H   H2        1.0  0.30424538254737854  0.6409160494804382  0.17692862451076508  1.0000
  H   H3        1.0  0.8155964612960815  0.3249534070491791  0.44159331917762756  1.0000
  H   H4        1.0  0.20347300171852112  0.9389806389808655  0.9577270746231079  1.0000
  N   N1        1.0  0.6044451594352722  0.02785336971282959  0.6527022123336792  1.0000
  O   O1        1.0  0.5163086652755737  0.183049276471138  0.10977433621883388  1.0000
  O   O2        1.0  0.2451933026313782  0.12758980691432953  0.8544659614562988  1.0000
  O   O3        1.0  0.5634873509407043  0.4403780996799469  0.41747620701789856  1.0000
  O   O4        1.0  0.2655011713504791  0.6446247696876526  0.033763498067855835  1.0000
