data_image0
_chemical_formula_structural       H3N3O5
_chemical_formula_sum              "H3 N3 O5"
_cell_length_a       5.786167045793304
_cell_length_b       5.652153942270935
_cell_length_c       5.890153884887695
_cell_angle_alpha    103.2834010477742
_cell_angle_beta     106.62076663809982
_cell_angle_gamma    111.93269009225875

_space_group_name_H-M_alt    "P 1"
_space_group_IT_number       1

loop_
  _space_group_symop_operation_xyz
  'x, y, z'

loop_
  _atom_site_type_symbol
  _atom_site_label
  _atom_site_symmetry_multiplicity
  _atom_site_fract_x
  _atom_site_fract_y
  _atom_site_fract_z
  _atom_site_occupancy
  H   H1        1.0  0.47601577639579773  0.47461748123168945  0.8981112241744995  1.0000
  H   H2        1.0  0.062270112335681915  0.0034670939203351736  0.15547266602516174  1.0000
  H   H3        1.0  0.3838336169719696  0.40745726227760315  0.5600891709327698  1.0000
  N   N1        1.0  0.8108400702476501  0.4859444797039032  0.5630622506141663  1.0000
  N   N2        1.0  0.11077729612588882  0.8713931441307068  0.07453357428312302  1.0000
  N   N3        1.0  0.2800157070159912  0.9983457326889038  0.5813773274421692  1.0000
  O   O1        1.0  0.7108430862426758  0.04229448363184929  0.9217771887779236  1.0000
  O   O2        1.0  0.07605361193418503  0.7485594749450684  0.4351268410682678  1.0000
  O   O3        1.0  0.5846958756446838  0.7656877636909485  0.6530203223228455  1.0000
  O   O4        1.0  0.7240026593208313  0.678327739238739  0.3648187220096588  1.0000
  O   O5        1.0  0.8556093573570251  0.2562604248523712  0.4389040470123291  1.0000
