data_image0
_chemical_formula_structural       H4N3O3Se
_chemical_formula_sum              "H4 N3 O3 Se1"
_cell_length_a       4.896007594937602
_cell_length_b       5.495254243436945
_cell_length_c       5.842668533325195
_cell_angle_alpha    115.24844594454389
_cell_angle_beta     102.69149001772246
_cell_angle_gamma    93.13682817597427

_space_group_name_H-M_alt    "P 1"
_space_group_IT_number       1

loop_
  _space_group_symop_operation_xyz
  'x, y, z'

loop_
  _atom_site_type_symbol
  _atom_site_label
  _atom_site_symmetry_multiplicity
  _atom_site_fract_x
  _atom_site_fract_y
  _atom_site_fract_z
  _atom_site_occupancy
  H   H1        1.0  0.03397517278790474  0.5406031608581543  0.16176961362361902  1.0000
  H   H2        1.0  0.9423379302024841  0.9934868216514587  0.15460394322872162  1.0000
  H   H3        1.0  0.8766988515853882  0.29766646027565  0.7308724522590637  1.0000
  H   H4        1.0  0.6299078464508057  0.1251935511827469  0.008500217460095882  1.0000
  N   N1        1.0  0.9488164782524109  0.42608317732810974  0.3770305812358856  1.0000
  N   N2        1.0  0.13793714344501495  0.8736908435821533  0.52384215593338  1.0000
  N   N3        1.0  0.3383481204509735  0.30663278698921204  0.3996668756008148  1.0000
  O   O1        1.0  0.2358161360025406  0.3838178813457489  0.3987880349159241  1.0000
  O   O2        1.0  0.81949383020401  0.6735749840736389  0.7344518303871155  1.0000
  O   O3        1.0  0.4036922752857208  0.35941872000694275  0.3916094899177551  1.0000
  Se  Se1       1.0  0.37932339310646057  0.47295477986335754  0.7754818797111511  1.0000
