data_image0
_chemical_formula_structural       CuH3N3O3U
_chemical_formula_sum              "Cu1 H3 N3 O3 U1"
_cell_length_a       4.9685266835837725
_cell_length_b       5.0621283676344495
_cell_length_c       5.467767715454102
_cell_angle_alpha    94.28491168551159
_cell_angle_beta     111.01349763387365
_cell_angle_gamma    110.06803894509353

_space_group_name_H-M_alt    "P 1"
_space_group_IT_number       1

loop_
  _space_group_symop_operation_xyz
  'x, y, z'

loop_
  _atom_site_type_symbol
  _atom_site_label
  _atom_site_symmetry_multiplicity
  _atom_site_fract_x
  _atom_site_fract_y
  _atom_site_fract_z
  _atom_site_occupancy
  Cu  Cu1       1.0  0.19356699287891388  0.5833371877670288  0.8123138546943665  1.0000
  H   H1        1.0  0.14234524965286255  0.9273602962493896  0.23642262816429138  1.0000
  H   H2        1.0  0.49301642179489136  0.9779497385025024  0.015090052969753742  1.0000
  H   H3        1.0  0.4982571005821228  0.9852527379989624  0.3074547350406646  1.0000
  N   N1        1.0  0.6558586955070496  0.510967493057251  0.39387261867523193  1.0000
  N   N2        1.0  0.188466876745224  0.9907020330429077  0.5497459173202515  1.0000
  N   N3        1.0  0.6546410322189331  0.11767203360795975  0.29506817460060114  1.0000
  O   O1        1.0  0.009756643325090408  0.3965672552585602  0.864904522895813  1.0000
  O   O2        1.0  0.50394207239151  0.43814709782600403  0.4448045790195465  1.0000
  O   O3        1.0  0.9563595652580261  0.8648611903190613  0.38697636127471924  1.0000
  U   U1        1.0  0.6857485771179199  0.9790493845939636  0.5612365007400513  1.0000
