data_image0
_chemical_formula_structural       H3N4O4
_chemical_formula_sum              "H3 N4 O4"
_cell_length_a       4.490466396379574
_cell_length_b       5.16618606163216
_cell_length_c       5.556817054748535
_cell_angle_alpha    101.9470904914063
_cell_angle_beta     99.22505692970147
_cell_angle_gamma    95.95242923625968

_space_group_name_H-M_alt    "P 1"
_space_group_IT_number       1

loop_
  _space_group_symop_operation_xyz
  'x, y, z'

loop_
  _atom_site_type_symbol
  _atom_site_label
  _atom_site_symmetry_multiplicity
  _atom_site_fract_x
  _atom_site_fract_y
  _atom_site_fract_z
  _atom_site_occupancy
  H   H1        1.0  0.9202576279640198  0.5997146964073181  0.7767441868782043  1.0000
  H   H2        1.0  0.8118774890899658  0.22991304099559784  0.28039225935935974  1.0000
  H   H3        1.0  0.262075275182724  0.28581273555755615  0.30106112360954285  1.0000
  N   N1        1.0  0.38371774554252625  0.7314407825469971  0.7873603701591492  1.0000
  N   N2        1.0  0.16918830573558807  0.7836621403694153  0.1684475988149643  1.0000
  N   N3        1.0  0.6771228313446045  0.07707411050796509  0.04626432806253433  1.0000
  N   N4        1.0  0.8717727065086365  0.10641340911388397  0.08068615943193436  1.0000
  O   O1        1.0  0.6645388603210449  0.4548651874065399  0.5200586915016174  1.0000
  O   O2        1.0  0.8227750062942505  0.7469123005867004  0.43117842078208923  1.0000
  O   O3        1.0  0.20564688742160797  0.29020756483078003  0.17726357281208038  1.0000
  O   O4        1.0  0.2828918993473053  0.2991124391555786  0.0914357528090477  1.0000
