data_image0
_chemical_formula_structural       CoGeI3SbV
_chemical_formula_sum              "Co1 Ge1 I3 Sb1 V1"
_cell_length_a       5.092282498363951
_cell_length_b       4.88239155287636
_cell_length_c       8.142351150512695
_cell_angle_alpha    96.97219808126628
_cell_angle_beta     105.06989400963049
_cell_angle_gamma    93.21081766160044

_space_group_name_H-M_alt    "P 1"
_space_group_IT_number       1

loop_
  _space_group_symop_operation_xyz
  'x, y, z'

loop_
  _atom_site_type_symbol
  _atom_site_label
  _atom_site_symmetry_multiplicity
  _atom_site_fract_x
  _atom_site_fract_y
  _atom_site_fract_z
  _atom_site_occupancy
  Co  Co1       1.0  0.21380554139614105  0.9911795258522034  0.14470265805721283  1.0000
  Ge  Ge1       1.0  0.7630506157875061  0.9585132598876953  0.2321997880935669  1.0000
  I   I1        1.0  0.2582244873046875  0.39962610602378845  0.8364170789718628  1.0000
  I   I2        1.0  0.26631036400794983  0.4160916805267334  0.8918635249137878  1.0000
  I   I3        1.0  0.7976888418197632  0.010921504348516464  0.5438165068626404  1.0000
  Sb  Sb1       1.0  0.766020655632019  0.2251070886850357  0.7032789587974548  1.0000
  V   V1        1.0  0.26629137992858887  0.7758554220199585  0.993954062461853  1.0000
