data_image0
_chemical_formula_structural       BrEr3Ge4Ir2TlZr
_chemical_formula_sum              "Br1 Er3 Ge4 Ir2 Tl1 Zr1"
_cell_length_a       5.297863420043835
_cell_length_b       8.059895804463169
_cell_length_c       8.224334716796875
_cell_angle_alpha    118.50510392918115
_cell_angle_beta     89.55648450337101
_cell_angle_gamma    89.64681811838423

_space_group_name_H-M_alt    "P 1"
_space_group_IT_number       1

loop_
  _space_group_symop_operation_xyz
  'x, y, z'

loop_
  _atom_site_type_symbol
  _atom_site_label
  _atom_site_symmetry_multiplicity
  _atom_site_fract_x
  _atom_site_fract_y
  _atom_site_fract_z
  _atom_site_occupancy
  Br  Br1       1.0  0.43176284432411194  0.25757136940956116  0.20547528564929962  1.0000
  Er  Er1       1.0  0.9317525625228882  0.2717636823654175  0.8495330214500427  1.0000
  Er  Er2       1.0  0.42874598503112793  0.7627450227737427  0.049123961478471756  1.0000
  Er  Er3       1.0  0.4293445646762848  0.9779757857322693  0.5049220323562622  1.0000
  Ge  Ge1       1.0  0.4240892827510834  0.76606285572052  0.8028054237365723  1.0000
  Ge  Ge2       1.0  0.926639199256897  0.7408415079116821  0.7805982828140259  1.0000
  Ge  Ge3       1.0  0.45764949917793274  0.08768317848443985  0.6088011264801024  1.0000
  Ge  Ge4       1.0  0.4137791395187378  0.5728235244750977  0.29077714681625366  1.0000
  Ir  Ir1       1.0  0.4278663396835327  0.24618075788021088  0.33283472061157227  1.0000
  Ir  Ir2       1.0  0.4315186142921448  0.432993084192276  0.3312327563762665  1.0000
  Tl  Tl1       1.0  0.9345355033874512  0.9203594326972961  0.7018060684204102  1.0000
  Zr  Zr1       1.0  0.9276672005653381  0.5851985812187195  0.014102031476795673  1.0000
