data_image0
_chemical_formula_structural       BiBrEr5Ge4Si
_chemical_formula_sum              "Bi1 Br1 Er5 Ge4 Si1"
_cell_length_a       6.5118813376464315
_cell_length_b       6.6804418631330735
_cell_length_c       7.274364471435547
_cell_angle_alpha    110.72923582025916
_cell_angle_beta     106.74410730288416
_cell_angle_gamma    99.68293781500564

_space_group_name_H-M_alt    "P 1"
_space_group_IT_number       1

loop_
  _space_group_symop_operation_xyz
  'x, y, z'

loop_
  _atom_site_type_symbol
  _atom_site_label
  _atom_site_symmetry_multiplicity
  _atom_site_fract_x
  _atom_site_fract_y
  _atom_site_fract_z
  _atom_site_occupancy
  Bi  Bi1       1.0  0.050839491188526154  0.4344114661216736  0.21532069146633145  1.0000
  Br  Br1       1.0  0.740084171295166  0.2563570737838745  0.47695684432983393  1.0000
  Er  Er1       1.0  0.9900361895561218  0.6408166885375977  0.8066422939300537  1.0000
  Er  Er2       1.0  0.4512175917625427  0.17700375616550446  0.5871517062187195  1.0000
  Er  Er3       1.0  0.26239827275276184  0.6686824560165405  0.5060392022132874  1.0000
  Er  Er4       1.0  0.5187869071960449  0.15813980996608734  0.7301216125488281  1.0000
  Er  Er5       1.0  0.9671199321746826  0.446924090385437  0.23390364646911618  1.0000
  Ge  Ge1       1.0  0.01642468571662903  0.9422184228897095  0.7889347672462463  1.0000
  Ge  Ge2       1.0  0.9642075300216675  0.6650627851486206  0.2832000255584717  1.0000
  Ge  Ge3       1.0  0.5898219347000122  0.15308266878128052  0.20083749294281006  1.0000
  Ge  Ge4       1.0  0.5231013298034668  0.43118712306022644  0.2848075032234192  1.0000
  Si  Si1       1.0  0.7582860589027405  0.15367653965950012  0.7452071309089661  1.0000
