data_image0
_chemical_formula_structural       Br2Er5Ge5
_chemical_formula_sum              "Br2 Er5 Ge5"
_cell_length_a       6.348441235291138
_cell_length_b       6.50293101677284
_cell_length_c       6.952908515930176
_cell_angle_alpha    114.3486207985629
_cell_angle_beta     111.51128555537086
_cell_angle_gamma    93.38821956428653

_space_group_name_H-M_alt    "P 1"
_space_group_IT_number       1

loop_
  _space_group_symop_operation_xyz
  'x, y, z'

loop_
  _atom_site_type_symbol
  _atom_site_label
  _atom_site_symmetry_multiplicity
  _atom_site_fract_x
  _atom_site_fract_y
  _atom_site_fract_z
  _atom_site_occupancy
  Br  Br1       1.0  0.8674828410148621  0.09885216504335403  0.8313760161399841  1.0000
  Br  Br2       1.0  0.7974764108657837  0.5994284152984619  0.44528988003730774  1.0000
  Er  Er1       1.0  0.6083625555038452  0.1786136031150818  0.6459715962409973  1.0000
  Er  Er2       1.0  0.13437332212924957  0.0779993087053299  0.3297427296638489  1.0000
  Er  Er3       1.0  0.6037610173225403  0.5931013226509094  0.5535789132118225  1.0000
  Er  Er4       1.0  0.12154889106750488  0.7831874489784241  0.7791385054588318  1.0000
  Er  Er5       1.0  0.5828818082809448  0.6105964779853821  0.1685950756072998  1.0000
  Ge  Ge1       1.0  0.35718950629234314  0.08521279692649841  0.2439570426940918  1.0000
  Ge  Ge2       1.0  0.6125062704086304  0.10086360573768616  0.14614522457122803  1.0000
  Ge  Ge3       1.0  0.04768392816185951  0.6027809977531433  0.09988067299127583  1.0000
  Ge  Ge4       1.0  0.6041179895401001  0.8444122672080994  0.7635652422904968  1.0000
  Ge  Ge5       1.0  0.1073755994439125  0.6059238314628601  0.47364914417266846  1.0000
