data_image0
_chemical_formula_structural       Ge8Ir4
_chemical_formula_sum              "Ge8 Ir4"
_cell_length_a       6.799160393366257
_cell_length_b       6.985628428838001
_cell_length_c       7.107481956481934
_cell_angle_alpha    109.75849414002492
_cell_angle_beta     104.49163747063312
_cell_angle_gamma    108.75787528785143

_space_group_name_H-M_alt    "P 1"
_space_group_IT_number       1

loop_
  _space_group_symop_operation_xyz
  'x, y, z'

loop_
  _atom_site_type_symbol
  _atom_site_label
  _atom_site_symmetry_multiplicity
  _atom_site_fract_x
  _atom_site_fract_y
  _atom_site_fract_z
  _atom_site_occupancy
  Ge  Ge1       1.0  0.3857004344463348  0.45555040240287786  0.5552536249160767  1.0000
  Ge  Ge2       1.0  0.692695140838623  0.6300964951515198  0.3273076117038727  1.0000
  Ge  Ge3       1.0  0.8648176789283751  0.9456570744514466  0.761084794998169  1.0000
  Ge  Ge4       1.0  0.36935353279113764  0.14757271111011505  0.7955811619758606  1.0000
  Ge  Ge5       1.0  0.9008960723876952  0.8830170631408693  0.8824796080589294  1.0000
  Ge  Ge6       1.0  0.861598253250122  0.14557087421417236  0.545248806476593  1.0000
  Ge  Ge7       1.0  0.3698341846466064  0.6559474468231201  0.5830743908882141  1.0000
  Ge  Ge8       1.0  0.37079343199729914  0.6729175448417664  0.5590080022811889  1.0000
  Ir  Ir1       1.0  0.03535090759396553  0.012011634185910225  0.055705707520246506  1.0000
  Ir  Ir2       1.0  0.8815184235572814  0.4573047757148743  0.7504329085350037  1.0000
  Ir  Ir3       1.0  0.3513110280036926  0.6576200723648071  0.0785306990146637  1.0000
  Ir  Ir4       1.0  0.8057291507720946  0.007226418238133193  0.5583349466323853  1.0000
