data_image0
_chemical_formula_structural       Ge8Ir3Os
_chemical_formula_sum              "Ge8 Ir3 Os1"
_cell_length_a       6.854982688494259
_cell_length_b       6.901160067180761
_cell_length_c       7.02704381942749
_cell_angle_alpha    108.41809943203
_cell_angle_beta     106.27380733105548
_cell_angle_gamma    100.27895488158019

_space_group_name_H-M_alt    "P 1"
_space_group_IT_number       1

loop_
  _space_group_symop_operation_xyz
  'x, y, z'

loop_
  _atom_site_type_symbol
  _atom_site_label
  _atom_site_symmetry_multiplicity
  _atom_site_fract_x
  _atom_site_fract_y
  _atom_site_fract_z
  _atom_site_occupancy
  Ge  Ge1       1.0  0.47475385665893555  0.5534948706626892  0.784291684627533  1.0000
  Ge  Ge2       1.0  0.5107333660125732  0.6054768562316895  0.4644182622432709  1.0000
  Ge  Ge3       1.0  0.32802852988243103  0.11708258092403412  0.19313453137874603  1.0000
  Ge  Ge4       1.0  0.03744007274508476  0.5398275852203369  0.06758671998977661  1.0000
  Ge  Ge5       1.0  0.820358157157898  0.021752262488007545  0.5857476592063904  1.0000
  Ge  Ge6       1.0  0.5051792860031128  0.6055611968040466  0.1883307546377182  1.0000
  Ge  Ge7       1.0  0.8441110253334045  0.790364682674408  0.2845824360847473  1.0000
  Ge  Ge8       1.0  0.8310121297836304  0.04373078793287277  0.7549132704734802  1.0000
  Ir  Ir1       1.0  0.08415643870830536  0.8034467697143555  0.8001344203948975  1.0000
  Ir  Ir2       1.0  0.5121644735336304  0.12528450787067413  0.5128165483474731  1.0000
  Ir  Ir3       1.0  0.023451169952750206  0.11281058192253113  0.9861931204795836  1.0000
  Os  Os1       1.0  0.81610506772995  0.6184601187705994  0.6658760905265808  1.0000
