data_image0
_chemical_formula_structural       Er5Ge6Se
_chemical_formula_sum              "Er5 Ge6 Se1"
_cell_length_a       5.800924269393633
_cell_length_b       7.285376435097813
_cell_length_c       7.875082492828369
_cell_angle_alpha    106.25093443894983
_cell_angle_beta     88.42485020660733
_cell_angle_gamma    90.35936594557054

_space_group_name_H-M_alt    "P 1"
_space_group_IT_number       1

loop_
  _space_group_symop_operation_xyz
  'x, y, z'

loop_
  _atom_site_type_symbol
  _atom_site_label
  _atom_site_symmetry_multiplicity
  _atom_site_fract_x
  _atom_site_fract_y
  _atom_site_fract_z
  _atom_site_occupancy
  Er  Er1       1.0  0.6860498189926147  0.5975096821784973  0.7499899864196778  1.0000
  Er  Er2       1.0  0.18649168312549588  0.6837469935417175  0.8320252299308778  1.0000
  Er  Er3       1.0  0.18463882803916928  0.537143349647522  0.9351720809936525  1.0000
  Er  Er4       1.0  0.4778103828430175  0.0606752447783947  0.32376727461814886  1.0000
  Er  Er5       1.0  0.9844155907630919  0.03944118693470955  0.3302199840545655  1.0000
  Ge  Ge1       1.0  0.6564531922340393  0.4964559376239776  0.19471940398216248  1.0000
  Ge  Ge2       1.0  0.1452171802520752  0.6707576513290405  0.9255448579788209  1.0000
  Ge  Ge3       1.0  0.626669704914093  0.8365132808685303  0.7146250605583192  1.0000
  Ge  Ge4       1.0  0.6052767038345337  0.1992853581905365  0.9447003602981568  1.0000
  Ge  Ge5       1.0  0.9478840231895446  0.0684494748711586  0.230785608291626  1.0000
  Ge  Ge6       1.0  0.12973526120185852  0.1877712607383728  0.7545065283775331  1.0000
  Se  Se1       1.0  0.675117552280426  0.005242586601525545  0.920966923236847  1.0000
