data_image0
_chemical_formula_structural       C3GaMnNNa3
_chemical_formula_sum              "C3 Ga1 Mn1 N1 Na3"
_cell_length_a       5.185090754366318
_cell_length_b       5.26638847251096
_cell_length_c       6.429745197296143
_cell_angle_alpha    71.15571479188685
_cell_angle_beta     69.22439497882637
_cell_angle_gamma    63.377183442031054

_space_group_name_H-M_alt    "P 1"
_space_group_IT_number       1

loop_
  _space_group_symop_operation_xyz
  'x, y, z'

loop_
  _atom_site_type_symbol
  _atom_site_label
  _atom_site_symmetry_multiplicity
  _atom_site_fract_x
  _atom_site_fract_y
  _atom_site_fract_z
  _atom_site_occupancy
  C   C1        1.0  0.22034581005573273  0.22691000998020172  0.810208261013031  1.0000
  C   C2        1.0  0.8504840135574341  0.9606127142906189  0.4894414842128753  1.0000
  C   C3        1.0  0.842919647693634  0.2877705991268158  0.4868460297584534  1.0000
  Ga  Ga1       1.0  0.9332028031349182  0.4966148138046264  0.8191816210746765  1.0000
  Mn  Mn1       1.0  0.10825347155332565  0.24521036446094513  0.9874606132507325  1.0000
  N   N1        1.0  0.621147632598877  0.2201174944639206  0.24052494764328  1.0000
  Na  Na1       1.0  0.1449178010225296  0.2649337947368622  0.31085705757141113  1.0000
  Na  Na2       1.0  0.6397079229354858  0.7439663410186768  0.06934108585119247  1.0000
  Na  Na3       1.0  0.6277653574943542  0.87354576587677  0.7490412592887878  1.0000
