data_image0
_chemical_formula_structural       C4GaHNNa2
_chemical_formula_sum              "C4 Ga1 H1 N1 Na2"
_cell_length_a       4.768417635530468
_cell_length_b       4.7540555937876094
_cell_length_c       7.2492570877075195
_cell_angle_alpha    99.83348528850357
_cell_angle_beta     99.8031016551618
_cell_angle_gamma    113.48290297194525

_space_group_name_H-M_alt    "P 1"
_space_group_IT_number       1

loop_
  _space_group_symop_operation_xyz
  'x, y, z'

loop_
  _atom_site_type_symbol
  _atom_site_label
  _atom_site_symmetry_multiplicity
  _atom_site_fract_x
  _atom_site_fract_y
  _atom_site_fract_z
  _atom_site_occupancy
  C   C1        1.0  0.1298559606075287  0.3235977590084076  0.8675416111946106  1.0000
  C   C2        1.0  0.7468442320823669  0.5611888766288757  0.8029454946517944  1.0000
  C   C3        1.0  0.8036889433860779  0.7680694460868835  0.35602864623069763  1.0000
  C   C4        1.0  0.050374116748571396  0.6502722501754761  0.3798364102840424  1.0000
  Ga  Ga1       1.0  0.6428772211074829  0.8248860239982605  0.8804551362991333  1.0000
  H   H1        1.0  0.6892958283424377  0.8215411305427551  0.9974027276039124  1.0000
  N   N1        1.0  0.031900376081466675  0.051205113530159  0.365291565656662  1.0000
  Na  Na1       1.0  0.3125419318675995  0.2965203523635864  0.1273317188024521  1.0000
  Na  Na2       1.0  0.3790111541748047  0.06914348155260086  0.7501610517501831  1.0000
