data_image0
_chemical_formula_structural       C5NNa3
_chemical_formula_sum              "C5 N1 Na3"
_cell_length_a       4.746071643145425
_cell_length_b       5.009983591086485
_cell_length_c       6.2188286781311035
_cell_angle_alpha    114.5776566430783
_cell_angle_beta     108.02538646025968
_cell_angle_gamma    88.77133753019213

_space_group_name_H-M_alt    "P 1"
_space_group_IT_number       1

loop_
  _space_group_symop_operation_xyz
  'x, y, z'

loop_
  _atom_site_type_symbol
  _atom_site_label
  _atom_site_symmetry_multiplicity
  _atom_site_fract_x
  _atom_site_fract_y
  _atom_site_fract_z
  _atom_site_occupancy
  C   C1        1.0  0.8623080849647522  0.616929292678833  0.5536531209945679  1.0000
  C   C2        1.0  0.5384987592697144  0.1672811359167099  0.9245760440826415  1.0000
  C   C3        1.0  0.05694746598601341  0.07053649425506592  0.4668921530246734  1.0000
  C   C4        1.0  0.5734087228775024  0.3314822018146515  0.3274925649166107  1.0000
  C   C5        1.0  0.37088462710380554  0.6196914911270142  0.6103906631469727  1.0000
  N   N1        1.0  0.7631202936172485  0.8578243851661682  0.03884318843483925  1.0000
  Na  Na1       1.0  0.12391116470098495  0.8117114305496216  0.2167372554540634  1.0000
  Na  Na2       1.0  0.12797200679779053  0.24488534033298492  0.6055184602737427  1.0000
  Na  Na3       1.0  0.7499907612800598  0.1683294028043747  0.8942757248878478  1.0000
