data_image0
_chemical_formula_structural       Ho3Pb3Zn
_chemical_formula_sum              "Ho3 Pb3 Zn1"
_cell_length_a       5.634795727574973
_cell_length_b       6.885788671498552
_cell_length_c       7.293551445007324
_cell_angle_alpha    123.21673449207682
_cell_angle_beta     90.02505303871298
_cell_angle_gamma    90.72615336242632

_space_group_name_H-M_alt    "P 1"
_space_group_IT_number       1

loop_
  _space_group_symop_operation_xyz
  'x, y, z'

loop_
  _atom_site_type_symbol
  _atom_site_label
  _atom_site_symmetry_multiplicity
  _atom_site_fract_x
  _atom_site_fract_y
  _atom_site_fract_z
  _atom_site_occupancy
  Ho  Ho1       1.0  0.35980215668678284  0.05143534392118454  0.40235403180122375  1.0000
  Ho  Ho2       1.0  0.8608704209327698  0.4636513292789459  0.06707274168729782  1.0000
  Ho  Ho3       1.0  0.35827407240867615  0.6486196517944336  0.8158153295516968  1.0000
  Pb  Pb1       1.0  0.8488242626190186  0.3109981417655945  0.4014528691768646  1.0000
  Pb  Pb2       1.0  0.35537850856781006  0.1786237508058548  0.01810468919575213  1.0000
  Pb  Pb3       1.0  0.8538156151771545  0.6718250513076782  0.43871515989303583  1.0000
  Zn  Zn1       1.0  0.8301321864128113  0.05553959310054779  0.5086221694946289  1.0000
