data_image0
_chemical_formula_structural       Eu4Sn3
_chemical_formula_sum              "Eu4 Sn3"
_cell_length_a       5.52105458533146
_cell_length_b       5.513565539501791
_cell_length_c       8.122005462646484
_cell_angle_alpha    92.69585001775538
_cell_angle_beta     88.25269979314994
_cell_angle_gamma    115.1891032042398

_space_group_name_H-M_alt    "P 1"
_space_group_IT_number       1

loop_
  _space_group_symop_operation_xyz
  'x, y, z'

loop_
  _atom_site_type_symbol
  _atom_site_label
  _atom_site_symmetry_multiplicity
  _atom_site_fract_x
  _atom_site_fract_y
  _atom_site_fract_z
  _atom_site_occupancy
  Eu  Eu1       1.0  0.4484716653823852  0.38417771458625793  0.641305685043335  1.0000
  Eu  Eu2       1.0  0.23603203892707822  0.12438017874956132  0.9560625553131104  1.0000
  Eu  Eu3       1.0  0.7800580263137817  0.3810523450374603  0.1343730241060257  1.0000
  Eu  Eu4       1.0  0.003642180701717714  0.6849889159202576  0.6178569793701172  1.0000
  Sn  Sn1       1.0  0.707898736000061  0.6786975860595703  0.42689502239227295  1.0000
  Sn  Sn2       1.0  0.19718390703201294  0.6753084659576416  0.8845481276512146  1.0000
  Sn  Sn3       1.0  0.710412859916687  0.14805260300636292  0.3764060437679291  1.0000
