data_image0
_chemical_formula_structural       ClEuSeSn2Zn2
_chemical_formula_sum              "Cl1 Eu1 Se1 Sn2 Zn2"
_cell_length_a       5.609217213589386
_cell_length_b       5.721253809815792
_cell_length_c       9.662729263305664
_cell_angle_alpha    89.07696254537714
_cell_angle_beta     89.84854571692827
_cell_angle_gamma    115.77737852876923

_space_group_name_H-M_alt    "P 1"
_space_group_IT_number       1

loop_
  _space_group_symop_operation_xyz
  'x, y, z'

loop_
  _atom_site_type_symbol
  _atom_site_label
  _atom_site_symmetry_multiplicity
  _atom_site_fract_x
  _atom_site_fract_y
  _atom_site_fract_z
  _atom_site_occupancy
  Cl  Cl1       1.0  0.14130359888076782  0.6217342019081116  0.7499436140060425  1.0000
  Eu  Eu1       1.0  0.7792636156082153  0.7164279222488403  0.24966126680374148  1.0000
  Se  Se1       1.0  0.1513921618461609  0.6052412986755371  0.2489869445562363  1.0000
  Sn  Sn1       1.0  0.7859325408935547  0.918807029724121  0.5071750283241272  1.0000
  Sn  Sn2       1.0  0.1294248253107071  0.1055333688855171  0.9511348009109497  1.0000
  Zn  Zn1       1.0  0.6230964064598083  0.41794189810752863  0.25550100207328796  1.0000
  Zn  Zn2       1.0  0.2662621140480041  0.41387867927551264  0.4488605260848999  1.0000
