data_image0
_chemical_formula_structural       Cu3DyILuNiSV6
_chemical_formula_sum              "Cu3 Dy1 I1 Lu1 Ni1 S1 V6"
_cell_length_a       6.137745580465661
_cell_length_b       6.634762551452911
_cell_length_c       6.937262535095215
_cell_angle_alpha    119.33153254062199
_cell_angle_beta     89.63764043116355
_cell_angle_gamma    91.02878776945857

_space_group_name_H-M_alt    "P 1"
_space_group_IT_number       1

loop_
  _space_group_symop_operation_xyz
  'x, y, z'

loop_
  _atom_site_type_symbol
  _atom_site_label
  _atom_site_symmetry_multiplicity
  _atom_site_fract_x
  _atom_site_fract_y
  _atom_site_fract_z
  _atom_site_occupancy
  Cu  Cu1       1.0  0.14835888147354126  0.8211304545402527  0.0485575869679451  1.0000
  Cu  Cu2       1.0  0.12418386340141298  0.9551365375518799  0.46511951088905334  1.0000
  Cu  Cu3       1.0  0.14071416854858398  0.044460274279117584  0.9089999794960022  1.0000
  Dy  Dy1       1.0  0.13505303859710693  0.7660179138183594  0.7450560331344604  1.0000
  I   I1        1.0  0.6530565619468689  0.8235290050506592  0.9970561861991882  1.0000
  Lu  Lu1       1.0  0.6291050910949707  0.26556113362312317  0.7194266319274902  1.0000
  Ni  Ni1       1.0  0.6470228433609009  0.7664377093315125  0.4655393660068512  1.0000
  S   S1        1.0  0.9698121547698976  0.022416681051254272  0.3584277629852295  1.0000
  V   V1        1.0  0.6408239603042603  0.2435104101896286  0.5447971224784851  1.0000
  V   V2        1.0  0.1057262122631073  0.6760004758834839  0.8090608716011047  1.0000
  V   V3        1.0  0.46900495886802673  0.908770740032196  0.4097242057323456  1.0000
  V   V4        1.0  0.13604247570037842  0.5403319597244263  0.16491070389747617  1.0000
  V   V5        1.0  0.40778014063835144  0.9023386836051941  0.5185563564300537  1.0000
  V   V6        1.0  0.4570944011211395  0.45758572220802307  0.33911603689193726  1.0000
