data_image0
_chemical_formula_structural       CaCu3FLu3OPrV3Zr
_chemical_formula_sum              "Ca1 Cu3 F1 Lu3 O1 Pr1 V3 Zr1"
_cell_length_a       6.293249428054125
_cell_length_b       6.314367619293553
_cell_length_c       7.677727222442627
_cell_angle_alpha    78.16309595773296
_cell_angle_beta     76.33009869543574
_cell_angle_gamma    77.17049187125097

_space_group_name_H-M_alt    "P 1"
_space_group_IT_number       1

loop_
  _space_group_symop_operation_xyz
  'x, y, z'

loop_
  _atom_site_type_symbol
  _atom_site_label
  _atom_site_symmetry_multiplicity
  _atom_site_fract_x
  _atom_site_fract_y
  _atom_site_fract_z
  _atom_site_occupancy
  Ca  Ca1       1.0  0.2235904186964035  0.3683694899082184  0.5078834295272827  1.0000
  Cu  Cu1       1.0  0.6959239840507507  0.5674252510070801  0.1284366250038147  1.0000
  Cu  Cu2       1.0  0.22397373616695404  0.34346601366996765  0.10775217413902283  1.0000
  Cu  Cu3       1.0  0.5889361500740051  0.6056520938873291  0.16946904361248016  1.0000
  F   F1        1.0  0.7316076159477234  0.5007210969924927  0.09688499569892883  1.0000
  Lu  Lu1       1.0  0.22725997865200043  0.9187964797019958  0.7988036274909973  1.0000
  Lu  Lu2       1.0  0.2242605835199356  0.1369827538728714  0.6337441802024841  1.0000
  Lu  Lu3       1.0  0.21508316695690155  0.6033905148506165  0.2278607040643692  1.0000
  O   O1        1.0  0.21772916615009308  0.8345372080802917  0.9071493744850159  1.0000
  Pr  Pr1       1.0  0.22797134518623352  0.18926866352558136  0.7002122402191162  1.0000
  V   V1        1.0  0.7217745780944824  0.5432455539703369  0.3868029713630676  1.0000
  V   V2        1.0  0.22631296515464783  0.8011788129806519  0.4556640088558197  1.0000
  V   V3        1.0  0.7230359315872192  0.5392060875892639  0.9860952496528625  1.0000
  Zr  Zr1       1.0  0.7388335466384888  0.9558396339416504  0.2803686559200287  1.0000
