data_image0
_chemical_formula_structural       ClCu3FGaGeLuMg3OSrV
_chemical_formula_sum              "Cl1 Cu3 F1 Ga1 Ge1 Lu1 Mg3 O1 Sr1 V1"
_cell_length_a       6.953958929129396
_cell_length_b       6.750779917052953
_cell_length_c       7.121990203857422
_cell_angle_alpha    60.16824603751994
_cell_angle_beta     63.10000704492169
_cell_angle_gamma    61.46914323727435

_space_group_name_H-M_alt    "P 1"
_space_group_IT_number       1

loop_
  _space_group_symop_operation_xyz
  'x, y, z'

loop_
  _atom_site_type_symbol
  _atom_site_label
  _atom_site_symmetry_multiplicity
  _atom_site_fract_x
  _atom_site_fract_y
  _atom_site_fract_z
  _atom_site_occupancy
  Cl  Cl1       1.0  0.5047559142112732  0.4208032190799713  0.6849340200424194  1.0000
  Cu  Cu1       1.0  0.017023488879203796  0.04077760502696037  0.47365516424179077  1.0000
  Cu  Cu2       1.0  0.032039787620306015  0.3153925836086273  0.8673553466796875  1.0000
  Cu  Cu3       1.0  0.6001504063606262  0.9965329766273499  0.9070965051651001  1.0000
  F   F1        1.0  0.5608764290809631  0.6134470105171204  0.27019000053405756  1.0000
  Ga  Ga1       1.0  0.562525749206543  0.3252284824848175  0.8761948347091675  1.0000
  Ge  Ge1       1.0  0.14281803369522095  0.4840351641178131  0.15303945541381836  1.0000
  Lu  Lu1       1.0  0.5945335030555725  0.1817992478609085  0.37725490331649775  1.0000
  Mg  Mg1       1.0  0.01770552434027195  0.09402430057525635  0.6284517645835876  1.0000
  Mg  Mg2       1.0  0.23245929181575775  0.07444214820861816  0.4124143719673157  1.0000
  Mg  Mg3       1.0  0.5328348278999329  0.1522023230791092  0.9202202558517456  1.0000
  O   O1        1.0  0.06318847835063934  0.13835842907428741  0.7952461242675781  1.0000
  Sr  Sr1       1.0  0.5857141613960266  0.492302268743515  0.6994947791099548  1.0000
  V   V1        1.0  0.5382518172264099  0.5036821961402893  0.027062118053436217  1.0000
