data_image0
_chemical_formula_structural       Cu7O3V4
_chemical_formula_sum              "Cu7 O3 V4"
_cell_length_a       5.421997646244054
_cell_length_b       6.152416964253141
_cell_length_c       8.191502571105957
_cell_angle_alpha    90.26290583445451
_cell_angle_beta     90.18799515204371
_cell_angle_gamma    86.81155727398043

_space_group_name_H-M_alt    "P 1"
_space_group_IT_number       1

loop_
  _space_group_symop_operation_xyz
  'x, y, z'

loop_
  _atom_site_type_symbol
  _atom_site_label
  _atom_site_symmetry_multiplicity
  _atom_site_fract_x
  _atom_site_fract_y
  _atom_site_fract_z
  _atom_site_occupancy
  Cu  Cu1       1.0  0.8755826354026794  0.5132842659950256  0.012460505589842796  1.0000
  Cu  Cu2       1.0  0.6392408609390259  0.8838576078414917  0.07625968009233475  1.0000
  Cu  Cu3       1.0  0.39178091287612915  0.39352160692214966  0.009589713998138905  1.0000
  Cu  Cu4       1.0  0.13568958640098572  0.03766883909702301  0.5014992356300354  1.0000
  Cu  Cu5       1.0  0.8698528409004211  0.8293670415878296  0.7553170919418335  1.0000
  Cu  Cu6       1.0  0.8674023151397705  0.7012193202972412  0.8766355514526367  1.0000
  Cu  Cu7       1.0  0.874082624912262  0.08773579448461533  0.6081897020339966  1.0000
  O   O1        1.0  0.9037879109382629  0.618439257144928  0.7417774796485901  1.0000
  O   O2        1.0  0.8275425434112549  0.3763678967952728  0.9469403028488159  1.0000
  O   O3        1.0  0.6350494027137756  0.2820621728897095  0.542336642742157  1.0000
  V   V1        1.0  0.37587398290634155  0.17481830716133118  0.548821210861206  1.0000
  V   V2        1.0  0.8842496871948242  0.23224912583827972  0.04747980087995529  1.0000
  V   V3        1.0  0.37680840492248535  0.6395546793937683  0.4100874066352844  1.0000
  V   V4        1.0  0.37522464990615845  0.9899598956108093  0.4225951135158539  1.0000
