data_image0
_chemical_formula_structural       CCu5O4RhV3
_chemical_formula_sum              "C1 Cu5 O4 Rh1 V3"
_cell_length_a       5.084539144221143
_cell_length_b       5.404618170459576
_cell_length_c       6.877321720123291
_cell_angle_alpha    99.9478738633099
_cell_angle_beta     90.43224603474827
_cell_angle_gamma    91.15937590390497

_space_group_name_H-M_alt    "P 1"
_space_group_IT_number       1

loop_
  _space_group_symop_operation_xyz
  'x, y, z'

loop_
  _atom_site_type_symbol
  _atom_site_label
  _atom_site_symmetry_multiplicity
  _atom_site_fract_x
  _atom_site_fract_y
  _atom_site_fract_z
  _atom_site_occupancy
  C   C1        1.0  0.10090196132659912  0.6236204504966736  0.7705433368682861  1.0000
  Cu  Cu1       1.0  0.5323657989501953  0.33254700899124146  0.16931092739105225  1.0000
  Cu  Cu2       1.0  0.13570758700370789  0.06749629974365234  0.16344515979290009  1.0000
  Cu  Cu3       1.0  0.8791084885597229  0.9678167700767518  0.09028814733028412  1.0000
  Cu  Cu4       1.0  0.1316753625869751  0.21466782689094543  0.8197323679924012  1.0000
  Cu  Cu5       1.0  0.6059558391571045  0.13787882030010223  0.33457455039024353  1.0000
  O   O1        1.0  0.02730965055525303  0.7881506085395813  0.41255655884742737  1.0000
  O   O2        1.0  0.5838837027549744  0.8112263083457947  0.16563139855861664  1.0000
  O   O3        1.0  0.7612743973731995  0.01300546620041132  0.06361979991197586  1.0000
  O   O4        1.0  0.19708770513534546  0.8656020164489747  0.9766059517860413  1.0000
  Rh  Rh1       1.0  0.37161922454833984  0.926284432411194  0.3624480366706848  1.0000
  V   V1        1.0  0.6167493462562561  0.23031760752201083  0.3026066720485687  1.0000
  V   V2        1.0  0.1254056841135025  0.9540272355079652  0.4258798062801361  1.0000
  V   V3        1.0  0.11218853294849396  0.6932304501533508  0.5605464577674866  1.0000
