data_image0
_chemical_formula_structural       ClCuLu2Mg4PV3Zr2
_chemical_formula_sum              "Cl1 Cu1 Lu2 Mg4 P1 V3 Zr2"
_cell_length_a       7.093437322210926
_cell_length_b       6.949410422299896
_cell_length_c       6.949191093444824
_cell_angle_alpha    63.21947158220698
_cell_angle_beta     61.4675062698926
_cell_angle_gamma    60.792296321097886

_space_group_name_H-M_alt    "P 1"
_space_group_IT_number       1

loop_
  _space_group_symop_operation_xyz
  'x, y, z'

loop_
  _atom_site_type_symbol
  _atom_site_label
  _atom_site_symmetry_multiplicity
  _atom_site_fract_x
  _atom_site_fract_y
  _atom_site_fract_z
  _atom_site_occupancy
  Cl  Cl1       1.0  0.4312581121921539  0.5506621599197388  0.1158450096845627  1.0000
  Cu  Cu1       1.0  0.9314509630203246  0.9840745925903319  0.21896515786647797  1.0000
  Lu  Lu1       1.0  0.9061930775642394  0.32439690828323364  0.1298356056213379  1.0000
  Lu  Lu2       1.0  0.8260908722877501  0.6585100889205933  0.6199082732200623  1.0000
  Mg  Mg1       1.0  0.41314139962196345  0.4009438157081604  0.0993218794465065  1.0000
  Mg  Mg2       1.0  0.9339890480041503  0.46904852986335754  0.26645568013191223  1.0000
  Mg  Mg3       1.0  0.4248532056808471  0.445692241191864  0.09425658732652664  1.0000
  Mg  Mg4       1.0  0.43378770351409907  0.5138509273529053  0.5175610780715942  1.0000
  P   P1        1.0  0.8832724690437316  0.2497301399707794  0.39355701208114624  1.0000
  V   V1        1.0  0.4126469492912292  0.6936225295066833  0.31239113211631775  1.0000
  V   V2        1.0  0.40035957098007197  0.3513036370277405  0.8964133262634277  1.0000
  V   V3        1.0  0.3760232627391815  0.1777036190032959  0.24973762035369876  1.0000
  Zr  Zr1       1.0  0.9151400923728942  0.40125590562820435  0.9212077260017396  1.0000
  Zr  Zr2       1.0  0.9020966887474059  0.7348944544792175  0.8769007921218872  1.0000
