data_image0
_chemical_formula_structural       Ni7Y3
_chemical_formula_sum              "Ni7 Y3"
_cell_length_a       5.039820282745826
_cell_length_b       6.017116756687839
_cell_length_c       6.469942092895508
_cell_angle_alpha    68.14948520424686
_cell_angle_beta     63.80573166417371
_cell_angle_gamma    61.08429450233711

_space_group_name_H-M_alt    "P 1"
_space_group_IT_number       1

loop_
  _space_group_symop_operation_xyz
  'x, y, z'

loop_
  _atom_site_type_symbol
  _atom_site_label
  _atom_site_symmetry_multiplicity
  _atom_site_fract_x
  _atom_site_fract_y
  _atom_site_fract_z
  _atom_site_occupancy
  Ni  Ni1       1.0  0.6068227291107178  0.5400387644767761  0.024024102836847305  1.0000
  Ni  Ni2       1.0  0.888599693775177  0.5684821605682373  0.2507574260234832  1.0000
  Ni  Ni3       1.0  0.9570661783218384  0.871626615524292  0.29233700037002563  1.0000
  Ni  Ni4       1.0  0.24800235033035278  0.9931811094284058  0.9564403295516968  1.0000
  Ni  Ni5       1.0  0.4793618321418762  0.38047972321510315  0.24952897429466245  1.0000
  Ni  Ni6       1.0  0.9786222577095032  0.053313497453927994  0.291319876909256  1.0000
  Ni  Ni7       1.0  0.222111314535141  0.8839418888092041  0.005933535750955343  1.0000
  Y   Y1        1.0  0.9618759155273438  0.37925198674201965  0.46954384446144104  1.0000
  Y   Y2        1.0  0.55021733045578  0.7643133401870728  0.6522176861763  1.0000
  Y   Y3        1.0  0.9076144099235535  0.0614795982837677  0.5293766856193542  1.0000
