data_image0
_chemical_formula_structural       Ni6SiY3
_chemical_formula_sum              "Ni6 Si1 Y3"
_cell_length_a       5.116089726161142
_cell_length_b       6.318523301668924
_cell_length_c       6.267078876495361
_cell_angle_alpha    62.6824552009459
_cell_angle_beta     62.99809378993256
_cell_angle_gamma    63.54151216169634

_space_group_name_H-M_alt    "P 1"
_space_group_IT_number       1

loop_
  _space_group_symop_operation_xyz
  'x, y, z'

loop_
  _atom_site_type_symbol
  _atom_site_label
  _atom_site_symmetry_multiplicity
  _atom_site_fract_x
  _atom_site_fract_y
  _atom_site_fract_z
  _atom_site_occupancy
  Ni  Ni1       1.0  0.843457043170929  0.601463794708252  0.8334060907363892  1.0000
  Ni  Ni2       1.0  0.9599055647850037  0.7305012345314026  0.8181207776069641  1.0000
  Ni  Ni3       1.0  0.4614264667034149  0.2154317200183868  0.33533501625061035  1.0000
  Ni  Ni4       1.0  0.9489651918411255  0.07314644008874893  0.9385216236114502  1.0000
  Ni  Ni5       1.0  0.23153308033943176  0.46591940522193903  0.012953993864357471  1.0000
  Ni  Ni6       1.0  0.28065961599349976  0.5284255146980286  0.33995798230171204  1.0000
  Si  Si1       1.0  0.6924992799758911  0.4771990776062011  0.5187668204307556  1.0000
  Y   Y1        1.0  0.6828766465187073  0.9793325662612914  0.1144845187664032  1.0000
  Y   Y2        1.0  0.6145797371864319  0.8493463993072509  0.09825204312801361  1.0000
  Y   Y3        1.0  0.11059969663619998  0.4725837409496307  0.6080299019813538  1.0000
