data_image0
_chemical_formula_structural       HNi7Y2
_chemical_formula_sum              "H1 Ni7 Y2"
_cell_length_a       4.911980869595887
_cell_length_b       5.588929454787104
_cell_length_c       6.032482624053955
_cell_angle_alpha    62.475826468032096
_cell_angle_beta     63.161934817916105
_cell_angle_gamma    63.098049508662335

_space_group_name_H-M_alt    "P 1"
_space_group_IT_number       1

loop_
  _space_group_symop_operation_xyz
  'x, y, z'

loop_
  _atom_site_type_symbol
  _atom_site_label
  _atom_site_symmetry_multiplicity
  _atom_site_fract_x
  _atom_site_fract_y
  _atom_site_fract_z
  _atom_site_occupancy
  H   H1        1.0  0.8099147081375122  0.9714949727058411  0.7402799725532532  1.0000
  Ni  Ni1       1.0  0.7958914041519165  0.8029782176017761  0.41515713930130005  1.0000
  Ni  Ni2       1.0  0.5090512037277222  0.570185661315918  0.23636235296726227  1.0000
  Ni  Ni3       1.0  0.237411230802536  0.8401504755020142  0.9621794819831848  1.0000
  Ni  Ni4       1.0  0.2831653952598572  0.3170028328895569  0.45935195684432983  1.0000
  Ni  Ni5       1.0  0.6342735290527344  0.4818122088909149  0.9531747698783875  1.0000
  Ni  Ni6       1.0  0.5042708516120911  0.24801315367221832  0.4356538653373718  1.0000
  Ni  Ni7       1.0  0.5661917924880981  0.06133861467242241  0.6641022562980652  1.0000
  Y   Y1        1.0  0.8735687732696533  0.9788744449615479  0.3663320243358612  1.0000
  Y   Y2        1.0  0.25917553901672363  0.45531758666038513  0.9365742802619934  1.0000
