data_image0
_chemical_formula_structural       HNi5Y4
_chemical_formula_sum              "H1 Ni5 Y4"
_cell_length_a       4.634576535909557
_cell_length_b       6.189695050138835
_cell_length_c       6.097615718841553
_cell_angle_alpha    119.50544962519605
_cell_angle_beta     96.0875388061767
_cell_angle_gamma    87.51450251511551

_space_group_name_H-M_alt    "P 1"
_space_group_IT_number       1

loop_
  _space_group_symop_operation_xyz
  'x, y, z'

loop_
  _atom_site_type_symbol
  _atom_site_label
  _atom_site_symmetry_multiplicity
  _atom_site_fract_x
  _atom_site_fract_y
  _atom_site_fract_z
  _atom_site_occupancy
  H   H1        1.0  0.39223137497901917  0.713161051273346  0.7512898445129395  1.0000
  Ni  Ni1       1.0  0.17645223438739777  0.6980937123298645  0.06066621467471123  1.0000
  Ni  Ni2       1.0  0.18873977661132812  0.11941299587488174  0.7179523706436157  1.0000
  Ni  Ni3       1.0  0.9582788348197936  0.688060998916626  0.6890632510185242  1.0000
  Ni  Ni4       1.0  0.6415980458259583  0.9414200186729431  0.8458378911018372  1.0000
  Ni  Ni5       1.0  0.6542361378669739  0.02461782656610012  0.9531182646751404  1.0000
  Y   Y1        1.0  0.9214691519737243  0.7551071643829346  0.5298351645469666  1.0000
  Y   Y2        1.0  0.42396774888038635  0.4082556962966919  0.26605895161628723  1.0000
  Y   Y3        1.0  0.925930619239807  0.34281837940216064  0.24865862727165222  1.0000
  Y   Y4        1.0  0.4139555096626282  0.4086003303527832  0.6055394411087036  1.0000
