data_image0
_chemical_formula_structural       HNi6Y3
_chemical_formula_sum              "H1 Ni6 Y3"
_cell_length_a       5.337853372824829
_cell_length_b       6.099662479124902
_cell_length_c       7.089702606201172
_cell_angle_alpha    67.52579729327127
_cell_angle_beta     63.88351929127177
_cell_angle_gamma    63.5451912707288

_space_group_name_H-M_alt    "P 1"
_space_group_IT_number       1

loop_
  _space_group_symop_operation_xyz
  'x, y, z'

loop_
  _atom_site_type_symbol
  _atom_site_label
  _atom_site_symmetry_multiplicity
  _atom_site_fract_x
  _atom_site_fract_y
  _atom_site_fract_z
  _atom_site_occupancy
  H   H1        1.0  0.8567551374435425  0.059117645025253296  0.07297068834304815  1.0000
  Ni  Ni1       1.0  0.48550838232040405  0.5541279315948486  0.5911164283752441  1.0000
  Ni  Ni2       1.0  0.5798479914665222  0.04218226298689842  0.6614725589752197  1.0000
  Ni  Ni3       1.0  0.04078393056988716  0.08918607980012894  0.12618374824523926  1.0000
  Ni  Ni4       1.0  0.977193295955658  0.5608318448066711  0.11196266114711761  1.0000
  Ni  Ni5       1.0  0.8700471520423889  0.4999179542064667  0.7027339339256287  1.0000
  Ni  Ni6       1.0  0.8490548729896545  0.4898867607116699  0.19934630393981934  1.0000
  Y   Y1        1.0  0.2434397041797638  0.010550043545663357  0.8366507887840271  1.0000
  Y   Y2        1.0  0.26542261242866516  0.5465207695960999  0.17512978613376617  1.0000
  Y   Y3        1.0  0.5341559052467346  0.5630398392677307  0.591891884803772  1.0000
