data_image0
_chemical_formula_structural       H2Ni6Y2
_chemical_formula_sum              "H2 Ni6 Y2"
_cell_length_a       4.794416261552336
_cell_length_b       6.1174368873229055
_cell_length_c       5.596200942993164
_cell_angle_alpha    114.83963962094414
_cell_angle_beta     106.26982552086108
_cell_angle_gamma    93.68928081282306

_space_group_name_H-M_alt    "P 1"
_space_group_IT_number       1

loop_
  _space_group_symop_operation_xyz
  'x, y, z'

loop_
  _atom_site_type_symbol
  _atom_site_label
  _atom_site_symmetry_multiplicity
  _atom_site_fract_x
  _atom_site_fract_y
  _atom_site_fract_z
  _atom_site_occupancy
  H   H1        1.0  0.9362905025482178  0.7047843933105469  0.201393112540245  1.0000
  H   H2        1.0  0.4717238247394562  0.10389961302280426  0.09370427578687668  1.0000
  Ni  Ni1       1.0  0.0660114586353302  0.08427469432353973  0.10670994222164155  1.0000
  Ni  Ni2       1.0  0.35308435559272766  0.6078572273254395  0.3930380642414093  1.0000
  Ni  Ni3       1.0  0.7361130118370056  0.9905951023101807  0.43924483656883234  1.0000
  Ni  Ni4       1.0  0.6575717926025391  0.5981011390686035  0.9442496299743653  1.0000
  Ni  Ni5       1.0  0.6479986906051636  0.07702662795782089  0.1018930971622467  1.0000
  Ni  Ni6       1.0  0.3725048303604126  0.2880805432796478  0.3959016501903534  1.0000
  Y   Y1        1.0  0.17822308838367462  0.009641659446060658  0.5382346510887146  1.0000
  Y   Y2        1.0  0.16558246314525604  0.977958619594574  0.7458022236824036  1.0000
