data_image0
_chemical_formula_structural       ClZr6
_chemical_formula_sum              "Cl1 Zr6"
_cell_length_a       5.480469278327913
_cell_length_b       5.090397495595696
_cell_length_c       5.874002933502197
_cell_angle_alpha    66.47709886203145
_cell_angle_beta     64.47708163325555
_cell_angle_gamma    60.34301992543207

_space_group_name_H-M_alt    "P 1"
_space_group_IT_number       1

loop_
  _space_group_symop_operation_xyz
  'x, y, z'

loop_
  _atom_site_type_symbol
  _atom_site_label
  _atom_site_symmetry_multiplicity
  _atom_site_fract_x
  _atom_site_fract_y
  _atom_site_fract_z
  _atom_site_occupancy
  Cl  Cl1       1.0  0.4600608944892883  0.7946813106536865  0.7949199080467224  1.0000
  Zr  Zr1       1.0  0.07670570909976959  0.48903921246528625  0.7667784094810486  1.0000
  Zr  Zr2       1.0  0.5992547273635864  0.017352236434817314  0.9566710591316223  1.0000
  Zr  Zr3       1.0  0.0762517899274826  0.6974231004714966  0.19968323409557343  1.0000
  Zr  Zr4       1.0  0.08002587407827377  0.3845382034778595  0.45483821630477905  1.0000
  Zr  Zr5       1.0  0.6507459878921509  0.025196146219968796  0.45821934938430786  1.0000
  Zr  Zr6       1.0  0.41864141821861267  0.5076560378074646  0.9628448486328125  1.0000
