data_image0
_chemical_formula_structural       As2BLu4PRuZn
_chemical_formula_sum              "As2 B1 Lu4 P1 Ru1 Zn1"
_cell_length_a       4.899989506960901
_cell_length_b       5.069661442122464
_cell_length_c       7.655704498291016
_cell_angle_alpha    90.82082517612335
_cell_angle_beta     89.52053862194475
_cell_angle_gamma    126.3379787786753

_space_group_name_H-M_alt    "P 1"
_space_group_IT_number       1

loop_
  _space_group_symop_operation_xyz
  'x, y, z'

loop_
  _atom_site_type_symbol
  _atom_site_label
  _atom_site_symmetry_multiplicity
  _atom_site_fract_x
  _atom_site_fract_y
  _atom_site_fract_z
  _atom_site_occupancy
  As  As1       1.0  0.14391055703163147  0.7434760332107544  0.013214563019573689  1.0000
  As  As2       1.0  0.15969252586364746  0.35290592908859253  0.055924512445926666  1.0000
  B   B1        1.0  0.15872074663639069  0.48407870531082153  0.3571791350841522  1.0000
  Lu  Lu1       1.0  0.3667535185813904  0.5820202827453613  0.446815550327301  1.0000
  Lu  Lu2       1.0  0.6841331124305725  0.369377464056015  0.17085231840610504  1.0000
  Lu  Lu3       1.0  0.6915004849433899  0.4669252336025238  0.12043538689613342  1.0000
  Lu  Lu4       1.0  0.8491525053977966  0.4822966456413269  0.8878193497657776  1.0000
  P   P1        1.0  0.6818662881851196  0.039013270288705826  0.19993990659713745  1.0000
  Ru  Ru1       1.0  0.158647358417511  0.9610064625740051  0.42839089035987854  1.0000
  Zn  Zn1       1.0  0.6913824677467346  0.8061720728874207  0.38519322872161865  1.0000
