data_image0
_chemical_formula_structural       As2Lu7Zn
_chemical_formula_sum              "As2 Lu7 Zn1"
_cell_length_a       5.336830041702255
_cell_length_b       5.81556165818229
_cell_length_c       8.33631706237793
_cell_angle_alpha    103.85257925196129
_cell_angle_beta     103.25999426272953
_cell_angle_gamma    113.94278065925775

_space_group_name_H-M_alt    "P 1"
_space_group_IT_number       1

loop_
  _space_group_symop_operation_xyz
  'x, y, z'

loop_
  _atom_site_type_symbol
  _atom_site_label
  _atom_site_symmetry_multiplicity
  _atom_site_fract_x
  _atom_site_fract_y
  _atom_site_fract_z
  _atom_site_occupancy
  As  As1       1.0  0.3463915288448334  0.563502848148346  0.2463781237602234  1.0000
  As  As2       1.0  0.8050451874732971  0.3754270374774933  0.7561903595924377  1.0000
  Lu  Lu1       1.0  0.9336443543434143  0.8326311111450195  0.7680544853210449  1.0000
  Lu  Lu2       1.0  0.7986891865730286  0.8615885376930237  0.0248409453779459  1.0000
  Lu  Lu3       1.0  0.28986722230911255  0.7090648412704468  0.847187340259552  1.0000
  Lu  Lu4       1.0  0.8026164770126343  0.48813149333000183  0.9491132497787476  1.0000
  Lu  Lu5       1.0  0.3101107180118561  0.18993932008743286  0.46174684166908264  1.0000
  Lu  Lu6       1.0  0.2862022817134857  0.8035023808479309  0.020205650478601456  1.0000
  Lu  Lu7       1.0  0.3154475688934326  0.41448119282722473  0.9200046062469482  1.0000
  Zn  Zn1       1.0  0.8181269764900208  0.31020185351371765  0.44537991285324097  1.0000
