data_image0
_chemical_formula_structural       BLu2Ru7
_chemical_formula_sum              "B1 Lu2 Ru7"
_cell_length_a       4.485361278132455
_cell_length_b       4.179975995103532
_cell_length_c       6.174798011779785
_cell_angle_alpha    105.15457200068485
_cell_angle_beta     103.26516034806112
_cell_angle_gamma    110.0492433400744

_space_group_name_H-M_alt    "P 1"
_space_group_IT_number       1

loop_
  _space_group_symop_operation_xyz
  'x, y, z'

loop_
  _atom_site_type_symbol
  _atom_site_label
  _atom_site_symmetry_multiplicity
  _atom_site_fract_x
  _atom_site_fract_y
  _atom_site_fract_z
  _atom_site_occupancy
  B   B1        1.0  0.9520353674888611  0.3037063479423523  0.976982355117798  1.0000
  Lu  Lu1       1.0  0.17208431661128998  0.028731362894177437  0.6239297986030579  1.0000
  Lu  Lu2       1.0  0.45529428124427795  0.3474308252334595  0.032397277653217316  1.0000
  Ru  Ru1       1.0  0.4440024793148041  0.3258519768714905  0.3849813640117645  1.0000
  Ru  Ru2       1.0  0.9503827691078186  0.6186131834983826  0.3267010450363159  1.0000
  Ru  Ru3       1.0  0.9528971314430237  0.8458791971206665  0.403956413269043  1.0000
  Ru  Ru4       1.0  0.37282243371009827  0.9627768397331238  0.6400638222694397  1.0000
  Ru  Ru5       1.0  0.4396481513977051  0.3638319969177246  0.66049724817276  1.0000
  Ru  Ru6       1.0  0.704793393611908  0.8677544593811035  0.6044145226478577  1.0000
  Ru  Ru7       1.0  0.7028212547302246  0.3474906384944916  0.6072301864624023  1.0000
