data_image0
_chemical_formula_structural       AsLu6Ru2Zn
_chemical_formula_sum              "As1 Lu6 Ru2 Zn1"
_cell_length_a       4.995578231371479
_cell_length_b       5.030335523963251
_cell_length_c       7.03934383392334
_cell_angle_alpha    111.73403254764814
_cell_angle_beta     96.67752220623763
_cell_angle_gamma    92.15530585361655

_space_group_name_H-M_alt    "P 1"
_space_group_IT_number       1

loop_
  _space_group_symop_operation_xyz
  'x, y, z'

loop_
  _atom_site_type_symbol
  _atom_site_label
  _atom_site_symmetry_multiplicity
  _atom_site_fract_x
  _atom_site_fract_y
  _atom_site_fract_z
  _atom_site_occupancy
  As  As1       1.0  0.6030428409576416  0.6196351051330566  0.2121587097644806  1.0000
  Lu  Lu1       1.0  0.3830248713493347  0.7534154653549194  0.5417952537536621  1.0000
  Lu  Lu2       1.0  0.8507596850395203  0.31874585151672363  0.3978695869445801  1.0000
  Lu  Lu3       1.0  0.8488438725471497  0.01080506481230259  0.5053246617317199  1.0000
  Lu  Lu4       1.0  0.3183154761791229  0.5152485966682434  0.07940799742937088  1.0000
  Lu  Lu5       1.0  0.7979822158813477  0.4033922553062439  0.2128242403268814  1.0000
  Lu  Lu6       1.0  0.14641988277435303  0.13506001234054565  0.3487173616886139  1.0000
  Ru  Ru1       1.0  0.36953842639923096  0.5163788795471191  0.8367658257484436  1.0000
  Ru  Ru2       1.0  0.15014947950839996  0.28821200132369995  0.41084256768226624  1.0000
  Zn  Zn1       1.0  0.6359615921974182  0.35220736265182495  0.859622597694397  1.0000
