data_image0
_chemical_formula_structural       LuRu9
_chemical_formula_sum              "Lu1 Ru9"
_cell_length_a       4.765941025931849
_cell_length_b       5.046413892544395
_cell_length_c       6.016717910766602
_cell_angle_alpha    99.02681321694915
_cell_angle_beta     100.66271095287853
_cell_angle_gamma    96.037485238307

_space_group_name_H-M_alt    "P 1"
_space_group_IT_number       1

loop_
  _space_group_symop_operation_xyz
  'x, y, z'

loop_
  _atom_site_type_symbol
  _atom_site_label
  _atom_site_symmetry_multiplicity
  _atom_site_fract_x
  _atom_site_fract_y
  _atom_site_fract_z
  _atom_site_occupancy
  Lu  Lu1       1.0  0.3110958933830261  0.6185584664344788  0.6096264123916626  1.0000
  Ru  Ru1       1.0  0.29895007610321045  0.7394348978996277  0.4874247312545777  1.0000
  Ru  Ru2       1.0  0.7994707226753235  0.9916538000106812  0.0649956464767456  1.0000
  Ru  Ru3       1.0  0.8149502873420715  0.7228794693946838  0.256175696849823  1.0000
  Ru  Ru4       1.0  0.7956247925758362  0.6059801578521729  0.48123314976692205  1.0000
  Ru  Ru5       1.0  0.3057864010334015  0.5959405303001404  0.4488096833229065  1.0000
  Ru  Ru6       1.0  0.7933539748191833  0.05849820002913475  0.3267885148525238  1.0000
  Ru  Ru7       1.0  0.2990189790725708  0.11762219667434692  0.46383330225944525  1.0000
  Ru  Ru8       1.0  0.29887622594833374  0.026442501693964005  0.5393102169036865  1.0000
  Ru  Ru9       1.0  0.3074263334274292  0.4761441946029663  0.6852436065673828  1.0000
