data_image0
_chemical_formula_structural       Lu7PRuZn
_chemical_formula_sum              "Lu7 P1 Ru1 Zn1"
_cell_length_a       4.549249075964058
_cell_length_b       5.422219740298994
_cell_length_c       6.784567832946777
_cell_angle_alpha    97.42433449335928
_cell_angle_beta     90.06316809714735
_cell_angle_gamma    89.04738556331512

_space_group_name_H-M_alt    "P 1"
_space_group_IT_number       1

loop_
  _space_group_symop_operation_xyz
  'x, y, z'

loop_
  _atom_site_type_symbol
  _atom_site_label
  _atom_site_symmetry_multiplicity
  _atom_site_fract_x
  _atom_site_fract_y
  _atom_site_fract_z
  _atom_site_occupancy
  Lu  Lu1       1.0  0.4935073256492615  0.5153462886810303  0.19055679440498352  1.0000
  Lu  Lu2       1.0  0.0051569752395153046  0.7893844842910767  0.09590128064155577  1.0000
  Lu  Lu3       1.0  0.9934801459312439  0.44271320104599  0.4800460934638977  1.0000
  Lu  Lu4       1.0  0.008725587278604507  0.34970203042030334  0.9651501774787903  1.0000
  Lu  Lu5       1.0  0.9924105405807495  0.4141666889190674  0.5254291892051697  1.0000
  Lu  Lu6       1.0  0.5003892779350281  0.7835144996643066  0.8403583765029907  1.0000
  Lu  Lu7       1.0  0.006560253910720348  0.2928043603897095  0.4910186529159546  1.0000
  P   P1        1.0  0.9839233160018921  0.6967527866363525  0.9620880484580994  1.0000
  Ru  Ru1       1.0  0.49533987045288086  0.2593945860862732  0.3781842291355133  1.0000
  Zn  Zn1       1.0  0.4927365779876709  0.4451896846294403  0.4855325222015381  1.0000
