data_image0
_chemical_formula_structural       CaHgLaOPb3RbTb
_chemical_formula_sum              "Ca1 Hg1 La1 O1 Pb3 Rb1 Tb1"
_cell_length_a       5.712318677608004
_cell_length_b       6.55647366864583
_cell_length_c       8.130476951599121
_cell_angle_alpha    126.9032714791767
_cell_angle_beta     87.39827392047283
_cell_angle_gamma    89.92747166218487

_space_group_name_H-M_alt    "P 1"
_space_group_IT_number       1

loop_
  _space_group_symop_operation_xyz
  'x, y, z'

loop_
  _atom_site_type_symbol
  _atom_site_label
  _atom_site_symmetry_multiplicity
  _atom_site_fract_x
  _atom_site_fract_y
  _atom_site_fract_z
  _atom_site_occupancy
  Ca  Ca1       1.0  0.12825490534305573  0.8344820737838745  0.06136960536241526  1.0000
  Hg  Hg1       1.0  0.12608587741851807  0.9168376922607422  0.6707572937011719  1.0000
  La  La1       1.0  0.11675652861595154  0.415684312582016  0.5162882804870605  1.0000
  O   O1        1.0  0.6212915778160095  0.7626153826713562  0.6514021754264832  1.0000
  Pb  Pb1       1.0  0.34651657938957214  0.7731580138206482  0.29313990473747253  1.0000
  Pb  Pb2       1.0  0.8408994674682617  0.056515440344810486  0.07271226495504379  1.0000
  Pb  Pb3       1.0  0.8524304628372192  0.1157090812921524  0.2875719666481018  1.0000
  Rb  Rb1       1.0  0.5886303782463074  0.06514211744070053  0.3845614194869995  1.0000
  Tb  Tb1       1.0  0.6032314300537109  0.28235721588134766  0.26160481572151184  1.0000
