data_image0
_chemical_formula_structural       HO4PbTb3
_chemical_formula_sum              "H1 O4 Pb1 Tb3"
_cell_length_a       7.486757934085585
_cell_length_b       7.331285291944885
_cell_length_c       7.660153865814209
_cell_angle_alpha    71.6256242772378
_cell_angle_beta     63.92834388123834
_cell_angle_gamma    62.055412349096265

_space_group_name_H-M_alt    "P 1"
_space_group_IT_number       1

loop_
  _space_group_symop_operation_xyz
  'x, y, z'

loop_
  _atom_site_type_symbol
  _atom_site_label
  _atom_site_symmetry_multiplicity
  _atom_site_fract_x
  _atom_site_fract_y
  _atom_site_fract_z
  _atom_site_occupancy
  H   H1        1.0  0.6707874536514282  0.3805800080299378  0.7850240468978882  1.0000
  O   O1        1.0  0.7697315216064453  0.5323903560638428  0.5173100829124451  1.0000
  O   O2        1.0  0.3542395830154419  0.12928609549999237  0.7726345658302307  1.0000
  O   O3        1.0  0.41625693440437317  0.35963663458824163  0.7794109582901001  1.0000
  O   O4        1.0  0.9933682084083557  0.42737475037574774  0.6220533847808838  1.0000
  Pb  Pb1       1.0  0.12637938559055326  0.6809386610984803  0.2015201300382614  1.0000
  Tb  Tb1       1.0  0.6442841291427612  0.9866687059402467  0.9595800042152405  1.0000
  Tb  Tb2       1.0  0.6436760425567627  0.7028216123580934  0.17228202521800995  1.0000
  Tb  Tb3       1.0  0.12479376047849648  0.9321707487106324  0.9710265398025513  1.0000
