data_image0
_chemical_formula_structural       AlCaGeO4PbTb
_chemical_formula_sum              "Al1 Ca1 Ge1 O4 Pb1 Tb1"
_cell_length_a       5.430329508830139
_cell_length_b       6.212137012980926
_cell_length_c       6.855969429016113
_cell_angle_alpha    115.87970543106186
_cell_angle_beta     91.36007658781577
_cell_angle_gamma    90.37904499148281

_space_group_name_H-M_alt    "P 1"
_space_group_IT_number       1

loop_
  _space_group_symop_operation_xyz
  'x, y, z'

loop_
  _atom_site_type_symbol
  _atom_site_label
  _atom_site_symmetry_multiplicity
  _atom_site_fract_x
  _atom_site_fract_y
  _atom_site_fract_z
  _atom_site_occupancy
  Al  Al1       1.0  0.3664211928844452  0.18126623332500458  0.45693227648735046  1.0000
  Ca  Ca1       1.0  0.35661715269088745  0.7762346863746643  0.4773198962211609  1.0000
  Ge  Ge1       1.0  0.8536688685417175  0.5766421556472778  0.45297014713287354  1.0000
  O   O1        1.0  0.9977272152900696  0.9560182094573973  0.036118004471063614  1.0000
  O   O2        1.0  0.4223167300224304  0.7248111963272095  0.5861369371414185  1.0000
  O   O3        1.0  0.5361332297325134  0.06490133702754974  0.5514968037605286  1.0000
  O   O4        1.0  0.959835946559906  0.6741241812705994  0.10889463126659393  1.0000
  Pb  Pb1       1.0  0.8451988697052002  0.7146012187004089  0.05058259144425392  1.0000
  Tb  Tb1       1.0  0.37410402297973633  0.46697634458541865  0.4320466220378876  1.0000
