data_image0
_chemical_formula_structural       Hg9
_chemical_formula_sum              "Hg9"
_cell_length_a       6.0092152701347485
_cell_length_b       5.994714110770161
_cell_length_c       6.303934097290039
_cell_angle_alpha    106.99715775045517
_cell_angle_beta     90.80175859993977
_cell_angle_gamma    93.70602544526446

_space_group_name_H-M_alt    "P 1"
_space_group_IT_number       1

loop_
  _space_group_symop_operation_xyz
  'x, y, z'

loop_
  _atom_site_type_symbol
  _atom_site_label
  _atom_site_symmetry_multiplicity
  _atom_site_fract_x
  _atom_site_fract_y
  _atom_site_fract_z
  _atom_site_occupancy
  Hg  Hg1       1.0  0.7814884781837463  0.6894147992134094  0.5234586000442505  1.0000
  Hg  Hg2       1.0  0.7792840003967285  0.5689657926559448  0.7646936774253845  1.0000
  Hg  Hg3       1.0  0.7873535752296448  0.33014824986457825  0.4043097496032715  1.0000
  Hg  Hg4       1.0  0.29891809821128845  0.058407533913850784  0.041284531354904175  1.0000
  Hg  Hg5       1.0  0.12454701215028763  0.5188692808151245  0.6060261130332947  1.0000
  Hg  Hg6       1.0  0.14715035259723663  0.49251464009284973  0.8583196401596069  1.0000
  Hg  Hg7       1.0  0.30293166637420654  0.5685598850250244  0.3340960741043091  1.0000
  Hg  Hg8       1.0  0.7784426212310791  0.8717870712280273  0.05030309408903122  1.0000
  Hg  Hg9       1.0  0.7816662788391113  0.44067540764808655  0.08296049386262894  1.0000
