data_image0
_chemical_formula_structural       B4H3Li2OPRh
_chemical_formula_sum              "B4 H3 Li2 O1 P1 Rh1"
_cell_length_a       5.325888421162086
_cell_length_b       5.625234682630813
_cell_length_c       5.724499702453613
_cell_angle_alpha    60.05633541011219
_cell_angle_beta     58.97223344051691
_cell_angle_gamma    58.726321799197

_space_group_name_H-M_alt    "P 1"
_space_group_IT_number       1

loop_
  _space_group_symop_operation_xyz
  'x, y, z'

loop_
  _atom_site_type_symbol
  _atom_site_label
  _atom_site_symmetry_multiplicity
  _atom_site_fract_x
  _atom_site_fract_y
  _atom_site_fract_z
  _atom_site_occupancy
  B   B1        1.0  0.19351698458194733  0.6187523603439331  0.7793110609054565  1.0000
  B   B2        1.0  0.22896233201026917  0.6216508746147156  0.7432079315185547  1.0000
  B   B3        1.0  0.18744567036628723  0.629595935344696  0.7638649344444275  1.0000
  B   B4        1.0  0.31656569242477417  0.13141551613807678  0.9629786610603333  1.0000
  H   H1        1.0  0.6645879745483398  0.6097298860549927  0.7083778381347656  1.0000
  H   H2        1.0  0.6631934642791748  0.12012695521116257  0.21349948644638062  1.0000
  H   H3        1.0  0.9589348435401917  0.9296866655349731  0.7041752934455872  1.0000
  Li  Li1       1.0  0.30780816078186035  0.1373176872730255  0.4405500590801239  1.0000
  Li  Li2       1.0  0.7955846190452576  0.6430743932723999  0.2767471373081207  1.0000
  O   O1        1.0  0.9434418082237244  0.8980889916419983  0.00745750078931443  1.0000
  P   P1        1.0  0.6677469611167908  0.13548371195793152  0.7118533253669739  1.0000
  Rh  Rh1       1.0  0.28353196382522583  0.317043662071228  0.7620863318443298  1.0000
