data_image0
_chemical_formula_structural       B5H3Li2OP
_chemical_formula_sum              "B5 H3 Li2 O1 P1"
_cell_length_a       4.889448656571943
_cell_length_b       5.0065801088242985
_cell_length_c       5.202680587768555
_cell_angle_alpha    57.729532978924546
_cell_angle_beta     58.94706042934246
_cell_angle_gamma    54.413859435842205

_space_group_name_H-M_alt    "P 1"
_space_group_IT_number       1

loop_
  _space_group_symop_operation_xyz
  'x, y, z'

loop_
  _atom_site_type_symbol
  _atom_site_label
  _atom_site_symmetry_multiplicity
  _atom_site_fract_x
  _atom_site_fract_y
  _atom_site_fract_z
  _atom_site_occupancy
  B   B1        1.0  0.8646206855773926  0.24332620203495026  0.9630051255226135  1.0000
  B   B2        1.0  0.23044651746749878  0.3163835406303406  0.2250487208366394  1.0000
  B   B3        1.0  0.524945080280304  0.5045411586761475  0.4976584315299988  1.0000
  B   B4        1.0  0.19820217788219452  0.054695356637239456  0.07807750254869461  1.0000
  B   B5        1.0  0.7742310166358948  0.45840293169021606  0.6924599409103394  1.0000
  H   H1        1.0  0.9960511922836304  0.8197704553604126  0.23514635860919952  1.0000
  H   H2        1.0  0.4914705753326416  0.13660094141960144  0.3938749432563782  1.0000
  H   H3        1.0  0.5039524435997009  0.30173420906066895  0.7372063994407654  1.0000
  Li  Li1       1.0  0.824396550655365  0.4515385329723358  0.705288827419281  1.0000
  Li  Li2       1.0  0.5264023542404175  0.8452279567718506  0.3719598948955536  1.0000
  O   O1        1.0  0.928259551525116  0.4353582561016083  0.48853909969329834  1.0000
  P   P1        1.0  0.6017857193946838  0.6971776485443115  0.9428316354751587  1.0000
