data_image0
_chemical_formula_structural       B4FH4LiOP
_chemical_formula_sum              "B4 F1 H4 Li1 O1 P1"
_cell_length_a       5.301195153146815
_cell_length_b       5.2577696014437505
_cell_length_c       5.549768447875977
_cell_angle_alpha    64.51027943722852
_cell_angle_beta     64.65848459121666
_cell_angle_gamma    63.49685161088293

_space_group_name_H-M_alt    "P 1"
_space_group_IT_number       1

loop_
  _space_group_symop_operation_xyz
  'x, y, z'

loop_
  _atom_site_type_symbol
  _atom_site_label
  _atom_site_symmetry_multiplicity
  _atom_site_fract_x
  _atom_site_fract_y
  _atom_site_fract_z
  _atom_site_occupancy
  B   B1        1.0  0.41032376885414124  0.535031795501709  0.8372863531112671  1.0000
  B   B2        1.0  0.5565981864929199  0.23998470604419708  0.41676563024520874  1.0000
  B   B3        1.0  0.8679497241973877  0.5171301364898682  0.20244866609573364  1.0000
  B   B4        1.0  0.3785076439380646  0.3672453761100769  0.9028674960136414  1.0000
  F   F1        1.0  0.8558200597763062  0.804546594619751  0.4013950526714325  1.0000
  H   H1        1.0  0.19617782533168793  0.2622074782848358  0.7293280363082886  1.0000
  H   H2        1.0  0.6572508215904236  0.5589891672134399  0.12746095657348633  1.0000
  H   H3        1.0  0.19122982025146484  0.5411757826805115  0.7316663265228271  1.0000
  H   H4        1.0  0.12129495292901993  0.06483794748783112  0.9149311184883118  1.0000
  Li  Li1       1.0  0.722239077091217  0.9553409814834595  0.7331230044364929  1.0000
  O   O1        1.0  0.9812912344932556  0.3676564395427704  0.5621054172515869  1.0000
  P   P1        1.0  0.637303352355957  0.09500089287757874  0.5006719827651978  1.0000
