data_image0
_chemical_formula_structural       B3H7NNa
_chemical_formula_sum              "B3 H7 N1 Na1"
_cell_length_a       4.430727799814531
_cell_length_b       4.597422998745575
_cell_length_c       5.302877902984619
_cell_angle_alpha    62.03422657433248
_cell_angle_beta     63.24627151124694
_cell_angle_gamma    60.04339760968633

_space_group_name_H-M_alt    "P 1"
_space_group_IT_number       1

loop_
  _space_group_symop_operation_xyz
  'x, y, z'

loop_
  _atom_site_type_symbol
  _atom_site_label
  _atom_site_symmetry_multiplicity
  _atom_site_fract_x
  _atom_site_fract_y
  _atom_site_fract_z
  _atom_site_occupancy
  B   B1        1.0  0.4029186666011811  0.9977008104324341  0.8889505267143248  1.0000
  B   B2        1.0  0.1512138992547989  0.4625176787376404  0.14806893467903137  1.0000
  B   B3        1.0  0.6282621026039124  0.995466947555542  0.1685945838689804  1.0000
  H   H1        1.0  0.45033398270607  0.2530246376991272  0.36504930257797236  1.0000
  H   H2        1.0  0.7039986252784729  0.4879506528377533  0.28895699977874756  1.0000
  H   H3        1.0  0.10357456654310228  0.008062898181378841  0.1889630556106567  1.0000
  H   H4        1.0  0.5379083156585693  0.7777346968650818  0.688029944896698  1.0000
  H   H5        1.0  0.06214993819594384  0.6284229159355164  0.4589157104492187  1.0000
  H   H6        1.0  0.43094137310981756  0.01977778784930706  0.9529315233230589  1.0000
  H   H7        1.0  0.1774963140487671  0.5061459541320801  0.6255337595939636  1.0000
  N   N1        1.0  0.7815089225769044  0.022977640852332115  0.3793728351593017  1.0000
  Na  Na1       1.0  0.6967865228652954  0.7270008325576782  0.3759097158908844  1.0000
