data_image0
_chemical_formula_structural       B3H5N2OZn
_chemical_formula_sum              "B3 H5 N2 O1 Zn1"
_cell_length_a       4.207970524199326
_cell_length_b       4.70956486639624
_cell_length_c       5.215470790863037
_cell_angle_alpha    110.26573653942476
_cell_angle_beta     105.92539237554801
_cell_angle_gamma    101.70571318275066

_space_group_name_H-M_alt    "P 1"
_space_group_IT_number       1

loop_
  _space_group_symop_operation_xyz
  'x, y, z'

loop_
  _atom_site_type_symbol
  _atom_site_label
  _atom_site_symmetry_multiplicity
  _atom_site_fract_x
  _atom_site_fract_y
  _atom_site_fract_z
  _atom_site_occupancy
  B   B1        1.0  0.7716778516769409  0.8743254542350769  0.435323029756546  1.0000
  B   B2        1.0  0.30598369240760803  0.37509530782699585  0.26818281412124634  1.0000
  B   B3        1.0  0.6087279915809631  0.23164623975753784  0.5314876437187195  1.0000
  H   H1        1.0  0.0701649859547615  0.2246347963809967  0.01332833431661129  1.0000
  H   H2        1.0  0.26093339920043945  0.9462960362434387  0.6046926379203796  1.0000
  H   H3        1.0  0.07130428403615952  0.21001365780830383  0.8395674228668213  1.0000
  H   H4        1.0  0.5849174857139587  0.19547848403453827  0.8141743540763855  1.0000
  H   H5        1.0  0.3226403594017029  0.7178601026535034  0.8591997623443604  1.0000
  N   N1        1.0  0.28488168120384216  0.8682053685188293  0.3453742563724518  1.0000
  N   N2        1.0  0.8961663246154785  0.6919897794723511  0.6241313815116882  1.0000
  O   O1        1.0  0.7481660842895508  0.508022665977478  0.35458317399024963  1.0000
  Zn  Zn1       1.0  0.9357575178146362  0.9677801728248596  0.9195572733879089  1.0000
