data_image0
_chemical_formula_structural       B4FH4LiOZn
_chemical_formula_sum              "B4 F1 H4 Li1 O1 Zn1"
_cell_length_a       5.4828204690781615
_cell_length_b       5.389408427742831
_cell_length_c       5.621144771575928
_cell_angle_alpha    60.0136661645561
_cell_angle_beta     60.944549161632786
_cell_angle_gamma    59.143886835981895

_space_group_name_H-M_alt    "P 1"
_space_group_IT_number       1

loop_
  _space_group_symop_operation_xyz
  'x, y, z'

loop_
  _atom_site_type_symbol
  _atom_site_label
  _atom_site_symmetry_multiplicity
  _atom_site_fract_x
  _atom_site_fract_y
  _atom_site_fract_z
  _atom_site_occupancy
  B   B1        1.0  0.2586783170700073  0.6920585036277771  0.5146536827087402  1.0000
  B   B2        1.0  0.7593520283699036  0.47709423303604126  0.5487512350082397  1.0000
  B   B3        1.0  0.2621646523475647  0.7204052209854126  0.5120471119880676  1.0000
  B   B4        1.0  0.9996901750564575  0.050070732831954956  0.45761263370513916  1.0000
  F   F1        1.0  0.7861173748970032  0.6993588209152222  0.7130415439605713  1.0000
  H   H1        1.0  0.6944009065628052  0.9470409154891968  0.2151724249124527  1.0000
  H   H2        1.0  0.1947250366210937  0.970690667629242  0.19085374474525452  1.0000
  H   H3        1.0  0.2037850320339203  0.1099843680858612  0.7204341292381287  1.0000
  H   H4        1.0  0.21158936619758606  0.7066236734390259  0.7345432043075562  1.0000
  Li  Li1       1.0  0.997791588306427  0.5188577771186829  0.21581929922103882  1.0000
  O   O1        1.0  0.6301707625389099  0.3247212767601013  0.46681153774261475  1.0000
  Zn  Zn1       1.0  0.527632474899292  0.18335050344467163  0.20703002810478208  1.0000
