data_image0
_chemical_formula_structural       Be3CeTi4Zr
_chemical_formula_sum              "Be3 Ce1 Ti4 Zr1"
_cell_length_a       4.336411357960191
_cell_length_b       5.56857991347569
_cell_length_c       6.971654891967773
_cell_angle_alpha    112.28096318822166
_cell_angle_beta     108.22970754985549
_cell_angle_gamma    89.90711431291905

_space_group_name_H-M_alt    "P 1"
_space_group_IT_number       1

loop_
  _space_group_symop_operation_xyz
  'x, y, z'

loop_
  _atom_site_type_symbol
  _atom_site_label
  _atom_site_symmetry_multiplicity
  _atom_site_fract_x
  _atom_site_fract_y
  _atom_site_fract_z
  _atom_site_occupancy
  Be  Be1       1.0  0.46795788407325745  0.5732231140136719  0.8698864579200745  1.0000
  Be  Be2       1.0  0.9660167694091797  0.09991943091154099  0.8608666062355043  1.0000
  Be  Be3       1.0  0.27618858218193054  0.15928062796592712  0.4873450994491577  1.0000
  Ce  Ce1       1.0  0.7118576765060425  0.8274280428886414  0.3589932322502136  1.0000
  Ti  Ti1       1.0  0.06070910766720772  0.8236554265022278  0.03787145018577579  1.0000
  Ti  Ti2       1.0  0.3729057312011719  0.8516567349433899  0.6953016519546509  1.0000
  Ti  Ti3       1.0  0.1612117886543274  0.4118383228778839  0.25406593084335327  1.0000
  Ti  Ti4       1.0  0.5578826069831848  0.27105775475502014  0.035402387380599976  1.0000
  Zr  Zr1       1.0  0.8500708341598511  0.4140193462371826  0.629606306552887  1.0000
