data_image0
_chemical_formula_structural       Be2FGdGeHfPbTiZr
_chemical_formula_sum              "Be2 F1 Gd1 Ge1 Hf1 Pb1 Ti1 Zr1"
_cell_length_a       5.566929529969078
_cell_length_b       5.566804532546055
_cell_length_c       5.532752990722656
_cell_angle_alpha    94.88235772852053
_cell_angle_beta     94.56916394043557
_cell_angle_gamma    95.87800438444489

_space_group_name_H-M_alt    "P 1"
_space_group_IT_number       1

loop_
  _space_group_symop_operation_xyz
  'x, y, z'

loop_
  _atom_site_type_symbol
  _atom_site_label
  _atom_site_symmetry_multiplicity
  _atom_site_fract_x
  _atom_site_fract_y
  _atom_site_fract_z
  _atom_site_occupancy
  Be  Be1       1.0  0.0020547155290842056  0.8539717793464661  0.4822537004947662  1.0000
  Be  Be2       1.0  0.5076138377189636  0.45093631744384766  0.9573591947555542  1.0000
  F   F1        1.0  0.696820855140686  0.3543863892555237  0.22567373514175415  1.0000
  Gd  Gd1       1.0  0.2514829635620117  0.9822682738304138  0.9541578888893127  1.0000
  Ge  Ge1       1.0  0.7225640416145325  0.773870587348938  0.8135143518447876  1.0000
  Hf  Hf1       1.0  0.5529806613922119  0.7085064053535461  0.35055938363075256  1.0000
  Pb  Pb1       1.0  0.2260577529668808  0.34279343485832214  0.541157066822052  1.0000
  Ti  Ti1       1.0  0.7292591333389282  0.2059575915336609  0.6317805051803589  1.0000
  Zr  Zr1       1.0  0.04379652068018913  0.5134587287902832  0.06751838326454163  1.0000
