data_image0
_chemical_formula_structural       BeErF4PrTiW
_chemical_formula_sum              "Be1 Er1 F4 Pr1 Ti1 W1"
_cell_length_a       5.287896512486518
_cell_length_b       5.281161900098651
_cell_length_c       5.2672953605651855
_cell_angle_alpha    96.30325459576603
_cell_angle_beta     96.13491964250208
_cell_angle_gamma    96.3372093691384

_space_group_name_H-M_alt    "P 1"
_space_group_IT_number       1

loop_
  _space_group_symop_operation_xyz
  'x, y, z'

loop_
  _atom_site_type_symbol
  _atom_site_label
  _atom_site_symmetry_multiplicity
  _atom_site_fract_x
  _atom_site_fract_y
  _atom_site_fract_z
  _atom_site_occupancy
  Be  Be1       1.0  0.6555593609809875  0.07988018542528152  0.21402792632579803  1.0000
  Er  Er1       1.0  0.006284594535827637  0.9437634944915771  0.8913218975067139  1.0000
  F   F1        1.0  0.9233779311180115  0.6151667833328247  0.1522211730480194  1.0000
  F   F2        1.0  0.5690599679946899  0.9828469157218933  0.8000446557998657  1.0000
  F   F3        1.0  0.1459730714559555  0.6229978799819946  0.6287765502929688  1.0000
  F   F4        1.0  0.27534452080726624  0.2124202698469162  0.21692855656147003  1.0000
  Pr  Pr1       1.0  0.5027807354927063  0.4405887722969055  0.881716787815094  1.0000
  Ti  Ti1       1.0  0.9489293694496155  0.3284657299518585  0.4076557159423828  1.0000
  W   W1        1.0  0.3832951486110687  0.8496025204658508  0.39765068888664246  1.0000
