data_image0
_chemical_formula_structural       Be3Ti4Zr2
_chemical_formula_sum              "Be3 Ti4 Zr2"
_cell_length_a       3.568242280488295
_cell_length_b       6.629574693164423
_cell_length_c       6.668595314025879
_cell_angle_alpha    120.08583457367311
_cell_angle_beta     90.04622170347731
_cell_angle_gamma    90.09653820581917

_space_group_name_H-M_alt    "P 1"
_space_group_IT_number       1

loop_
  _space_group_symop_operation_xyz
  'x, y, z'

loop_
  _atom_site_type_symbol
  _atom_site_label
  _atom_site_symmetry_multiplicity
  _atom_site_fract_x
  _atom_site_fract_y
  _atom_site_fract_z
  _atom_site_occupancy
  Be  Be1       1.0  0.16777203977108002  0.10372970253229141  0.6800281405448914  1.0000
  Be  Be2       1.0  0.6686387062072754  0.443087637424469  0.35492274165153503  1.0000
  Be  Be3       1.0  0.6708612442016602  0.7736830115318298  0.0035912075545639134  1.0000
  Ti  Ti1       1.0  0.6658526659011841  0.8538486957550049  0.4321689307689667  1.0000
  Ti  Ti2       1.0  0.6678577661514282  0.35511529445648193  0.6805416345596313  1.0000
  Ti  Ti3       1.0  0.6642733216285706  0.10635215789079666  0.9282670617103577  1.0000
  Ti  Ti4       1.0  0.166750967502594  0.6941720247268677  0.6788762807846069  1.0000
  Zr  Zr1       1.0  0.16608664393424988  0.1037934198975563  0.26581898331642145  1.0000
  Zr  Zr2       1.0  0.16825106739997864  0.5177112817764282  0.09081035107374191  1.0000
