data_image0
_chemical_formula_structural       Cl2CuLiPd3Sc2Zr2
_chemical_formula_sum              "Cl2 Cu1 Li1 Pd3 Sc2 Zr2"
_cell_length_a       6.509927412347896
_cell_length_b       6.63148084035502
_cell_length_c       7.077988147735596
_cell_angle_alpha    64.23157059684372
_cell_angle_beta     62.93726345342904
_cell_angle_gamma    61.46396112064309

_space_group_name_H-M_alt    "P 1"
_space_group_IT_number       1

loop_
  _space_group_symop_operation_xyz
  'x, y, z'

loop_
  _atom_site_type_symbol
  _atom_site_label
  _atom_site_symmetry_multiplicity
  _atom_site_fract_x
  _atom_site_fract_y
  _atom_site_fract_z
  _atom_site_occupancy
  Cl  Cl1       1.0  0.5432878732681274  0.0924665629863739  0.05439603328704833  1.0000
  Cl  Cl2       1.0  0.5525712966918945  0.5983012318611145  0.5867766737937927  1.0000
  Cu  Cu1       1.0  0.8860988616943359  0.08243819326162338  0.24174755811691281  1.0000
  Li  Li1       1.0  0.20132099092006683  0.0877842977643013  0.7912586331367492  1.0000
  Pd  Pd1       1.0  0.5526857376098633  0.6834520101547241  0.4509674906730651  1.0000
  Pd  Pd2       1.0  0.5606273412704468  0.8913522958755493  0.9153212904930114  1.0000
  Pd  Pd3       1.0  0.5479578971862793  0.587907075881958  0.07946729660034173  1.0000
  Sc  Sc1       1.0  0.3186025619506836  0.8326116800308228  0.43124336004257197  1.0000
  Sc  Sc2       1.0  0.5401796102523804  0.09133804589509964  0.06794390827417374  1.0000
  Zr  Zr1       1.0  0.3106016516685486  0.32721278071403503  0.0330785475671291  1.0000
  Zr  Zr2       1.0  0.858126699924469  0.7439408898353577  0.05576935037970542  1.0000
