data_image0
_chemical_formula_structural       AgClFPd3Sc3Zr2
_chemical_formula_sum              "Ag1 Cl1 F1 Pd3 Sc3 Zr2"
_cell_length_a       4.891472150799481
_cell_length_b       5.221726053836811
_cell_length_c       9.168939590454102
_cell_angle_alpha    94.88558777969017
_cell_angle_beta     92.42830378673874
_cell_angle_gamma    92.37266044998458

_space_group_name_H-M_alt    "P 1"
_space_group_IT_number       1

loop_
  _space_group_symop_operation_xyz
  'x, y, z'

loop_
  _atom_site_type_symbol
  _atom_site_label
  _atom_site_symmetry_multiplicity
  _atom_site_fract_x
  _atom_site_fract_y
  _atom_site_fract_z
  _atom_site_occupancy
  Ag  Ag1       1.0  0.01040438562631607  0.7160900235176086  0.8541974425315857  1.0000
  Cl  Cl1       1.0  0.15686839818954468  0.9398966431617738  0.6611235737800598  1.0000
  F   F1        1.0  0.9290224313735962  0.2504095733165741  0.9056177735328674  1.0000
  Pd  Pd1       1.0  0.050514295697212226  0.9120817780494691  0.42092907428741455  1.0000
  Pd  Pd2       1.0  0.5312338471412659  0.2055608630180359  0.05759632959961891  1.0000
  Pd  Pd3       1.0  0.07473155856132507  0.4376581013202668  0.5547955632209778  1.0000
  Sc  Sc1       1.0  0.3376469612121582  0.7352129220962524  0.878402829170227  1.0000
  Sc  Sc2       1.0  0.6985784769058228  0.7031922936439514  0.28301382064819336  1.0000
  Sc  Sc3       1.0  0.2903761863708496  0.7460630536079407  0.3542587161064148  1.0000
  Zr  Zr1       1.0  0.5573244690895081  0.22245413064956668  0.3992306888103485  1.0000
  Zr  Zr2       1.0  0.01517221238464117  0.7091352343559265  0.050357598811388016  1.0000
