data_image0
_chemical_formula_structural       ClCr5FHfMgPd2
_chemical_formula_sum              "Cl1 Cr5 F1 Hf1 Mg1 Pd2"
_cell_length_a       5.08322773491977
_cell_length_b       7.027333213126913
_cell_length_c       6.860062122344971
_cell_angle_alpha    121.55520929577597
_cell_angle_beta     89.89122601675467
_cell_angle_gamma    90.72037723617238

_space_group_name_H-M_alt    "P 1"
_space_group_IT_number       1

loop_
  _space_group_symop_operation_xyz
  'x, y, z'

loop_
  _atom_site_type_symbol
  _atom_site_label
  _atom_site_symmetry_multiplicity
  _atom_site_fract_x
  _atom_site_fract_y
  _atom_site_fract_z
  _atom_site_occupancy
  Cl  Cl1       1.0  0.2217317521572113  0.2106679528951645  0.8320325016975403  1.0000
  Cr  Cr1       1.0  0.7138849496841431  0.6195781230926514  0.4139000475406647  1.0000
  Cr  Cr2       1.0  0.7149255275726318  0.3362911641597748  0.6134613156318665  1.0000
  Cr  Cr3       1.0  0.7147316336631775  0.8490235805511475  0.4756607115268707  1.0000
  Cr  Cr4       1.0  0.21344709396362305  0.11415303498506546  0.6650063991546631  1.0000
  Cr  Cr5       1.0  0.20301073789596558  0.696304976940155  0.13243862986564636  1.0000
  F   F1        1.0  0.21042735874652863  0.5333245396614075  0.3475857377052307  1.0000
  Hf  Hf1       1.0  0.7195659875869751  0.9180400967597961  0.7294591069221497  1.0000
  Mg  Mg1       1.0  0.7078022360801697  0.13675738871097565  0.21188832819461823  1.0000
  Pd  Pd1       1.0  0.7094166278839111  0.601475715637207  0.9608715176582336  1.0000
  Pd  Pd2       1.0  0.2098938375711441  0.010461588390171528  0.7525631785392761  1.0000
