data_image0
_chemical_formula_structural       ClFMnPdPrSc3ZnZr2
_chemical_formula_sum              "Cl1 F1 Mn1 Pd1 Pr1 Sc3 Zn1 Zr2"
_cell_length_a       4.522408460326565
_cell_length_b       8.036694468372497
_cell_length_c       8.326287269592285
_cell_angle_alpha    119.50949237365032
_cell_angle_beta     89.05684002958277
_cell_angle_gamma    90.05929651367546

_space_group_name_H-M_alt    "P 1"
_space_group_IT_number       1

loop_
  _space_group_symop_operation_xyz
  'x, y, z'

loop_
  _atom_site_type_symbol
  _atom_site_label
  _atom_site_symmetry_multiplicity
  _atom_site_fract_x
  _atom_site_fract_y
  _atom_site_fract_z
  _atom_site_occupancy
  Cl  Cl1       1.0  0.796545147895813  0.01724856346845627  0.4531019330024719  1.0000
  F   F1        1.0  0.29090040922164917  0.5577636361122131  0.5450395941734314  1.0000
  Mn  Mn1       1.0  0.7890179753303528  0.5637200474739075  0.06284371763467789  1.0000
  Pd  Pd1       1.0  0.2948317527770996  0.03668660670518875  0.9376680254936218  1.0000
  Pr  Pr1       1.0  0.29259154200553894  0.56040358543396  0.12150018662214274  1.0000
  Sc  Sc1       1.0  0.7884809970855713  0.5844261050224304  0.7897594571113586  1.0000
  Sc  Sc2       1.0  0.2936200797557831  0.5781267881393433  0.1341161429882049  1.0000
  Sc  Sc3       1.0  0.29497435688972473  0.26334184408187866  0.4352737367153168  1.0000
  Zn  Zn1       1.0  0.29176512360572815  0.04443303495645523  0.9571749567985535  1.0000
  Zr  Zr1       1.0  0.7925208806991577  0.06913122534751892  0.44342267513275146  1.0000
  Zr  Zr2       1.0  0.792564332485199  0.5661948323249817  0.9379304647445679  1.0000
