data_image0
_chemical_formula_structural       ClFPd2Sc5Zr2
_chemical_formula_sum              "Cl1 F1 Pd2 Sc5 Zr2"
_cell_length_a       5.073934405793002
_cell_length_b       8.059655025626757
_cell_length_c       8.370708465576172
_cell_angle_alpha    119.85239921587161
_cell_angle_beta     89.58981159654746
_cell_angle_gamma    91.41402816576009

_space_group_name_H-M_alt    "P 1"
_space_group_IT_number       1

loop_
  _space_group_symop_operation_xyz
  'x, y, z'

loop_
  _atom_site_type_symbol
  _atom_site_label
  _atom_site_symmetry_multiplicity
  _atom_site_fract_x
  _atom_site_fract_y
  _atom_site_fract_z
  _atom_site_occupancy
  Cl  Cl1       1.0  0.9452908039093019  0.8739214539527893  0.3881770670413971  1.0000
  F   F1        1.0  0.4424287974834442  0.27998194098472595  0.19753338396549225  1.0000
  Pd  Pd1       1.0  0.4432671070098877  0.5314684510231018  0.8410327434539795  1.0000
  Pd  Pd2       1.0  0.9451904892921449  0.5390383005142212  0.052993498742580414  1.0000
  Sc  Sc1       1.0  0.9443430304527284  0.1933678835630417  0.5189175605773926  1.0000
  Sc  Sc2       1.0  0.9380846023559571  0.10894417762756348  0.19767551124095917  1.0000
  Sc  Sc3       1.0  0.9446504712104798  0.9735008478164673  0.532017171382904  1.0000
  Sc  Sc4       1.0  0.44547227025032043  0.7153849005699158  0.8532724380493164  1.0000
  Sc  Sc5       1.0  0.9447376728057862  0.675126850605011  0.7307515740394592  1.0000
  Zr  Zr1       1.0  0.4416283071041107  0.2176845669746399  0.8553349375724792  1.0000
  Zr  Zr2       1.0  0.44265809655189514  0.5828247666358948  0.36416950821876526  1.0000
