data_image0
_chemical_formula_structural       ClCr6F2KPd
_chemical_formula_sum              "Cl1 Cr6 F2 K1 Pd1"
_cell_length_a       5.188249630772925
_cell_length_b       7.244053528609666
_cell_length_c       7.762629508972168
_cell_angle_alpha    119.80446821006412
_cell_angle_beta     89.93938092414925
_cell_angle_gamma    91.10083960097509

_space_group_name_H-M_alt    "P 1"
_space_group_IT_number       1

loop_
  _space_group_symop_operation_xyz
  'x, y, z'

loop_
  _atom_site_type_symbol
  _atom_site_label
  _atom_site_symmetry_multiplicity
  _atom_site_fract_x
  _atom_site_fract_y
  _atom_site_fract_z
  _atom_site_occupancy
  Cl  Cl1       1.0  0.04975149780511856  0.5019144415855408  0.5871199369430542  1.0000
  Cr  Cr1       1.0  0.553727388381958  0.8788876533508301  0.0908343493938446  1.0000
  Cr  Cr2       1.0  0.550222635269165  0.01806234009563923  0.9413373470306396  1.0000
  Cr  Cr3       1.0  0.5466297268867493  0.5114116072654724  0.5847340226173401  1.0000
  Cr  Cr4       1.0  0.0447603315114975  0.8431169390678406  0.5721829533576965  1.0000
  Cr  Cr5       1.0  0.5592459440231323  0.2987769544124603  0.7944366335868835  1.0000
  Cr  Cr6       1.0  0.0416908785700798  0.7675586938858032  0.17756132781505585  1.0000
  F   F1        1.0  0.06022842973470688  0.016938121989369392  0.7833672165870667  1.0000
  F   F2        1.0  0.5491566061973572  0.016011400148272514  0.6776326894760132  1.0000
  K   K1        1.0  0.057995039969682693  0.5137619972229004  0.7460685968399048  1.0000
  Pd  Pd1       1.0  0.5497604012489319  0.5219597816467285  0.9410672783851624  1.0000
