data_image0
_chemical_formula_structural       DyIIr4Sb3
_chemical_formula_sum              "Dy1 I1 Ir4 Sb3"
_cell_length_a       6.4921477989423515
_cell_length_b       6.305102438111594
_cell_length_c       6.019888877868652
_cell_angle_alpha    57.32576614427787
_cell_angle_beta     62.07107858642316
_cell_angle_gamma    58.61220200396323

_space_group_name_H-M_alt    "P 1"
_space_group_IT_number       1

loop_
  _space_group_symop_operation_xyz
  'x, y, z'

loop_
  _atom_site_type_symbol
  _atom_site_label
  _atom_site_symmetry_multiplicity
  _atom_site_fract_x
  _atom_site_fract_y
  _atom_site_fract_z
  _atom_site_occupancy
  Dy  Dy1       1.0  0.93895024061203  0.5857968330383301  0.3793995678424835  1.0000
  I   I1        1.0  0.3315383791923523  0.9720861911773682  0.9433313012123108  1.0000
  Ir  Ir1       1.0  0.09648219496011734  0.176755890250206  0.6977534294128418  1.0000
  Ir  Ir2       1.0  0.3743930160999298  0.6079303026199341  0.7111741304397583  1.0000
  Ir  Ir3       1.0  0.34725895524024963  0.881570041179657  0.6824278831481934  1.0000
  Ir  Ir4       1.0  0.8449225425720215  0.8738209009170532  0.7014774680137634  1.0000
  Sb  Sb1       1.0  0.7488501071929932  0.17871688306331635  0.008403073064982891  1.0000
  Sb  Sb2       1.0  0.894992470741272  0.5756781101226807  0.4180906414985657  1.0000
  Sb  Sb3       1.0  0.304194837808609  0.32014352083206177  0.10866299271583557  1.0000
