data_image0
_chemical_formula_structural       FI2Ir3OReSb
_chemical_formula_sum              "F1 I2 Ir3 O1 Re1 Sb1"
_cell_length_a       3.939745116351751
_cell_length_b       4.914641336685841
_cell_length_c       5.162532806396484
_cell_angle_alpha    118.50565835482563
_cell_angle_beta     98.47635582744712
_cell_angle_gamma    80.4402983682132

_space_group_name_H-M_alt    "P 1"
_space_group_IT_number       1

loop_
  _space_group_symop_operation_xyz
  'x, y, z'

loop_
  _atom_site_type_symbol
  _atom_site_label
  _atom_site_symmetry_multiplicity
  _atom_site_fract_x
  _atom_site_fract_y
  _atom_site_fract_z
  _atom_site_occupancy
  F   F1        1.0  0.09503600746393204  0.6147674322128296  0.11921943724155426  1.0000
  I   I1        1.0  0.36510413885116577  0.8129429221153259  0.25558391213417053  1.0000
  I   I2        1.0  0.3525419235229492  0.6935911178588867  0.5086358189582825  1.0000
  Ir  Ir1       1.0  0.8570284843444824  0.6270949244499207  0.6348177790641785  1.0000
  Ir  Ir2       1.0  0.3513263165950775  0.2425023317337036  0.5974563360214233  1.0000
  Ir  Ir3       1.0  0.8564873933792114  0.3245117962360382  0.11343748867511749  1.0000
  O   O1        1.0  0.8337297439575195  0.70829176902771  0.5776364803314209  1.0000
  Re  Re1       1.0  0.7588121891021729  0.48234328627586365  0.821043074131012  1.0000
  Sb  Sb1       1.0  0.3588609993457794  0.1843973696231842  0.1975075751543045  1.0000
