data_image0
_chemical_formula_structural       Ir5Ta4
_chemical_formula_sum              "Ir5 Ta4"
_cell_length_a       3.85692799640406
_cell_length_b       2.70150650848871
_cell_length_c       7.55595064163208
_cell_angle_alpha    92.13119320895375
_cell_angle_beta     89.16265833820687
_cell_angle_gamma    64.90715691192895

_space_group_name_H-M_alt    "P 1"
_space_group_IT_number       1

loop_
  _space_group_symop_operation_xyz
  'x, y, z'

loop_
  _atom_site_type_symbol
  _atom_site_label
  _atom_site_symmetry_multiplicity
  _atom_site_fract_x
  _atom_site_fract_y
  _atom_site_fract_z
  _atom_site_occupancy
  Ir  Ir1       1.0  0.9625950455665587  0.20758630335330963  0.2620813250541687  1.0000
  Ir  Ir2       1.0  0.3614705204963684  0.8462884426116943  0.9977704882621765  1.0000
  Ir  Ir3       1.0  0.5026934146881104  0.5974975228309631  0.08949591964483261  1.0000
  Ir  Ir4       1.0  0.018219687044620514  0.556302011013031  0.23268604278564453  1.0000
  Ir  Ir5       1.0  0.9839107394218444  0.25524577498435974  0.4142753183841705  1.0000
  Ta  Ta1       1.0  0.5223950743675232  0.515093207359314  0.035890255123376846  1.0000
  Ta  Ta2       1.0  0.5021778345108032  0.3601627051830292  0.04605739936232567  1.0000
  Ta  Ta3       1.0  0.9761117100715636  0.9256856441497803  0.8342057466506958  1.0000
  Ta  Ta4       1.0  0.9931527376174926  0.1634911596775055  0.24421517550945282  1.0000
