data_image0
_chemical_formula_structural       I2Ir4Sb2Zr
_chemical_formula_sum              "I2 Ir4 Sb2 Zr1"
_cell_length_a       5.115630955490398
_cell_length_b       6.0813401488234895
_cell_length_c       6.4094462394714355
_cell_angle_alpha    125.64074949541603
_cell_angle_beta     90.71472402560616
_cell_angle_gamma    88.89369394769273

_space_group_name_H-M_alt    "P 1"
_space_group_IT_number       1

loop_
  _space_group_symop_operation_xyz
  'x, y, z'

loop_
  _atom_site_type_symbol
  _atom_site_label
  _atom_site_symmetry_multiplicity
  _atom_site_fract_x
  _atom_site_fract_y
  _atom_site_fract_z
  _atom_site_occupancy
  I   I1        1.0  0.7370277643203735  0.0009061868186108768  0.9597615599632263  1.0000
  I   I2        1.0  0.7392474412918091  0.04956815391778946  0.26570555567741394  1.0000
  Ir  Ir1       1.0  0.7395403385162354  0.6152889728546143  0.470697820186615  1.0000
  Ir  Ir2       1.0  0.7392631769180298  0.585302472114563  0.8710842132568359  1.0000
  Ir  Ir3       1.0  0.23859357833862305  0.29091769456863403  0.4003770053386688  1.0000
  Ir  Ir4       1.0  0.23783229291439056  0.9248987436294556  0.2846572101116181  1.0000
  Sb  Sb1       1.0  0.7393754720687866  0.3702498972415924  0.9690732955932617  1.0000
  Sb  Sb2       1.0  0.2369217723608017  0.5101910829544067  0.9454361796379089  1.0000
  Zr  Zr1       1.0  0.23441918194293976  0.7608755230903625  0.18927368521690377  1.0000
