data_image0
_chemical_formula_structural       AlGaIIr2SbTa2Zn
_chemical_formula_sum              "Al1 Ga1 I1 Ir2 Sb1 Ta2 Zn1"
_cell_length_a       5.8643820501494375
_cell_length_b       6.942105637279957
_cell_length_c       7.260934829711914
_cell_angle_alpha    123.10212719163904
_cell_angle_beta     89.69040137864106
_cell_angle_gamma    90.24686418450747

_space_group_name_H-M_alt    "P 1"
_space_group_IT_number       1

loop_
  _space_group_symop_operation_xyz
  'x, y, z'

loop_
  _atom_site_type_symbol
  _atom_site_label
  _atom_site_symmetry_multiplicity
  _atom_site_fract_x
  _atom_site_fract_y
  _atom_site_fract_z
  _atom_site_occupancy
  Al  Al1       1.0  0.37615275382995605  0.7658557891845703  0.2753389179706573  1.0000
  Ga  Ga1       1.0  0.3653929829597473  0.6909085512161255  0.3900855779647827  1.0000
  I   I1        1.0  0.34531688690185547  0.2979668378829956  0.171634703874588  1.0000
  Ir  Ir1       1.0  0.8472812175750732  0.2209857553243637  0.712409496307373  1.0000
  Ir  Ir2       1.0  0.8489978313446045  0.8810449242591858  0.10211513936519623  1.0000
  Sb  Sb1       1.0  0.8445003628730774  0.24433176219463348  0.5650004744529724  1.0000
  Ta  Ta1       1.0  0.3491809070110321  0.9526312351226807  0.8925439715385437  1.0000
  Ta  Ta2       1.0  0.34012362360954285  0.9856491088867188  0.25090199708938593  1.0000
  Zn  Zn1       1.0  0.8540038466453552  0.8172597289085388  0.19952465593814844  1.0000
