data_image0
_chemical_formula_structural       F5LaSb4
_chemical_formula_sum              "F5 La1 Sb4"
_cell_length_a       6.226804907717523
_cell_length_b       6.435186690921196
_cell_length_c       6.280710697174072
_cell_angle_alpha    62.81019128892383
_cell_angle_beta     60.673752737895065
_cell_angle_gamma    62.33373595044222

_space_group_name_H-M_alt    "P 1"
_space_group_IT_number       1

loop_
  _space_group_symop_operation_xyz
  'x, y, z'

loop_
  _atom_site_type_symbol
  _atom_site_label
  _atom_site_symmetry_multiplicity
  _atom_site_fract_x
  _atom_site_fract_y
  _atom_site_fract_z
  _atom_site_occupancy
  F   F1        1.0  0.06361731141805649  0.34965845942497253  0.5888211727142334  1.0000
  F   F2        1.0  0.5490643382072449  0.25348013639450073  0.4769403040409088  1.0000
  F   F3        1.0  0.37299075722694397  0.9796463251113892  0.10533011704683304  1.0000
  F   F4        1.0  0.1462525576353073  0.6254932284355164  0.5955429077148438  1.0000
  F   F5        1.0  0.6389137506484985  0.6786072254180908  0.7862640023231506  1.0000
  La  La1       1.0  0.09317284822463989  0.8563016057014465  0.2923554480075836  1.0000
  Sb  Sb1       1.0  0.3767528235912323  0.9759814143180847  0.7747880220413208  1.0000
  Sb  Sb2       1.0  0.9567046761512756  0.598524808883667  0.20147043466567993  1.0000
  Sb  Sb3       1.0  0.9792404770851135  0.10823024064302444  0.28449538350105286  1.0000
  Sb  Sb4       1.0  0.3795117437839508  0.2550967335700989  0.09348434209823608  1.0000
