data_image0
_chemical_formula_structural       AlF4La2SSb2
_chemical_formula_sum              "Al1 F4 La2 S1 Sb2"
_cell_length_a       6.082710962920892
_cell_length_b       6.722830331639264
_cell_length_c       6.368118762969971
_cell_angle_alpha    69.54097639972447
_cell_angle_beta     65.6168010804756
_cell_angle_gamma    64.74631180326772

_space_group_name_H-M_alt    "P 1"
_space_group_IT_number       1

loop_
  _space_group_symop_operation_xyz
  'x, y, z'

loop_
  _atom_site_type_symbol
  _atom_site_label
  _atom_site_symmetry_multiplicity
  _atom_site_fract_x
  _atom_site_fract_y
  _atom_site_fract_z
  _atom_site_occupancy
  Al  Al1       1.0  0.8808653950691224  0.45389327406883234  0.010614419355988431  1.0000
  F   F1        1.0  0.9885577559471131  0.006113591603934765  0.6477158069610596  1.0000
  F   F2        1.0  0.5985317230224609  0.1520976722240448  0.9979615211486815  1.0000
  F   F3        1.0  0.2931520342826843  0.5923272371292114  0.44472411274909973  1.0000
  F   F4        1.0  0.10383588075637819  0.1058056578040123  0.10625074803829193  1.0000
  La  La1       1.0  0.08935949951410294  0.11952625215053557  0.00190034427214413  1.0000
  La  La2       1.0  0.6157844066619873  0.12404029816389082  0.24880695343017575  1.0000
  S   S1        1.0  0.9210584163665773  0.8647662997245789  0.2555209994316101  1.0000
  Sb  Sb1       1.0  0.6359652280807495  0.6090391278266907  0.6990825533866882  1.0000
  Sb  Sb2       1.0  0.14078585803508759  0.32226380705833435  0.6590880751609802  1.0000
