data_image0
_chemical_formula_structural       F6La2Sb2
_chemical_formula_sum              "F6 La2 Sb2"
_cell_length_a       5.468423374308987
_cell_length_b       5.754773400692806
_cell_length_c       6.100010871887207
_cell_angle_alpha    63.77373612311094
_cell_angle_beta     64.59283719838008
_cell_angle_gamma    63.61967841786134

_space_group_name_H-M_alt    "P 1"
_space_group_IT_number       1

loop_
  _space_group_symop_operation_xyz
  'x, y, z'

loop_
  _atom_site_type_symbol
  _atom_site_label
  _atom_site_symmetry_multiplicity
  _atom_site_fract_x
  _atom_site_fract_y
  _atom_site_fract_z
  _atom_site_occupancy
  F   F1        1.0  0.9046633839607239  0.10419392585754395  0.9338767528533934  1.0000
  F   F2        1.0  0.9154131412506104  0.1298021376132965  0.37239617109298706  1.0000
  F   F3        1.0  0.42219221591949463  0.8774387240409851  0.7246406078338623  1.0000
  F   F4        1.0  0.9220389723777771  0.7729701399803162  0.9014991521835326  1.0000
  F   F5        1.0  0.44351401925086975  0.4889141023159027  0.3201240599155426  1.0000
  F   F6        1.0  0.6816459894180298  0.6399633288383484  0.5519525408744812  1.0000
  La  La1       1.0  0.7161296606063843  0.35507339239120483  0.20749418437480924  1.0000
  La  La2       1.0  0.4311656951904297  0.38134893774986267  0.9741912484169005  1.0000
  Sb  Sb1       1.0  0.6684712171554565  0.6512082815170288  0.5697676539421082  1.0000
  Sb  Sb2       1.0  0.41282644867897034  0.11301328241825104  0.23180074989795682  1.0000
