data_image0
_chemical_formula_structural       F7La3
_chemical_formula_sum              "F7 La3"
_cell_length_a       6.544896015824856
_cell_length_b       6.369496222036056
_cell_length_c       6.7643890380859375
_cell_angle_alpha    62.45873862640309
_cell_angle_beta     61.96151151514701
_cell_angle_gamma    61.79911090995962

_space_group_name_H-M_alt    "P 1"
_space_group_IT_number       1

loop_
  _space_group_symop_operation_xyz
  'x, y, z'

loop_
  _atom_site_type_symbol
  _atom_site_label
  _atom_site_symmetry_multiplicity
  _atom_site_fract_x
  _atom_site_fract_y
  _atom_site_fract_z
  _atom_site_occupancy
  F   F1        1.0  0.444163054227829  0.35285958647727966  0.36794409155845637  1.0000
  F   F2        1.0  0.5443578362464905  0.11650992184877396  0.21238766610622403  1.0000
  F   F3        1.0  0.8512848615646362  0.6948955655097961  0.9037613868713378  1.0000
  F   F4        1.0  0.8691691756248474  0.6961613297462463  0.5702899694442749  1.0000
  F   F5        1.0  0.5485426783561707  0.9944605827331543  0.6859940290451049  1.0000
  F   F6        1.0  0.22727565467357635  0.6808828115463257  0.24296800792217252  1.0000
  F   F7        1.0  0.21471261978149414  0.020015832036733627  0.4082213938236236  1.0000
  La  La1       1.0  0.33968818187713623  0.22888271510601044  0.9009135365486144  1.0000
  La  La2       1.0  0.19991105794906616  0.8894810676574707  0.8957220911979674  1.0000
  La  La3       1.0  0.6311356425285339  0.32426637411117554  0.41321215033531183  1.0000
