data_image0
_chemical_formula_structural       CdF6LaSb2
_chemical_formula_sum              "Cd1 F6 La1 Sb2"
_cell_length_a       5.866060707378704
_cell_length_b       5.772917454498403
_cell_length_c       8.041566848754883
_cell_angle_alpha    90.13570052774865
_cell_angle_beta     89.8287572981453
_cell_angle_gamma    89.71101226001919

_space_group_name_H-M_alt    "P 1"
_space_group_IT_number       1

loop_
  _space_group_symop_operation_xyz
  'x, y, z'

loop_
  _atom_site_type_symbol
  _atom_site_label
  _atom_site_symmetry_multiplicity
  _atom_site_fract_x
  _atom_site_fract_y
  _atom_site_fract_z
  _atom_site_occupancy
  Cd  Cd1       1.0  0.138352170586586  0.3496924042701722  0.7995390295982361  1.0000
  F   F1        1.0  0.29234960675239563  0.10439034551382066  0.09020674228668213  1.0000
  F   F2        1.0  0.1183902770280838  0.23481404781341556  0.8221029043197632  1.0000
  F   F3        1.0  0.6383883953094482  0.34289515018463135  0.5321193337440491  1.0000
  F   F4        1.0  0.6194987893104553  0.52279132604599  0.8335376381874084  1.0000
  F   F5        1.0  0.8815432190895081  0.8389293551445008  0.02139441668987274  1.0000
  F   F6        1.0  0.7507050037384033  0.6299481391906738  0.11102112382650375  1.0000
  La  La1       1.0  0.8567041158676147  0.2784167528152466  0.4006761610507965  1.0000
  Sb  Sb1       1.0  0.38111716508865356  0.9017822146415712  0.9230929017066956  1.0000
  Sb  Sb2       1.0  0.8954730033874512  0.8407692313194276  0.6345720887184143  1.0000
