data_image0
_chemical_formula_structural       F5LaSb4
_chemical_formula_sum              "F5 La1 Sb4"
_cell_length_a       6.610343759928854
_cell_length_b       6.741686974269365
_cell_length_c       6.9416937828063965
_cell_angle_alpha    62.99131523934198
_cell_angle_beta     64.19306706547309
_cell_angle_gamma    62.596793986801735

_space_group_name_H-M_alt    "P 1"
_space_group_IT_number       1

loop_
  _space_group_symop_operation_xyz
  'x, y, z'

loop_
  _atom_site_type_symbol
  _atom_site_label
  _atom_site_symmetry_multiplicity
  _atom_site_fract_x
  _atom_site_fract_y
  _atom_site_fract_z
  _atom_site_occupancy
  F   F1        1.0  0.30626368522644043  0.8524776101112366  0.6845116019248962  1.0000
  F   F2        1.0  0.3051110804080963  0.3138398230075836  0.4672359228134155  1.0000
  F   F3        1.0  0.9474720358848572  0.5121936798095703  0.16585785150527954  1.0000
  F   F4        1.0  0.02220143936574459  0.28007763624191284  0.1830884963274002  1.0000
  F   F5        1.0  0.9965426921844482  0.1221214160323143  0.32467260956764216  1.0000
  La  La1       1.0  0.3130413591861725  0.6466007232666016  0.5688767433166504  1.0000
  Sb  Sb1       1.0  0.506119966506958  0.6189470887184143  0.8434485197067261  1.0000
  Sb  Sb2       1.0  0.23866142332553864  0.5441354513168335  0.5719162225723267  1.0000
  Sb  Sb3       1.0  0.5408220291137695  0.7646673917770386  0.8209006786346436  1.0000
  Sb  Sb4       1.0  0.02415897324681282  0.772460401058197  0.31233856081962585  1.0000
