data_image0
_chemical_formula_structural       B2Hg3O3Pb
_chemical_formula_sum              "B2 Hg3 O3 Pb1"
_cell_length_a       5.839585056787018
_cell_length_b       6.012039155894499
_cell_length_c       5.792374610900879
_cell_angle_alpha    61.1916576754533
_cell_angle_beta     60.910349635629714
_cell_angle_gamma    58.799505978264776

_space_group_name_H-M_alt    "P 1"
_space_group_IT_number       1

loop_
  _space_group_symop_operation_xyz
  'x, y, z'

loop_
  _atom_site_type_symbol
  _atom_site_label
  _atom_site_symmetry_multiplicity
  _atom_site_fract_x
  _atom_site_fract_y
  _atom_site_fract_z
  _atom_site_occupancy
  B   B1        1.0  0.6886213421821594  0.34590432047843933  0.19262805581092837  1.0000
  B   B2        1.0  0.28646594285964966  0.48297229409217834  0.5802280306816101  1.0000
  Hg  Hg1       1.0  0.06128710135817528  0.07997649163007736  0.3595002591609955  1.0000
  Hg  Hg2       1.0  0.4410787522792816  0.8267506957054138  0.03239976242184639  1.0000
  Hg  Hg3       1.0  0.6882619261741638  0.5214486122131348  0.8489620685577394  1.0000
  O   O1        1.0  0.38035011291503906  0.329204797744751  0.7547569870948793  1.0000
  O   O2        1.0  0.9574254155158997  0.8213126063346863  0.9927048087120057  1.0000
  O   O3        1.0  0.49135494232177734  0.14757826924324036  0.5090112090110779  1.0000
  Pb  Pb1       1.0  0.08778350800275803  0.6166286468505859  0.1346365362405777  1.0000
