data_image0
_chemical_formula_structural       B4HgO4
_chemical_formula_sum              "B4 Hg1 O4"
_cell_length_a       5.439201657799402
_cell_length_b       5.38344185450982
_cell_length_c       5.21262788772583
_cell_angle_alpha    60.780290860767266
_cell_angle_beta     61.27190261486297
_cell_angle_gamma    58.69629339162971

_space_group_name_H-M_alt    "P 1"
_space_group_IT_number       1

loop_
  _space_group_symop_operation_xyz
  'x, y, z'

loop_
  _atom_site_type_symbol
  _atom_site_label
  _atom_site_symmetry_multiplicity
  _atom_site_fract_x
  _atom_site_fract_y
  _atom_site_fract_z
  _atom_site_occupancy
  B   B1        1.0  0.6970009207725525  0.9058138132095337  0.7076377272605896  1.0000
  B   B2        1.0  0.44016802310943604  0.9796023964881897  0.10667843371629715  1.0000
  B   B3        1.0  0.1986781358718872  0.4818372130393982  0.7032851576805115  1.0000
  B   B4        1.0  0.6899336576461792  0.14234235882759094  0.9809356331825256  1.0000
  Hg  Hg1       1.0  0.029653606936335564  0.9872318506240845  0.18919458985328683  1.0000
  O   O1        1.0  0.5204101204872131  0.04704883322119713  0.08636573702096939  1.0000
  O   O2        1.0  0.32263967394828796  0.7071257829666138  0.7028111219406128  1.0000
  O   O3        1.0  0.2517856955528259  0.5762979388237  0.44026026129722595  1.0000
  O   O4        1.0  0.01347297616302967  0.13207733631134033  0.42247629165649414  1.0000
