data_image0
_chemical_formula_structural       BHgO6Pt
_chemical_formula_sum              "B1 Hg1 O6 Pt1"
_cell_length_a       5.696171940833715
_cell_length_b       6.389139079946008
_cell_length_c       5.855842113494873
_cell_angle_alpha    105.87456173351761
_cell_angle_beta     107.44864979575252
_cell_angle_gamma    114.01300476963584

_space_group_name_H-M_alt    "P 1"
_space_group_IT_number       1

loop_
  _space_group_symop_operation_xyz
  'x, y, z'

loop_
  _atom_site_type_symbol
  _atom_site_label
  _atom_site_symmetry_multiplicity
  _atom_site_fract_x
  _atom_site_fract_y
  _atom_site_fract_z
  _atom_site_occupancy
  B   B1        1.0  0.36634331941604614  0.26772943139076233  0.38537305593490606  1.0000
  Hg  Hg1       1.0  0.3682020902633667  0.9737858176231384  0.9025313258171083  1.0000
  O   O1        1.0  0.15162482857704163  0.6048316359519958  0.34271684288978577  1.0000
  O   O2        1.0  0.7647767663002014  0.7310142517089844  0.36833882331848145  1.0000
  O   O3        1.0  0.163185715675354  0.7028242945671082  0.8513595461845399  1.0000
  O   O4        1.0  0.680696427822113  0.5313859581947327  0.7528499960899354  1.0000
  O   O5        1.0  0.504750669002533  0.2642029821872711  0.9750632643699647  1.0000
  O   O6        1.0  0.14750437438488007  0.1049412339925766  0.6308762431144714  1.0000
  Pt  Pt1       1.0  0.7049892544746399  0.7810595035552979  0.10014916956424715  1.0000
