data_image0
_chemical_formula_structural       BHg4O4
_chemical_formula_sum              "B1 Hg4 O4"
_cell_length_a       6.387803202597486
_cell_length_b       4.829087523247832
_cell_length_c       5.792712211608887
_cell_angle_alpha    132.42257679240072
_cell_angle_beta     110.4969173473697
_cell_angle_gamma    111.0291762261874

_space_group_name_H-M_alt    "P 1"
_space_group_IT_number       1

loop_
  _space_group_symop_operation_xyz
  'x, y, z'

loop_
  _atom_site_type_symbol
  _atom_site_label
  _atom_site_symmetry_multiplicity
  _atom_site_fract_x
  _atom_site_fract_y
  _atom_site_fract_z
  _atom_site_occupancy
  B   B1        1.0  0.7075098156929016  0.5962551832199097  0.25422123074531555  1.0000
  Hg  Hg1       1.0  0.003926626872271299  0.37470850348472595  0.563336968421936  1.0000
  Hg  Hg2       1.0  0.5079846978187561  0.46014758944511414  0.9111937880516052  1.0000
  Hg  Hg3       1.0  0.023924332112074044  0.9464591741561892  0.9824849367141725  1.0000
  Hg  Hg4       1.0  0.01657961681485176  0.026959471404552463  0.04467414319515228  1.0000
  O   O1        1.0  0.02562158927321419  0.7247899770736692  0.8454567790031432  1.0000
  O   O2        1.0  0.1732425987720489  0.32424977421760554  0.17938821017742154  1.0000
  O   O3        1.0  0.010146450251340866  0.946802020072937  0.6659160256385803  1.0000
  O   O4        1.0  0.6784101724624634  0.33636420965194697  0.18256443738937375  1.0000
