data_image0
_chemical_formula_structural       Ba2CuLuO8Zn
_chemical_formula_sum              "Ba2 Cu1 Lu1 O8 Zn1"
_cell_length_a       5.155449927232373
_cell_length_b       6.243007879431182
_cell_length_c       8.276291847229004
_cell_angle_alpha    72.29738358610615
_cell_angle_beta     72.10790991879247
_cell_angle_gamma    64.46118942103212

_space_group_name_H-M_alt    "P 1"
_space_group_IT_number       1

loop_
  _space_group_symop_operation_xyz
  'x, y, z'

loop_
  _atom_site_type_symbol
  _atom_site_label
  _atom_site_symmetry_multiplicity
  _atom_site_fract_x
  _atom_site_fract_y
  _atom_site_fract_z
  _atom_site_occupancy
  Ba  Ba1       1.0  0.4685518741607666  0.5273685455322266  0.1946750283241272  1.0000
  Ba  Ba2       1.0  0.6526933312416077  0.7354031205177307  0.4677830934524536  1.0000
  Cu  Cu1       1.0  0.003986413590610027  0.435421347618103  0.9185364842414856  1.0000
  Lu  Lu1       1.0  0.995976984500885  0.7501167058944702  0.17759273946285248  1.0000
  O   O1        1.0  0.5095212459564209  0.37342530488967896  0.06997956335544586  1.0000
  O   O2        1.0  0.16077397763729095  0.2318418323993683  0.6167140603065491  1.0000
  O   O3        1.0  0.26277458667755127  0.8720346093177795  0.13394565880298615  1.0000
  O   O4        1.0  0.4817880392074585  0.2264164239168167  0.22058096528053284  1.0000
  O   O5        1.0  0.16795916855335236  0.37075144052505493  0.14129190146923065  1.0000
  O   O6        1.0  0.5002126693725586  0.7820467352867126  0.21954967081546783  1.0000
  O   O7        1.0  0.966900646686554  0.4279443323612213  0.14698359370231628  1.0000
  O   O8        1.0  0.24121466279029846  0.3694886863231659  0.6368826627731323  1.0000
  Zn  Zn1       1.0  0.02824944071471691  0.1188512071967125  0.812907338142395  1.0000
