data_image0
_chemical_formula_structural       Ba4CuLu2O5V
_chemical_formula_sum              "Ba4 Cu1 Lu2 O5 V1"
_cell_length_a       6.1276535258941625
_cell_length_b       6.516295824870466
_cell_length_c       6.837826251983643
_cell_angle_alpha    62.669465044812405
_cell_angle_beta     60.92992340494559
_cell_angle_gamma    61.54803308977695

_space_group_name_H-M_alt    "P 1"
_space_group_IT_number       1

loop_
  _space_group_symop_operation_xyz
  'x, y, z'

loop_
  _atom_site_type_symbol
  _atom_site_label
  _atom_site_symmetry_multiplicity
  _atom_site_fract_x
  _atom_site_fract_y
  _atom_site_fract_z
  _atom_site_occupancy
  Ba  Ba1       1.0  0.9542409181594849  0.6381468772888184  0.8324994444847108  1.0000
  Ba  Ba2       1.0  0.522942066192627  0.18572978675365448  0.08529312908649445  1.0000
  Ba  Ba3       1.0  0.3687463998794555  0.8809863328933717  0.8263767957687379  1.0000
  Ba  Ba4       1.0  0.623560905456543  0.7870154380798341  0.9079353213310243  1.0000
  Cu  Cu1       1.0  0.9462575912475586  0.4077399373054505  0.8429638743400575  1.0000
  Lu  Lu1       1.0  0.6032159924507141  0.2368249446153641  0.47845193743705755  1.0000
  Lu  Lu2       1.0  0.9982830286026001  0.6968496441841125  0.22979348897933963  1.0000
  O   O1        1.0  0.3897240459918976  0.29937124252319336  0.7235450744628906  1.0000
  O   O2        1.0  0.405931681394577  0.7711303830146791  0.3346100151538849  1.0000
  O   O3        1.0  0.3917351961135864  0.28780075907707214  0.7009652256965637  1.0000
  O   O4        1.0  0.9261136651039124  0.5391495227813721  0.1871745437383652  1.0000
  O   O5        1.0  0.6812855005264282  0.9993033409118653  0.32290077209472656  1.0000
  V   V1        1.0  0.498748242855072  0.1369050145149231  0.7545452713966371  1.0000
