data_image0
_chemical_formula_structural       BaCuFLu2O7Zn
_chemical_formula_sum              "Ba1 Cu1 F1 Lu2 O7 Zn1"
_cell_length_a       4.748946445514402
_cell_length_b       3.904621052823447
_cell_length_c       9.415369033813477
_cell_angle_alpha    89.92694135678119
_cell_angle_beta     90.82184779905164
_cell_angle_gamma    148.416925315171

_space_group_name_H-M_alt    "P 1"
_space_group_IT_number       1

loop_
  _space_group_symop_operation_xyz
  'x, y, z'

loop_
  _atom_site_type_symbol
  _atom_site_label
  _atom_site_symmetry_multiplicity
  _atom_site_fract_x
  _atom_site_fract_y
  _atom_site_fract_z
  _atom_site_occupancy
  Ba  Ba1       1.0  0.1289432942867279  0.8532800674438477  0.4746953845024109  1.0000
  Cu  Cu1       1.0  0.49847650527954107  0.555755078792572  0.8041505813598633  1.0000
  F   F1        1.0  0.09917732328176498  0.6984308958053589  0.43802472949028015  1.0000
  Lu  Lu1       1.0  0.45495483279228216  0.5705971717834473  0.9515897631645203  1.0000
  Lu  Lu2       1.0  0.5550295114517212  0.30072611570358276  0.1083802729845047  1.0000
  O   O1        1.0  0.5146898627281189  0.010127429850399494  0.5200762152671814  1.0000
  O   O2        1.0  0.3947543203830719  0.954401969909668  0.09769482165575027  1.0000
  O   O3        1.0  0.7516351938247681  0.9271231889724731  0.7000725269317627  1.0000
  O   O4        1.0  0.40719860792160034  0.6844858527183533  0.8584592938423157  1.0000
  O   O5        1.0  0.22864446043968203  0.2826061546802521  0.7654736638069153  1.0000
  O   O6        1.0  0.7498219609260559  0.22364725172519684  0.9825747013092041  1.0000
  O   O7        1.0  0.09924694150686264  0.5826658010482788  0.7413454055786133  1.0000
  Zn  Zn1       1.0  0.4158981442451477  0.682569146156311  0.6016204953193665  1.0000
