data_image0
_chemical_formula_structural       Ba2CuLu4O6
_chemical_formula_sum              "Ba2 Cu1 Lu4 O6"
_cell_length_a       6.591440416756919
_cell_length_b       6.901679523065143
_cell_length_c       6.984055042266846
_cell_angle_alpha    59.56067751242241
_cell_angle_beta     60.66048208197403
_cell_angle_gamma    60.81533153494983

_space_group_name_H-M_alt    "P 1"
_space_group_IT_number       1

loop_
  _space_group_symop_operation_xyz
  'x, y, z'

loop_
  _atom_site_type_symbol
  _atom_site_label
  _atom_site_symmetry_multiplicity
  _atom_site_fract_x
  _atom_site_fract_y
  _atom_site_fract_z
  _atom_site_occupancy
  Ba  Ba1       1.0  0.4985040426254273  0.04795755073428154  0.620231032371521  1.0000
  Ba  Ba2       1.0  0.12942487001419067  0.22652621567249298  0.6227306127548218  1.0000
  Cu  Cu1       1.0  0.8777765631675721  0.5542615056037903  0.11982925981283188  1.0000
  Lu  Lu1       1.0  0.633983314037323  0.7226821184158325  0.909196674823761  1.0000
  Lu  Lu2       1.0  0.3900322318077088  0.31430017948150635  0.7723079919815063  1.0000
  Lu  Lu3       1.0  0.15122006833553314  0.21770600974559784  0.10014810413122177  1.0000
  Lu  Lu4       1.0  0.13849866390228271  0.054321322590112686  0.6043887138366699  1.0000
  O   O1        1.0  0.5077805519104004  0.22608143091201782  0.6032242774963379  1.0000
  O   O2        1.0  0.8186178207397462  0.7238402366638184  0.12898094952106476  1.0000
  O   O3        1.0  0.44627377390861517  0.6058991551399231  0.22162669897079468  1.0000
  O   O4        1.0  0.027963317930698398  0.22844915091991425  0.7906848788261414  1.0000
  O   O5        1.0  0.826972782611847  0.7171899676322937  0.5647352933883667  1.0000
  O   O6        1.0  0.1870989799499512  0.5129332542419434  0.49086156487464905  1.0000
