data_image0
_chemical_formula_structural       Ba2Cu3O7U
_chemical_formula_sum              "Ba2 Cu3 O7 U1"
_cell_length_a       3.837102497034029
_cell_length_b       5.271229045944137
_cell_length_c       9.69688606262207
_cell_angle_alpha    88.8276600123527
_cell_angle_beta     89.70636396835836
_cell_angle_gamma    88.71064538159878

_space_group_name_H-M_alt    "P 1"
_space_group_IT_number       1

loop_
  _space_group_symop_operation_xyz
  'x, y, z'

loop_
  _atom_site_type_symbol
  _atom_site_label
  _atom_site_symmetry_multiplicity
  _atom_site_fract_x
  _atom_site_fract_y
  _atom_site_fract_z
  _atom_site_occupancy
  Ba  Ba1       1.0  0.1157783418893814  0.8570281267166138  0.43560612201690674  1.0000
  Ba  Ba2       1.0  0.1047416552901268  0.8403551578521729  0.6099956631660461  1.0000
  Cu  Cu1       1.0  0.6035774946212769  0.5544481873512268  0.2935016453266144  1.0000
  Cu  Cu2       1.0  0.1155102103948593  0.33837053179740906  0.4158475399017334  1.0000
  Cu  Cu3       1.0  0.6067767143249512  0.5415627360343933  0.09589671343564987  1.0000
  O   O1        1.0  0.10973106324672698  0.8362382054328918  0.2722315192222595  1.0000
  O   O2        1.0  0.6199312806129456  0.8480429649353027  0.26932618021965027  1.0000
  O   O3        1.0  0.6073381304740906  0.3166484236717224  0.6089789867401123  1.0000
  O   O4        1.0  0.5973519086837769  0.6757807731628418  0.8005274534225464  1.0000
  O   O5        1.0  0.11421845853328703  0.577773928642273  0.06232297793030739  1.0000
  O   O6        1.0  0.5928336381912231  0.8432431221008301  0.7872573733329773  1.0000
  O   O7        1.0  0.6156244874000549  0.4975768029689789  0.4809064567089081  1.0000
  U   U1        1.0  0.1189926117658615  0.33258798718452454  0.7292859554290771  1.0000
