data_image0
_chemical_formula_structural       Ba2Cu2O9
_chemical_formula_sum              "Ba2 Cu2 O9"
_cell_length_a       4.353850282782424
_cell_length_b       6.929392759847076
_cell_length_c       6.712660789489746
_cell_angle_alpha    118.11572113215684
_cell_angle_beta     94.39332347909159
_cell_angle_gamma    91.12122980452372

_space_group_name_H-M_alt    "P 1"
_space_group_IT_number       1

loop_
  _space_group_symop_operation_xyz
  'x, y, z'

loop_
  _atom_site_type_symbol
  _atom_site_label
  _atom_site_symmetry_multiplicity
  _atom_site_fract_x
  _atom_site_fract_y
  _atom_site_fract_z
  _atom_site_occupancy
  Ba  Ba1       1.0  0.5694847106933594  0.5413799285888672  0.7251235842704773  1.0000
  Ba  Ba2       1.0  0.639165997505188  0.449229896068573  0.5587579607963562  1.0000
  Cu  Cu1       1.0  0.8887285590171814  0.0017757697496563196  0.13703367114067078  1.0000
  Cu  Cu2       1.0  0.14910030364990234  0.18395189940929413  0.9988085627555847  1.0000
  O   O1        1.0  0.13153263926506042  0.8563662767410278  0.21762925386428839  1.0000
  O   O2        1.0  0.9476631283760071  0.7070589065551758  0.5537894368171692  1.0000
  O   O3        1.0  0.48544996976852417  0.4238766133785248  0.3746424615383148  1.0000
  O   O4        1.0  0.17472989857196808  0.8642207384109497  0.6137009263038635  1.0000
  O   O5        1.0  0.5127725005149841  0.8451189994812012  0.6271490454673767  1.0000
  O   O6        1.0  0.5880795121192932  0.8890965580940247  0.39339143037796026  1.0000
  O   O7        1.0  0.14199069142341614  0.19698791205883026  0.9710798859596252  1.0000
  O   O8        1.0  0.09189009666442871  0.9237865209579468  0.787325382232666  1.0000
  O   O9        1.0  0.647966742515564  0.31509849429130554  0.06558817625045776  1.0000
