data_image0
_chemical_formula_structural       GeNi5Y4
_chemical_formula_sum              "Ge1 Ni5 Y4"
_cell_length_a       5.538850892532679
_cell_length_b       6.274712545369572
_cell_length_c       5.796945571899414
_cell_angle_alpha    105.54283481586575
_cell_angle_beta     108.43629104359694
_cell_angle_gamma    111.49744176561808

_space_group_name_H-M_alt    "P 1"
_space_group_IT_number       1

loop_
  _space_group_symop_operation_xyz
  'x, y, z'

loop_
  _atom_site_type_symbol
  _atom_site_label
  _atom_site_symmetry_multiplicity
  _atom_site_fract_x
  _atom_site_fract_y
  _atom_site_fract_z
  _atom_site_occupancy
  Ge  Ge1       1.0  0.9509386420249939  0.06347844749689102  0.19504246115684504  1.0000
  Ni  Ni1       1.0  0.5856825709342957  0.1963542401790619  0.04013388231396675  1.0000
  Ni  Ni2       1.0  0.9610596299171448  0.5891461968421936  0.7208283543586731  1.0000
  Ni  Ni3       1.0  0.3018721342086792  0.5279274582862854  0.07334717363119121  1.0000
  Ni  Ni4       1.0  0.6822104454040527  0.8113278150558472  0.3830510973930359  1.0000
  Ni  Ni5       1.0  0.5376706719398499  0.533623456954956  0.0556637980043888  1.0000
  Y   Y1        1.0  0.8598137497901917  0.5261886715888977  0.04939236491918563  1.0000
  Y   Y2        1.0  0.2688937783241272  0.09877150505781174  0.726768434047699  1.0000
  Y   Y3        1.0  0.3025290369987488  0.3061085343360901  0.9526700973510741  1.0000
  Y   Y4        1.0  0.2362414449453354  0.7980431914329529  0.43180605769157404  1.0000
