data_image0
_chemical_formula_structural       GeHNi5Y3
_chemical_formula_sum              "Ge1 H1 Ni5 Y3"
_cell_length_a       6.03630322478087
_cell_length_b       6.612332237956373
_cell_length_c       6.086777687072754
_cell_angle_alpha    106.85472421183292
_cell_angle_beta     107.89933353474676
_cell_angle_gamma    112.17797008205874

_space_group_name_H-M_alt    "P 1"
_space_group_IT_number       1

loop_
  _space_group_symop_operation_xyz
  'x, y, z'

loop_
  _atom_site_type_symbol
  _atom_site_label
  _atom_site_symmetry_multiplicity
  _atom_site_fract_x
  _atom_site_fract_y
  _atom_site_fract_z
  _atom_site_occupancy
  Ge  Ge1       1.0  0.8655564188957214  0.5160471796989441  0.7949576973915101  1.0000
  H   H1        1.0  0.8320350646972656  0.8726137280464172  0.8125627636909486  1.0000
  Ni  Ni1       1.0  0.1791614294052124  0.24418425559997559  0.5549024939537048  1.0000
  Ni  Ni2       1.0  0.5685676336288452  0.7223588824272156  0.7879982590675355  1.0000
  Ni  Ni3       1.0  0.5479441285133362  0.45428547263145447  0.5628587603569032  1.0000
  Ni  Ni4       1.0  0.16238558292388916  0.8647686839103699  0.82375967502594  1.0000
  Ni  Ni5       1.0  0.33388006687164307  0.5221449732780457  0.39163091778755194  1.0000
  Y   Y1        1.0  0.5868403911590576  0.18094943463802338  0.739733099937439  1.0000
  Y   Y2        1.0  0.16080766916275024  0.8618407249450684  0.9385658502578736  1.0000
  Y   Y3        1.0  0.08913268893957138  0.39172250032424927  0.811295509338379  1.0000
