data_image0
_chemical_formula_structural       GeNi3Y6
_chemical_formula_sum              "Ge1 Ni3 Y6"
_cell_length_a       5.296988305845985
_cell_length_b       6.312469293437315
_cell_length_c       6.499773025512695
_cell_angle_alpha    65.45458201433905
_cell_angle_beta     62.91799973560976
_cell_angle_gamma    63.84163932802387

_space_group_name_H-M_alt    "P 1"
_space_group_IT_number       1

loop_
  _space_group_symop_operation_xyz
  'x, y, z'

loop_
  _atom_site_type_symbol
  _atom_site_label
  _atom_site_symmetry_multiplicity
  _atom_site_fract_x
  _atom_site_fract_y
  _atom_site_fract_z
  _atom_site_occupancy
  Ge  Ge1       1.0  0.2847915291786194  0.658989429473877  0.5308153629302979  1.0000
  Ni  Ni1       1.0  0.2809278070926666  0.6057040095329285  0.5414617657661438  1.0000
  Ni  Ni2       1.0  0.9105609655380249  0.8016157150268555  0.8281700015068055  1.0000
  Ni  Ni3       1.0  0.3114629089832306  0.6266944408416748  0.8591355681419374  1.0000
  Y   Y1        1.0  0.5892732739448547  0.1548091173171997  0.1846946328878403  1.0000
  Y   Y2        1.0  0.5957124829292297  0.26713335514068604  0.8455653190612794  1.0000
  Y   Y3        1.0  0.9139419794082642  0.7974127531051636  0.25721895694732666  1.0000
  Y   Y4        1.0  0.2879931628704071  0.5037090182304382  0.5308707356452942  1.0000
  Y   Y5        1.0  0.8183778524398804  0.6642469167709351  0.6558917164802551  1.0000
  Y   Y6        1.0  0.27886828780174255  0.16642151772975922  0.5926372408866882  1.0000
