data_image0
_chemical_formula_structural       Ge2HNi3Y4
_chemical_formula_sum              "Ge2 H1 Ni3 Y4"
_cell_length_a       5.436882094341651
_cell_length_b       6.155859313131805
_cell_length_c       5.982565879821777
_cell_angle_alpha    63.341167078858064
_cell_angle_beta     61.73743086296664
_cell_angle_gamma    62.7210678140677

_space_group_name_H-M_alt    "P 1"
_space_group_IT_number       1

loop_
  _space_group_symop_operation_xyz
  'x, y, z'

loop_
  _atom_site_type_symbol
  _atom_site_label
  _atom_site_symmetry_multiplicity
  _atom_site_fract_x
  _atom_site_fract_y
  _atom_site_fract_z
  _atom_site_occupancy
  Ge  Ge1       1.0  0.7065617442131042  0.39294907450675964  0.4566258192062378  1.0000
  Ge  Ge2       1.0  0.7166929244995117  0.24434038996696472  0.8397535085678101  1.0000
  H   H1        1.0  0.8857489824295044  0.02857212908565998  0.7099183201789856  1.0000
  Ni  Ni1       1.0  0.0211425069719553  0.1691090315580368  0.5789097547531128  1.0000
  Ni  Ni2       1.0  0.7455689907073975  0.6773147583007812  0.8394621014595032  1.0000
  Ni  Ni3       1.0  0.3950622081756592  0.21262197196483612  0.18349918723106384  1.0000
  Y   Y1        1.0  0.4024416506290436  0.6142981648445129  0.8574249148368835  1.0000
  Y   Y2        1.0  0.001290891319513321  0.7265392541885376  0.08281201869249344  1.0000
  Y   Y3        1.0  0.953622043132782  0.004638661164790392  0.09476527571678162  1.0000
  Y   Y4        1.0  0.3956431448459625  0.5642880797386169  0.34077179431915283  1.0000
