data_image0
_chemical_formula_structural       Ge3Ni2Y5
_chemical_formula_sum              "Ge3 Ni2 Y5"
_cell_length_a       5.929421703771443
_cell_length_b       6.292508332417722
_cell_length_c       6.3326311111450195
_cell_angle_alpha    106.24881348293209
_cell_angle_beta     107.17836791056402
_cell_angle_gamma    110.42595643788009

_space_group_name_H-M_alt    "P 1"
_space_group_IT_number       1

loop_
  _space_group_symop_operation_xyz
  'x, y, z'

loop_
  _atom_site_type_symbol
  _atom_site_label
  _atom_site_symmetry_multiplicity
  _atom_site_fract_x
  _atom_site_fract_y
  _atom_site_fract_z
  _atom_site_occupancy
  Ge  Ge1       1.0  0.2337622344493866  0.3966405987739563  0.24606968462467196  1.0000
  Ge  Ge2       1.0  0.8977425694465637  0.10346683114767075  0.5490370392799377  1.0000
  Ge  Ge3       1.0  0.7444549798965454  0.6840061545372009  0.22875089943408972  1.0000
  Ni  Ni1       1.0  0.030119972303509712  0.848544716835022  0.02465506456792358  1.0000
  Ni  Ni2       1.0  0.47993171215057373  0.17696186900138855  0.7778854370117188  1.0000
  Y   Y1        1.0  0.40295636653900146  0.7113136649131775  0.6076370477676392  1.0000
  Y   Y2        1.0  0.06112515926361084  0.7428531646728516  0.5040472745895386  1.0000
  Y   Y3        1.0  0.13354094326496124  0.08333813399076462  0.896809458732605  1.0000
  Y   Y4        1.0  0.10129140317440033  0.3829968571662903  0.7096005082130432  1.0000
  Y   Y5        1.0  0.5309787392616272  0.12798991799354553  0.906531035900116  1.0000
