data_image0
_chemical_formula_structural       Ge3NiY6
_chemical_formula_sum              "Ge3 Ni1 Y6"
_cell_length_a       4.59481031834283
_cell_length_b       5.829506608915869
_cell_length_c       5.344766616821289
_cell_angle_alpha    84.84147286498518
_cell_angle_beta     86.41298032401045
_cell_angle_gamma    85.2631082552777

_space_group_name_H-M_alt    "P 1"
_space_group_IT_number       1

loop_
  _space_group_symop_operation_xyz
  'x, y, z'

loop_
  _atom_site_type_symbol
  _atom_site_label
  _atom_site_symmetry_multiplicity
  _atom_site_fract_x
  _atom_site_fract_y
  _atom_site_fract_z
  _atom_site_occupancy
  Ge  Ge1       1.0  0.42728137969970703  0.7866817116737367  0.2876428961753845  1.0000
  Ge  Ge2       1.0  0.67019122838974  0.24889023602008822  0.742481529712677  1.0000
  Ge  Ge3       1.0  0.7233043909072876  0.7602893114089967  0.46929687261581415  1.0000
  Ni  Ni1       1.0  0.0956708788871765  0.9565411806106568  0.5852280259132385  1.0000
  Y   Y1        1.0  0.23577965795993805  0.9811365604400636  0.41136434674262995  1.0000
  Y   Y2        1.0  0.730766773223877  0.4839595258235932  0.8478955626487731  1.0000
  Y   Y3        1.0  0.08072760701179504  0.04812590405344964  0.8513550162315368  1.0000
  Y   Y4        1.0  0.09241805970668793  0.17969843745231628  0.835096776485443  1.0000
  Y   Y5        1.0  0.7402952313423157  0.4704189002513886  0.48483809828758234  1.0000
  Y   Y6        1.0  0.24616387486457825  0.4823634326457978  0.5505935549736023  1.0000
