data_image0
_chemical_formula_structural       Ce4Co4Ga2V
_chemical_formula_sum              "Ce4 Co4 Ga2 V1"
_cell_length_a       3.6706980648776826
_cell_length_b       7.132351692918076
_cell_length_c       8.665275573730469
_cell_angle_alpha    94.40050616381225
_cell_angle_beta     94.09034945852406
_cell_angle_gamma    89.44608247547893

_space_group_name_H-M_alt    "P 1"
_space_group_IT_number       1

loop_
  _space_group_symop_operation_xyz
  'x, y, z'

loop_
  _atom_site_type_symbol
  _atom_site_label
  _atom_site_symmetry_multiplicity
  _atom_site_fract_x
  _atom_site_fract_y
  _atom_site_fract_z
  _atom_site_occupancy
  Ce  Ce1       1.0  0.3122371435165405  0.9524443745613098  0.12172669917345047  1.0000
  Ce  Ce2       1.0  0.8079200983047485  0.2306416928768158  0.2443862408399582  1.0000
  Ce  Ce3       1.0  0.7899149656295776  0.04862097278237343  0.9023593068122864  1.0000
  Ce  Ce4       1.0  0.2918940782546997  0.547992467880249  0.25968170166015625  1.0000
  Co  Co1       1.0  0.31503206491470337  0.7558096051216125  0.11643675714731216  1.0000
  Co  Co2       1.0  0.30337899923324585  0.7758013010025024  0.22563377022743225  1.0000
  Co  Co3       1.0  0.8021049499511719  0.4218463897705078  0.8866440057754517  1.0000
  Co  Co4       1.0  0.31273674964904785  0.8187063336372375  0.7420914769172668  1.0000
  Ga  Ga1       1.0  0.31529873609542847  0.2957231402397156  0.6085241436958313  1.0000
  Ga  Ga2       1.0  0.8037189245223999  0.8810434937477112  0.195179283618927  1.0000
  V   V1        1.0  0.8032819032669067  0.8145718574523926  0.6050683259963989  1.0000
