data_image0
_chemical_formula_structural       Ce5Co5Ga
_chemical_formula_sum              "Ce5 Co5 Ga1"
_cell_length_a       3.8571361564960416
_cell_length_b       7.238870572182733
_cell_length_c       7.638747215270996
_cell_angle_alpha    92.81902347678495
_cell_angle_beta     89.62984516248846
_cell_angle_gamma    92.32549263826198

_space_group_name_H-M_alt    "P 1"
_space_group_IT_number       1

loop_
  _space_group_symop_operation_xyz
  'x, y, z'

loop_
  _atom_site_type_symbol
  _atom_site_label
  _atom_site_symmetry_multiplicity
  _atom_site_fract_x
  _atom_site_fract_y
  _atom_site_fract_z
  _atom_site_occupancy
  Ce  Ce1       1.0  0.9075459241867067  0.32834514975547785  0.864524006843567  1.0000
  Ce  Ce2       1.0  0.909185290336609  0.6465802788734435  0.77242112159729  1.0000
  Ce  Ce3       1.0  0.4129445850849152  0.15638135373592374  0.7361052632331848  1.0000
  Ce  Ce4       1.0  0.3998034000396729  0.5298760533332825  0.08605088293552399  1.0000
  Ce  Ce5       1.0  0.4058655500411988  0.565693736076355  0.45761039853096014  1.0000
  Co  Co1       1.0  0.8981217741966249  0.6292629837989806  0.9411736726760865  1.0000
  Co  Co2       1.0  0.40025112032890325  0.5512337684631348  0.2187173366546631  1.0000
  Co  Co3       1.0  0.8995551466941835  0.04828187450766563  0.4575569331645966  1.0000
  Co  Co4       1.0  0.39721703529357916  0.8640967607498168  0.8360875844955445  1.0000
  Co  Co5       1.0  0.4067449867725373  0.05016526952385902  0.34115275740623474  1.0000
  Ga  Ga1       1.0  0.9002063274383546  0.704992115497589  0.02036478742957115  1.0000
