data_image0
_chemical_formula_structural       Ce4Co2Ga5
_chemical_formula_sum              "Ce4 Co2 Ga5"
_cell_length_a       4.425999786073373
_cell_length_b       7.321031849479039
_cell_length_c       7.406245231628418
_cell_angle_alpha    121.75397409165565
_cell_angle_beta     90.7949136400184
_cell_angle_gamma    88.59477607790416

_space_group_name_H-M_alt    "P 1"
_space_group_IT_number       1

loop_
  _space_group_symop_operation_xyz
  'x, y, z'

loop_
  _atom_site_type_symbol
  _atom_site_label
  _atom_site_symmetry_multiplicity
  _atom_site_fract_x
  _atom_site_fract_y
  _atom_site_fract_z
  _atom_site_occupancy
  Ce  Ce1       1.0  0.1407313495874405  0.5893473029136658  0.3431943953037262  1.0000
  Ce  Ce2       1.0  0.6591097712516785  0.6394005417823792  0.5855104923248291  1.0000
  Ce  Ce3       1.0  0.16350559890270233  0.18277360498905182  0.09113124758005142  1.0000
  Ce  Ce4       1.0  0.16602841019630432  0.9854772090911864  0.06339593231677997  1.0000
  Co  Co1       1.0  0.6668005585670471  0.8433969020843505  0.9703163504600523  1.0000
  Co  Co2       1.0  0.16713032126426697  0.47447416186332697  0.8390496373176575  1.0000
  Ga  Ga1       1.0  0.18769198656082153  0.430554986000061  0.3971562683582306  1.0000
  Ga  Ga2       1.0  0.6531004905700684  0.5266293883323669  0.8142856359481812  1.0000
  Ga  Ga3       1.0  0.6960802674293518  0.13838697969913483  0.8942644000053406  1.0000
  Ga  Ga4       1.0  0.668592631816864  0.14558769762516022  0.5561365485191345  1.0000
  Ga  Ga5       1.0  0.1434854120016098  0.10896053910255431  0.8376533389091492  1.0000
