data_image0
_chemical_formula_structural       Ce4Co3Ga3V
_chemical_formula_sum              "Ce4 Co3 Ga3 V1"
_cell_length_a       3.739525577512298
_cell_length_b       6.887374772810602
_cell_length_c       8.329813957214355
_cell_angle_alpha    102.85146658380992
_cell_angle_beta     88.15433573320972
_cell_angle_gamma    90.24463524131492

_space_group_name_H-M_alt    "P 1"
_space_group_IT_number       1

loop_
  _space_group_symop_operation_xyz
  'x, y, z'

loop_
  _atom_site_type_symbol
  _atom_site_label
  _atom_site_symmetry_multiplicity
  _atom_site_fract_x
  _atom_site_fract_y
  _atom_site_fract_z
  _atom_site_occupancy
  Ce  Ce1       1.0  0.2714388370513916  0.5296022295951843  0.2775631248950958  1.0000
  Ce  Ce2       1.0  0.7684186697006224  0.3923451006412506  0.773807168006897  1.0000
  Ce  Ce3       1.0  0.7818226218223571  0.35146456956863403  0.407998651266098  1.0000
  Ce  Ce4       1.0  0.2842568755149841  0.5023035407066345  0.1797066330909729  1.0000
  Co  Co1       1.0  0.274129182100296  0.16615325212478638  0.4988725483417511  1.0000
  Co  Co2       1.0  0.28807842731475825  0.6442921161651611  0.11740130186080931  1.0000
  Co  Co3       1.0  0.2797288298606872  0.4611192643642425  0.9635876417160034  1.0000
  Ga  Ga1       1.0  0.7945694923400878  0.985175848007202  0.428976833820343  1.0000
  Ga  Ga2       1.0  0.7749757766723632  0.9109193086624144  0.35893985629081726  1.0000
  Ga  Ga3       1.0  0.7817993164062499  0.95229434967041  0.9932942390441895  1.0000
  V   V1        1.0  0.27229124307632446  0.7175229787826538  0.33997878432273865  1.0000
