data_image0
_chemical_formula_structural       Ce4Co3Ga4
_chemical_formula_sum              "Ce4 Co3 Ga4"
_cell_length_a       4.446278773150262
_cell_length_b       7.750986244616517
_cell_length_c       7.514851093292236
_cell_angle_alpha    120.0738014824461
_cell_angle_beta     84.02747307768053
_cell_angle_gamma    92.34452452162398

_space_group_name_H-M_alt    "P 1"
_space_group_IT_number       1

loop_
  _space_group_symop_operation_xyz
  'x, y, z'

loop_
  _atom_site_type_symbol
  _atom_site_label
  _atom_site_symmetry_multiplicity
  _atom_site_fract_x
  _atom_site_fract_y
  _atom_site_fract_z
  _atom_site_occupancy
  Ce  Ce1       1.0  0.4498212933540344  0.7512415051460266  0.7652574181556702  1.0000
  Ce  Ce2       1.0  0.9443533420562744  0.8975026607513428  0.38053572177886963  1.0000
  Ce  Ce3       1.0  0.44376271963119507  0.500565767288208  0.14944247901439664  1.0000
  Ce  Ce4       1.0  0.44923409819602966  0.5348690748214722  0.1325417011976242  1.0000
  Co  Co1       1.0  0.9482818841934204  0.511884868144989  0.5121704339981079  1.0000
  Co  Co2       1.0  0.9473350644111633  0.3499888479709625  0.327629029750824  1.0000
  Co  Co3       1.0  0.44269683957099915  0.11767128109931946  0.4870296716690064  1.0000
  Ga  Ga1       1.0  0.9499619007110596  0.20346923172473907  0.7844780087471009  1.0000
  Ga  Ga2       1.0  0.452404648065567  0.33228209614753723  0.6913881301879883  1.0000
  Ga  Ga3       1.0  0.9457486271858215  0.2431173324584961  0.5270271897315979  1.0000
  Ga  Ga4       1.0  0.4482763707637787  0.8229581713676453  0.8495953679084779  1.0000
