data_image0
_chemical_formula_structural       AlCe2ClCo2Ga4Ge
_chemical_formula_sum              "Al1 Ce2 Cl1 Co2 Ga4 Ge1"
_cell_length_a       3.629387956226796
_cell_length_b       7.0470603586084355
_cell_length_c       8.072258949279785
_cell_angle_alpha    98.88453560294084
_cell_angle_beta     88.36238823823274
_cell_angle_gamma    88.7756315359915

_space_group_name_H-M_alt    "P 1"
_space_group_IT_number       1

loop_
  _space_group_symop_operation_xyz
  'x, y, z'

loop_
  _atom_site_type_symbol
  _atom_site_label
  _atom_site_symmetry_multiplicity
  _atom_site_fract_x
  _atom_site_fract_y
  _atom_site_fract_z
  _atom_site_occupancy
  Al  Al1       1.0  0.9195406436920166  0.09864568710327148  0.7870725989341736  1.0000
  Ce  Ce1       1.0  0.4266769289970398  0.0773066058754921  0.4360105097293854  1.0000
  Ce  Ce2       1.0  0.9112871289253235  0.06454761326313019  0.9033663868904114  1.0000
  Cl  Cl1       1.0  0.9471752643585205  0.2494063675403595  0.5602269172668457  1.0000
  Co  Co1       1.0  0.9174368381500244  0.546619176864624  0.4673531949520111  1.0000
  Co  Co2       1.0  0.41351190209388733  0.7369128465652466  0.27529090642929077  1.0000
  Ga  Ga1       1.0  0.39818692207336426  0.11786659806966782  0.9424440264701843  1.0000
  Ga  Ga2       1.0  0.936423659324646  0.7037630677223206  0.9385188221931458  1.0000
  Ga  Ga3       1.0  0.41361621022224426  0.020629318431019783  0.7842229008674622  1.0000
  Ga  Ga4       1.0  0.4297553598880768  0.2291029989719391  0.7681536674499512  1.0000
  Ge  Ge1       1.0  0.42362138628959656  0.7230632305145264  0.17463205754756927  1.0000
