data_image0
_chemical_formula_structural       AsIrSbZr3
_chemical_formula_sum              "As1 Ir1 Sb1 Zr3"
_cell_length_a       7.232049825261532
_cell_length_b       7.4691618462815175
_cell_length_c       9.199723243713379
_cell_angle_alpha    119.19605723180999
_cell_angle_beta     113.11755504468167
_cell_angle_gamma    87.53426537869555

_space_group_name_H-M_alt    "P 1"
_space_group_IT_number       1

loop_
  _space_group_symop_operation_xyz
  'x, y, z'

loop_
  _atom_site_type_symbol
  _atom_site_label
  _atom_site_symmetry_multiplicity
  _atom_site_fract_x
  _atom_site_fract_y
  _atom_site_fract_z
  _atom_site_occupancy
  As  As1       1.0  0.22897762060165402  0.7563620209693909  0.8436812162399292  1.0000
  Ir  Ir1       1.0  0.7283100485801697  0.2054039090871811  0.27010977268218994  1.0000
  Sb  Sb1       1.0  0.7219191193580627  0.8334692716598511  0.5447057485580444  1.0000
  Zr  Zr1       1.0  0.15742258727550507  0.8109287619590759  0.1475513577461242  1.0000
  Zr  Zr2       1.0  0.7145389914512634  0.944707453250885  0.6119992733001709  1.0000
  Zr  Zr3       1.0  0.3545677661895752  0.11252747476100922  0.15914082527160645  1.0000
