data_image0
_chemical_formula_structural       As4C2
_chemical_formula_sum              "As4 C2"
_cell_length_a       3.6516302994112455
_cell_length_b       4.310190462050011
_cell_length_c       6.681820392608643
_cell_angle_alpha    111.60089696011828
_cell_angle_beta     90.5337484808857
_cell_angle_gamma    90.87283630700618

_space_group_name_H-M_alt    "P 1"
_space_group_IT_number       1

loop_
  _space_group_symop_operation_xyz
  'x, y, z'

loop_
  _atom_site_type_symbol
  _atom_site_label
  _atom_site_symmetry_multiplicity
  _atom_site_fract_x
  _atom_site_fract_y
  _atom_site_fract_z
  _atom_site_occupancy
  As  As1       1.0  0.38229572772979736  0.2076883465051651  0.38949045538902277  1.0000
  As  As2       1.0  0.5677396655082703  0.2948911786079407  0.8137648701667783  1.0000
  As  As3       1.0  0.5266896486282349  0.1375720053911209  0.025202848017215725  1.0000
  As  As4       1.0  0.8669056296348572  0.19056986272335052  0.5685825347900391  1.0000
  C   C1        1.0  0.042843401432037354  0.3897075951099396  0.9406115412712096  1.0000
  C   C2        1.0  0.053341902792453766  0.9566418528556824  0.6849925518035889  1.0000
