data_image0
_chemical_formula_structural       ErF2GaIInPb2Pt2Zr
_chemical_formula_sum              "Er1 F2 Ga1 I1 In1 Pb2 Pt2 Zr1"
_cell_length_a       6.688881515581671
_cell_length_b       6.704615349589913
_cell_length_c       6.639038562774658
_cell_angle_alpha    57.79840761358345
_cell_angle_beta     62.14558280366028
_cell_angle_gamma    59.684208244127575

_space_group_name_H-M_alt    "P 1"
_space_group_IT_number       1

loop_
  _space_group_symop_operation_xyz
  'x, y, z'

loop_
  _atom_site_type_symbol
  _atom_site_label
  _atom_site_symmetry_multiplicity
  _atom_site_fract_x
  _atom_site_fract_y
  _atom_site_fract_z
  _atom_site_occupancy
  Er  Er1       1.0  0.06512819975614548  0.6700810790061951  0.6217098832130432  1.0000
  F   F1        1.0  0.26604801416397095  0.48742431402206415  0.28405791521072393  1.0000
  F   F2        1.0  0.273537278175354  0.5426962971687317  0.298603504896164  1.0000
  Ga  Ga1       1.0  0.5005226731300354  0.17017681896686554  0.03364406153559691  1.0000
  I   I1        1.0  0.05203625187277794  0.06462762504816055  0.5617687106132507  1.0000
  In  In1       1.0  0.1376992464065552  0.9109932780265807  0.48889490962028503  1.0000
  Pb  Pb1       1.0  0.5120055675506592  0.1481061726808548  0.496280163526535  1.0000
  Pb  Pb2       1.0  0.5566736459732056  0.1297326385974884  0.7032715678215026  1.0000
  Pt  Pt1       1.0  0.9612549543380737  0.8579033017158508  0.03049782104790224  1.0000
  Pt  Pt2       1.0  0.9542911052703857  0.37023285031318665  0.9291120767593383  1.0000
  Zr  Zr1       1.0  0.7749166488647461  0.10759629309177399  0.7032123804092406  1.0000
