data_image0
_chemical_formula_structural       Er2EuHIPPb2Pt2Ru
_chemical_formula_sum              "Er2 Eu1 H1 I1 P1 Pb2 Pt2 Ru1"
_cell_length_a       4.067089372726448
_cell_length_b       7.10375294614737
_cell_length_c       8.215666770935059
_cell_angle_alpha    91.01808797984641
_cell_angle_beta     90.93126401500197
_cell_angle_gamma    89.38282963720748

_space_group_name_H-M_alt    "P 1"
_space_group_IT_number       1

loop_
  _space_group_symop_operation_xyz
  'x, y, z'

loop_
  _atom_site_type_symbol
  _atom_site_label
  _atom_site_symmetry_multiplicity
  _atom_site_fract_x
  _atom_site_fract_y
  _atom_site_fract_z
  _atom_site_occupancy
  Er  Er1       1.0  0.911188006401062  0.35246700048446655  0.9963805079460144  1.0000
  Er  Er2       1.0  0.8891430497169495  0.26157939434051514  0.8666788935661316  1.0000
  Eu  Eu1       1.0  0.8083336353302002  0.01581217721104622  0.7865234613418579  1.0000
  H   H1        1.0  0.4098488986492157  0.4584602117538452  0.14457763731479645  1.0000
  I   I1        1.0  0.9095286130905151  0.29511216282844543  0.12891964614391327  1.0000
  P   P1        1.0  0.9009720087051392  0.22208188474178314  0.2643282115459442  1.0000
  Pb  Pb1       1.0  0.4028419852256775  0.03193901106715202  0.18317875266075134  1.0000
  Pb  Pb2       1.0  0.4012462794780731  0.19729846715927124  0.7816866040229797  1.0000
  Pt  Pt1       1.0  0.9347831010818481  0.020452814176678658  0.6900854706764221  1.0000
  Pt  Pt2       1.0  0.9233093857765198  0.8850945830345154  0.8449278473854065  1.0000
  Ru  Ru1       1.0  0.4271964132785797  0.5488055348396301  0.28779202699661255  1.0000
