data_image0
_chemical_formula_structural       Er4FIn5Li
_chemical_formula_sum              "Er4 F1 In5 Li1"
_cell_length_a       5.623426551436041
_cell_length_b       6.878419383488499
_cell_length_c       7.311895370483398
_cell_angle_alpha    66.87802989102526
_cell_angle_beta     61.46752033358844
_cell_angle_gamma    61.90188675400516

_space_group_name_H-M_alt    "P 1"
_space_group_IT_number       1

loop_
  _space_group_symop_operation_xyz
  'x, y, z'

loop_
  _atom_site_type_symbol
  _atom_site_label
  _atom_site_symmetry_multiplicity
  _atom_site_fract_x
  _atom_site_fract_y
  _atom_site_fract_z
  _atom_site_occupancy
  Er  Er1       1.0  0.8052924275398254  0.11891041696071625  0.6105260848999022  1.0000
  Er  Er2       1.0  0.6746571660041809  0.5149655938148499  0.0945511758327484  1.0000
  Er  Er3       1.0  0.8705835938453674  0.9055603742599487  0.7100955843925475  1.0000
  Er  Er4       1.0  0.40253642201423645  0.9407834410667419  0.9894202947616576  1.0000
  F   F1        1.0  0.22248107194900513  0.3441033661365509  0.6063819527626036  1.0000
  In  In1       1.0  0.13615727424621582  0.029515961185097694  0.02156753838062286  1.0000
  In  In2       1.0  0.5043846368789673  0.4243406057357788  0.6170930862426757  1.0000
  In  In3       1.0  0.8716433644294739  0.15094353258609772  0.3948360383510589  1.0000
  In  In4       1.0  0.8625645637512207  0.4171825051307678  0.9970692992210387  1.0000
  In  In5       1.0  0.16513706743717194  0.8630824089050293  0.8255879282951354  1.0000
  Li  Li1       1.0  0.8760135769844055  0.8640056252479553  0.5576905608177184  1.0000
