data_image0
_chemical_formula_structural       Er3ILiLuPb2PtRuTb
_chemical_formula_sum              "Er3 I1 Li1 Lu1 Pb2 Pt1 Ru1 Tb1"
_cell_length_a       5.823600405823827
_cell_length_b       7.916283290405056
_cell_length_c       8.783358573913574
_cell_angle_alpha    120.01242569629686
_cell_angle_beta     90.27359403249363
_cell_angle_gamma    90.72963889040707

_space_group_name_H-M_alt    "P 1"
_space_group_IT_number       1

loop_
  _space_group_symop_operation_xyz
  'x, y, z'

loop_
  _atom_site_type_symbol
  _atom_site_label
  _atom_site_symmetry_multiplicity
  _atom_site_fract_x
  _atom_site_fract_y
  _atom_site_fract_z
  _atom_site_occupancy
  Er  Er1       1.0  0.23933471739292145  0.5316059589385986  0.15101093053817755  1.0000
  Er  Er2       1.0  0.7395079731941223  0.4616363048553466  0.7266223430633545  1.0000
  Er  Er3       1.0  0.7399689555168152  0.49795213341712946  0.9811354279518127  1.0000
  I   I1        1.0  0.7404677271842957  0.45835217833518976  0.6853753328323364  1.0000
  Li  Li1       1.0  0.23933012783527374  0.8558713197708129  0.5965429544448853  1.0000
  Lu  Lu1       1.0  0.23862549662590027  0.47567629814147944  0.33954235911369324  1.0000
  Pb  Pb1       1.0  0.518822431564331  0.09297545254230498  0.1994825303554535  1.0000
  Pb  Pb2       1.0  0.742779552936554  0.9104560613632201  0.20370350778102875  1.0000
  Pt  Pt1       1.0  0.23920652270317078  0.13212577998638153  0.11406561732292175  1.0000
  Ru  Ru1       1.0  0.7407299280166626  0.2052020728588104  0.023746537044644356  1.0000
  Tb  Tb1       1.0  0.23868423700332642  0.9871867895126342  0.5553900003433228  1.0000
