data_image0
_chemical_formula_structural       Er2FGa2IPbPtRuTbZn
_chemical_formula_sum              "Er2 F1 Ga2 I1 Pb1 Pt1 Ru1 Tb1 Zn1"
_cell_length_a       6.335088901116362
_cell_length_b       6.259628848640348
_cell_length_c       8.728703498840332
_cell_angle_alpha    80.85236996461983
_cell_angle_beta     71.41907345581096
_cell_angle_gamma    62.42933744843392

_space_group_name_H-M_alt    "P 1"
_space_group_IT_number       1

loop_
  _space_group_symop_operation_xyz
  'x, y, z'

loop_
  _atom_site_type_symbol
  _atom_site_label
  _atom_site_symmetry_multiplicity
  _atom_site_fract_x
  _atom_site_fract_y
  _atom_site_fract_z
  _atom_site_occupancy
  Er  Er1       1.0  0.4928610324859619  0.8265092372894287  0.9686077237129211  1.0000
  Er  Er2       1.0  0.7364223003387451  0.9414426684379578  0.3727332353591919  1.0000
  F   F1        1.0  0.21245695650577545  0.910491406917572  0.6449364423751831  1.0000
  Ga  Ga1       1.0  0.7344005107879639  0.7832739949226379  0.8575941324234009  1.0000
  Ga  Ga2       1.0  0.6333240270614624  0.5636864304542542  0.5942566990852356  1.0000
  I   I1        1.0  0.5040482878684998  0.5914108157157898  0.5395862460136414  1.0000
  Pb  Pb1       1.0  0.19231685996055603  0.2863835394382477  0.009576565586030471  1.0000
  Pt  Pt1       1.0  0.23960329592227936  0.9465774297714233  0.9008702635765076  1.0000
  Ru  Ru1       1.0  0.7107625603675842  0.20568889379501343  0.5453503727912903  1.0000
  Tb  Tb1       1.0  0.21252484619617462  0.14794276654720306  0.7564787268638611  1.0000
  Zn  Zn1       1.0  0.21124416589736938  0.16831547021865845  0.7070595026016235  1.0000
