data_image0
_chemical_formula_structural       Er6FIn4
_chemical_formula_sum              "Er6 F1 In4"
_cell_length_a       5.451410106681749
_cell_length_b       5.890834233426628
_cell_length_c       8.041810035705566
_cell_angle_alpha    67.74664499858415
_cell_angle_beta     68.9762651503186
_cell_angle_gamma    60.113427843363475

_space_group_name_H-M_alt    "P 1"
_space_group_IT_number       1

loop_
  _space_group_symop_operation_xyz
  'x, y, z'

loop_
  _atom_site_type_symbol
  _atom_site_label
  _atom_site_symmetry_multiplicity
  _atom_site_fract_x
  _atom_site_fract_y
  _atom_site_fract_z
  _atom_site_occupancy
  Er  Er1       1.0  0.14322251081466675  0.6497395634651184  0.5438724756240845  1.0000
  Er  Er2       1.0  0.6898215413093567  0.1610507220029831  0.8194719552993774  1.0000
  Er  Er3       1.0  0.7228007316589355  0.7121390104293823  0.9963933825492859  1.0000
  Er  Er4       1.0  0.08182035386562347  0.9370455145835876  0.41825079917907715  1.0000
  Er  Er5       1.0  0.11949659883975984  0.24126905202865598  0.3904839754104614  1.0000
  Er  Er6       1.0  0.6775838732719421  0.8994826078414917  0.37786567211151123  1.0000
  F   F1        1.0  0.6732178926467896  0.7490602731704712  0.01721181347966194  1.0000
  In  In1       1.0  0.1085986942052841  0.47582197189331055  0.24794644117355347  1.0000
  In  In2       1.0  0.5993391871452332  0.13582009077072144  0.15828149020671847  1.0000
  In  In3       1.0  0.5926580429077148  0.4399329721927643  0.7181414365768433  1.0000
  In  In4       1.0  0.6262356042861938  0.3107893764972687  0.3919031023979187  1.0000
