data_image0
_chemical_formula_structural       H3ScSr6
_chemical_formula_sum              "H3 Sc1 Sr6"
_cell_length_a       6.403106248884982
_cell_length_b       6.681198636282613
_cell_length_c       6.893095970153809
_cell_angle_alpha    62.05751323793869
_cell_angle_beta     62.88628056489962
_cell_angle_gamma    61.80074564099802

_space_group_name_H-M_alt    "P 1"
_space_group_IT_number       1

loop_
  _space_group_symop_operation_xyz
  'x, y, z'

loop_
  _atom_site_type_symbol
  _atom_site_label
  _atom_site_symmetry_multiplicity
  _atom_site_fract_x
  _atom_site_fract_y
  _atom_site_fract_z
  _atom_site_occupancy
  H   H1        1.0  0.21407689154148102  0.002317461185157299  0.8054473400115967  1.0000
  H   H2        1.0  0.4020816385746002  0.4028843939304352  0.6280656456947327  1.0000
  H   H3        1.0  0.8932136297225952  0.17526279389858246  0.2735470831394195  1.0000
  Sc  Sc1       1.0  0.17673511803150177  0.6855822801589966  0.2190551906824112  1.0000
  Sr  Sr1       1.0  0.17215488851070404  0.10713177919387817  0.9639734625816345  1.0000
  Sr  Sr2       1.0  0.6380760073661804  0.6839272975921631  0.09113181382417679  1.0000
  Sr  Sr3       1.0  0.7099685072898865  0.17143034934997559  0.2659029066562652  1.0000
  Sr  Sr4       1.0  0.6776748895645142  0.18196223676204681  0.7311285734176636  1.0000
  Sr  Sr5       1.0  0.16032026708126068  0.20467953383922577  0.46657252311706543  1.0000
  Sr  Sr6       1.0  0.7030867338180542  0.5193676948547363  0.6285702586174011  1.0000
