data_image0
_chemical_formula_structural       H3Sr6Tl
_chemical_formula_sum              "H3 Sr6 Tl1"
_cell_length_a       5.791302577615538
_cell_length_b       6.320439020230961
_cell_length_c       7.0693817138671875
_cell_angle_alpha    73.26143446211567
_cell_angle_beta     66.96515617232662
_cell_angle_gamma    63.11228496605416

_space_group_name_H-M_alt    "P 1"
_space_group_IT_number       1

loop_
  _space_group_symop_operation_xyz
  'x, y, z'

loop_
  _atom_site_type_symbol
  _atom_site_label
  _atom_site_symmetry_multiplicity
  _atom_site_fract_x
  _atom_site_fract_y
  _atom_site_fract_z
  _atom_site_occupancy
  H   H1        1.0  0.03598278388381004  0.8811189532279968  0.8560003638267518  1.0000
  H   H2        1.0  0.8533486127853394  0.8694875240325928  0.2741175889968872  1.0000
  H   H3        1.0  0.5255261063575745  0.5410475730895996  0.8613635301589967  1.0000
  Sr  Sr1       1.0  0.18869680166244507  0.9045806527137756  0.18794672191143036  1.0000
  Sr  Sr2       1.0  0.816027820110321  0.17937901616096497  0.9760774970054628  1.0000
  Sr  Sr3       1.0  0.7033815383911133  0.5535410046577454  0.9728969335556031  1.0000
  Sr  Sr4       1.0  0.24858592450618744  0.15314935147762299  0.18564720451831818  1.0000
  Sr  Sr5       1.0  0.3181993067264557  0.3317084312438965  0.4627183079719544  1.0000
  Sr  Sr6       1.0  0.24139830470085144  0.13494345545768738  0.8856433033943177  1.0000
  Tl  Tl1       1.0  0.3006720244884491  0.31133216619491577  0.46637138724327093  1.0000
