data_image0
_chemical_formula_structural       H2Sr8
_chemical_formula_sum              "H2 Sr8"
_cell_length_a       6.453510146858432
_cell_length_b       6.716929668667348
_cell_length_c       6.398654937744141
_cell_angle_alpha    59.89511098695562
_cell_angle_beta     62.73194244232213
_cell_angle_gamma    62.4697857899586

_space_group_name_H-M_alt    "P 1"
_space_group_IT_number       1

loop_
  _space_group_symop_operation_xyz
  'x, y, z'

loop_
  _atom_site_type_symbol
  _atom_site_label
  _atom_site_symmetry_multiplicity
  _atom_site_fract_x
  _atom_site_fract_y
  _atom_site_fract_z
  _atom_site_occupancy
  H   H1        1.0  0.2820327877998352  0.7798596024513245  0.8281665444374083  1.0000
  H   H2        1.0  0.8479588031768799  0.333874374628067  0.5020657181739806  1.0000
  Sr  Sr1       1.0  0.5391701459884644  0.09806997328996658  0.582203984260559  1.0000
  Sr  Sr2       1.0  0.7947050333023071  0.7734744548797607  0.8955172896385192  1.0000
  Sr  Sr3       1.0  0.78963702917099  0.7716208696365356  0.661698818206787  1.0000
  Sr  Sr4       1.0  0.05952584743499756  0.26400691270828247  0.2824823260307312  1.0000
  Sr  Sr5       1.0  0.3030712902545929  0.3185375928878784  0.9540868401527404  1.0000
  Sr  Sr6       1.0  0.3373827338218689  0.3242229223251343  0.021297445520758625  1.0000
  Sr  Sr7       1.0  0.3004167377948761  0.8115297555923462  0.2227188944816589  1.0000
  Sr  Sr8       1.0  0.026709526777267456  0.30652865767478943  0.31788295507431025  1.0000
