data_image0
_chemical_formula_structural       H3Sr7
_chemical_formula_sum              "H3 Sr7"
_cell_length_a       6.528232771041882
_cell_length_b       6.493318611953895
_cell_length_c       6.68953275680542
_cell_angle_alpha    67.99249555771381
_cell_angle_beta     60.268978334432965
_cell_angle_gamma    62.683848331920096

_space_group_name_H-M_alt    "P 1"
_space_group_IT_number       1

loop_
  _space_group_symop_operation_xyz
  'x, y, z'

loop_
  _atom_site_type_symbol
  _atom_site_label
  _atom_site_symmetry_multiplicity
  _atom_site_fract_x
  _atom_site_fract_y
  _atom_site_fract_z
  _atom_site_occupancy
  H   H1        1.0  0.4213142395019531  0.23696742951869965  0.6342177987098694  1.0000
  H   H2        1.0  0.7875875234603882  0.9736605286598206  0.8100183606147767  1.0000
  H   H3        1.0  0.21585944294929504  0.47855111956596375  0.7482624650001527  1.0000
  Sr  Sr1       1.0  0.8699887990951538  0.12639884650707245  0.5832218527793884  1.0000
  Sr  Sr2       1.0  0.04736420139670372  0.8140372633934021  0.3207620680332184  1.0000
  Sr  Sr3       1.0  0.18512755632400513  0.6036850214004517  0.0774972215294838  1.0000
  Sr  Sr4       1.0  0.7808812856674194  0.317987859249115  0.8278998732566835  1.0000
  Sr  Sr5       1.0  0.5328051447868347  0.6094151735305786  0.0908370465040207  1.0000
  Sr  Sr6       1.0  0.5105526447296143  0.920280396938324  0.44720044732093817  1.0000
  Sr  Sr7       1.0  0.2563295066356659  0.5181267261505127  0.9601407647132875  1.0000
