data_image0
_chemical_formula_structural       ClH4PdRhSr3
_chemical_formula_sum              "Cl1 H4 Pd1 Rh1 Sr3"
_cell_length_a       5.442096601237182
_cell_length_b       5.6681833841153475
_cell_length_c       6.66954231262207
_cell_angle_alpha    65.21047330728072
_cell_angle_beta     60.44604391940471
_cell_angle_gamma    60.092927484326836

_space_group_name_H-M_alt    "P 1"
_space_group_IT_number       1

loop_
  _space_group_symop_operation_xyz
  'x, y, z'

loop_
  _atom_site_type_symbol
  _atom_site_label
  _atom_site_symmetry_multiplicity
  _atom_site_fract_x
  _atom_site_fract_y
  _atom_site_fract_z
  _atom_site_occupancy
  Cl  Cl1       1.0  0.4058257043361664  0.8818206787109375  0.08411109447479248  1.0000
  H   H1        1.0  0.01290697418153286  0.8872794508934021  0.0562006905674935  1.0000
  H   H2        1.0  0.4521704614162445  0.2306843400001526  0.2045747637748718  1.0000
  H   H3        1.0  0.44871920347213745  0.21604660153388977  0.8366993069648743  1.0000
  H   H4        1.0  0.2715228796005249  0.8743200898170471  0.6035968661308289  1.0000
  Pd  Pd1       1.0  0.44105544686317444  0.34677791595458984  0.8226960897445679  1.0000
  Rh  Rh1       1.0  0.433334082365036  0.21688857674598694  0.9481722116470337  1.0000
  Sr  Sr1       1.0  0.045449383556842804  0.388076514005661  0.5357182621955872  1.0000
  Sr  Sr2       1.0  0.6684419512748718  0.708494246006012  0.27486419677734375  1.0000
  Sr  Sr3       1.0  0.6655047535896301  0.7191409468650818  0.28641864657402033  1.0000
