data_image0
_chemical_formula_structural       H4PdRhSr4
_chemical_formula_sum              "H4 Pd1 Rh1 Sr4"
_cell_length_a       5.629530718756007
_cell_length_b       5.846198140817951
_cell_length_c       6.538003921508789
_cell_angle_alpha    67.35734058975201
_cell_angle_beta     62.70849057008774
_cell_angle_gamma    59.83809570870163

_space_group_name_H-M_alt    "P 1"
_space_group_IT_number       1

loop_
  _space_group_symop_operation_xyz
  'x, y, z'

loop_
  _atom_site_type_symbol
  _atom_site_label
  _atom_site_symmetry_multiplicity
  _atom_site_fract_x
  _atom_site_fract_y
  _atom_site_fract_z
  _atom_site_occupancy
  H   H1        1.0  0.6636900305747986  0.9879792928695679  0.49984785914421076  1.0000
  H   H2        1.0  0.8973108530044556  0.8390573859214783  0.9706212282180785  1.0000
  H   H3        1.0  0.5117905139923096  0.6815610527992249  0.39225527644157415  1.0000
  H   H4        1.0  0.8718560338020325  0.7553855776786804  0.9078574180603026  1.0000
  Pd  Pd1       1.0  0.7617883086204529  0.27175310254096985  0.7026019096374511  1.0000
  Rh  Rh1       1.0  0.272526353597641  0.9923062324523926  0.42164489626884455  1.0000
  Sr  Sr1       1.0  0.28739526867866516  0.4880774915218353  0.9283176064491271  1.0000
  Sr  Sr2       1.0  0.873286247253418  0.5032865405082703  0.06405378878116608  1.0000
  Sr  Sr3       1.0  0.2676399350166321  0.7554594874382019  0.15827786922454834  1.0000
  Sr  Sr4       1.0  0.2649759352207184  0.9964373707771301  0.2452449798583984  1.0000
