data_image0
_chemical_formula_structural       Co3Sc4
_chemical_formula_sum              "Co3 Sc4"
_cell_length_a       5.358429115237208
_cell_length_b       5.070390693161043
_cell_length_c       5.591024875640869
_cell_angle_alpha    69.97426407761729
_cell_angle_beta     71.34470694182316
_cell_angle_gamma    70.18575406859297

_space_group_name_H-M_alt    "P 1"
_space_group_IT_number       1

loop_
  _space_group_symop_operation_xyz
  'x, y, z'

loop_
  _atom_site_type_symbol
  _atom_site_label
  _atom_site_symmetry_multiplicity
  _atom_site_fract_x
  _atom_site_fract_y
  _atom_site_fract_z
  _atom_site_occupancy
  Co  Co1       1.0  0.08415178209543228  0.6265287399291992  0.8375505208969116  1.0000
  Co  Co2       1.0  0.5297085046768188  0.6795533895492554  0.44993168115615845  1.0000
  Co  Co3       1.0  0.023106718435883522  0.20992903411388397  0.40367835760116577  1.0000
  Sc  Sc1       1.0  0.05360325053334236  0.01623488776385784  0.7170788049697876  1.0000
  Sc  Sc2       1.0  0.637779176235199  0.3334408104419708  0.7987814545631409  1.0000
  Sc  Sc3       1.0  0.01406017504632473  0.7728513479232788  0.691369891166687  1.0000
  Sc  Sc4       1.0  0.3002561032772064  0.32802045345306396  0.318400114774704  1.0000
