data_image0
_chemical_formula_structural       Er2Ge4IIrLu2SeTb
_chemical_formula_sum              "Er2 Ge4 I1 Ir1 Lu2 Se1 Tb1"
_cell_length_a       6.320262303530994
_cell_length_b       6.993089175526645
_cell_length_c       9.045233726501465
_cell_angle_alpha    90.51291145134236
_cell_angle_beta     91.81840331647807
_cell_angle_gamma    103.79625007745295

_space_group_name_H-M_alt    "P 1"
_space_group_IT_number       1

loop_
  _space_group_symop_operation_xyz
  'x, y, z'

loop_
  _atom_site_type_symbol
  _atom_site_label
  _atom_site_symmetry_multiplicity
  _atom_site_fract_x
  _atom_site_fract_y
  _atom_site_fract_z
  _atom_site_occupancy
  Er  Er1       1.0  0.21113309264183044  0.9731560349464417  0.6694960594177245  1.0000
  Er  Er2       1.0  0.7125204801559448  0.9946507215499878  0.39458855986595154  1.0000
  Ge  Ge1       1.0  0.7076901197433472  0.5200405120849609  0.7620909214019775  1.0000
  Ge  Ge2       1.0  0.70770663022995  0.40577200055122375  0.913482666015625  1.0000
  Ge  Ge3       1.0  0.7104541659355164  0.6926621794700623  0.035511940717697144  1.0000
  Ge  Ge4       1.0  0.19744622707366943  0.8394664525985718  0.8629674315452576  1.0000
  I   I1        1.0  0.5056812167167664  0.4759884774684906  0.5158023834228516  1.0000
  Ir  Ir1       1.0  0.20958252251148224  0.9743655920028687  0.48202115297317505  1.0000
  Lu  Lu1       1.0  0.2019071877002716  0.24659396708011627  0.4848051071166992  1.0000
  Lu  Lu2       1.0  0.2096392661333084  0.9806033372879028  0.14418575167655945  1.0000
  Se  Se1       1.0  0.20066262781620026  0.717667281627655  0.7735358476638794  1.0000
  Tb  Tb1       1.0  0.19624190032482147  0.13760659098625183  0.8852810263633728  1.0000
