data_image0
_chemical_formula_structural       CsEr2Ge2I2IrPbTb2Zr
_chemical_formula_sum              "Cs1 Er2 Ge2 I2 Ir1 Pb1 Tb2 Zr1"
_cell_length_a       5.600882277124441
_cell_length_b       7.27702187681875
_cell_length_c       8.243027687072754
_cell_angle_alpha    122.45955532845528
_cell_angle_beta     90.44825632418421
_cell_angle_gamma    89.79975203859125

_space_group_name_H-M_alt    "P 1"
_space_group_IT_number       1

loop_
  _space_group_symop_operation_xyz
  'x, y, z'

loop_
  _atom_site_type_symbol
  _atom_site_label
  _atom_site_symmetry_multiplicity
  _atom_site_fract_x
  _atom_site_fract_y
  _atom_site_fract_z
  _atom_site_occupancy
  Cs  Cs1       1.0  0.9739585518836975  0.4593512415885925  0.6874913573265076  1.0000
  Er  Er1       1.0  0.47968360781669617  0.23435293138027188  0.15466584265232086  1.0000
  Er  Er2       1.0  0.49020990729331976  0.35285207629203796  0.19062466919422147  1.0000
  Ge  Ge1       1.0  0.996835231781006  0.6897428631782532  0.9366059899330139  1.0000
  Ge  Ge2       1.0  0.9828363060951234  0.6293423771858215  0.5655604004859924  1.0000
  I   I1        1.0  0.22272171080112457  0.8398345112800597  0.6541078686714172  1.0000
  I   I2        1.0  0.4805606007575989  0.5603788495063782  0.6681923270225525  1.0000
  Ir  Ir1       1.0  0.9846818447113038  0.17583900690078735  0.115918792784214  1.0000
  Pb  Pb1       1.0  0.9866948723793031  0.5631147623062134  0.266788512468338  1.0000
  Tb  Tb1       1.0  0.48758894205093384  0.9203122258186339  0.954713761806488  1.0000
  Tb  Tb2       1.0  0.4851483404636383  0.874485671520233  0.19755302369594574  1.0000
  Zr  Zr1       1.0  0.9873083233833314  0.061303656548261636  0.810462236404419  1.0000
