data_image0
_chemical_formula_structural       ErGe7IIr2Os
_chemical_formula_sum              "Er1 Ge7 I1 Ir2 Os1"
_cell_length_a       6.662184765118805
_cell_length_b       6.783728910307284
_cell_length_c       7.550624370574951
_cell_angle_alpha    114.7991680672945
_cell_angle_beta     115.55770499685947
_cell_angle_gamma    99.1578497996267

_space_group_name_H-M_alt    "P 1"
_space_group_IT_number       1

loop_
  _space_group_symop_operation_xyz
  'x, y, z'

loop_
  _atom_site_type_symbol
  _atom_site_label
  _atom_site_symmetry_multiplicity
  _atom_site_fract_x
  _atom_site_fract_y
  _atom_site_fract_z
  _atom_site_occupancy
  Er  Er1       1.0  0.1613921970129013  0.422127366065979  0.6520946025848389  1.0000
  Ge  Ge1       1.0  0.6122782230377197  0.6180380582809448  0.20409442484378815  1.0000
  Ge  Ge2       1.0  0.6684354543685913  0.21850036084651947  0.5185919404029846  1.0000
  Ge  Ge3       1.0  0.6314939856529236  0.7546209692955017  0.43516957759857183  1.0000
  Ge  Ge4       1.0  0.6313496232032776  0.0906912311911583  0.5325636267662048  1.0000
  Ge  Ge5       1.0  0.5365707874298096  0.8188454508781433  0.9723610877990723  1.0000
  Ge  Ge6       1.0  0.12664437294006348  0.08649160712957382  0.10860035568475723  1.0000
  Ge  Ge7       1.0  0.13305577635765076  0.8573343753814697  0.3987697660923005  1.0000
  I   I1        1.0  0.12423246353864668  0.8601855039596558  0.2992751002311707  1.0000
  Ir  Ir1       1.0  0.80463045835495  0.8003255724906921  0.3569697141647339  1.0000
  Ir  Ir2       1.0  0.14424726366996765  0.5236595273017883  0.3244903981685639  1.0000
  Os  Os1       1.0  0.15234088897705078  0.5716562867164612  0.7071221470832825  1.0000
