data_image0
_chemical_formula_structural       CoGe5I4PRb
_chemical_formula_sum              "Co1 Ge5 I4 P1 Rb1"
_cell_length_a       4.8928912743317605
_cell_length_b       7.23324092225843
_cell_length_c       7.697454929351807
_cell_angle_alpha    89.51817802477407
_cell_angle_beta     88.4930862894916
_cell_angle_gamma    89.4131272634344

_space_group_name_H-M_alt    "P 1"
_space_group_IT_number       1

loop_
  _space_group_symop_operation_xyz
  'x, y, z'

loop_
  _atom_site_type_symbol
  _atom_site_label
  _atom_site_symmetry_multiplicity
  _atom_site_fract_x
  _atom_site_fract_y
  _atom_site_fract_z
  _atom_site_occupancy
  Co  Co1       1.0  0.1177109032869339  0.039682358503341675  0.31329429149627686  1.0000
  Ge  Ge1       1.0  0.11873914301395416  0.5494470596313477  0.2644273638725281  1.0000
  Ge  Ge2       1.0  0.6218602061271667  0.9424206614494324  0.23142266273498538  1.0000
  Ge  Ge3       1.0  0.11703283339738846  0.15602250397205353  0.9091290831565858  1.0000
  Ge  Ge4       1.0  0.12239781767129898  0.48695579171180725  0.03995668515563011  1.0000
  Ge  Ge5       1.0  0.11522867530584335  0.2986565828323364  0.28058692812919617  1.0000
  I   I1        1.0  0.6230124235153198  0.5128607749938965  0.2945379614830017  1.0000
  I   I2        1.0  0.11909949034452438  0.03092086873948574  0.7945910692214967  1.0000
  I   I3        1.0  0.12101254612207413  0.9665957093238831  0.18997751176357272  1.0000
  I   I4        1.0  0.6131837368011475  0.06770088523626328  0.7051371335983277  1.0000
  P   P1        1.0  0.11650218069553375  0.040130674839019775  0.15274609625339508  1.0000
  Rb  Rb1       1.0  0.6104830503463745  0.6609676480293274  0.1658020317554474  1.0000
