data_image0
_chemical_formula_structural       Er3Ge6Ir2Zr
_chemical_formula_sum              "Er3 Ge6 Ir2 Zr1"
_cell_length_a       7.4265340781999205
_cell_length_b       7.746308155111281
_cell_length_c       7.747179985046387
_cell_angle_alpha    111.5979565645577
_cell_angle_beta     111.81236187376585
_cell_angle_gamma    105.50065258228568

_space_group_name_H-M_alt    "P 1"
_space_group_IT_number       1

loop_
  _space_group_symop_operation_xyz
  'x, y, z'

loop_
  _atom_site_type_symbol
  _atom_site_label
  _atom_site_symmetry_multiplicity
  _atom_site_fract_x
  _atom_site_fract_y
  _atom_site_fract_z
  _atom_site_occupancy
  Er  Er1       1.0  0.23345874249935145  0.7169553041458129  0.12371792644262312  1.0000
  Er  Er2       1.0  0.7828279733657837  0.568417489528656  0.2245332449674606  1.0000
  Er  Er3       1.0  0.7903262376785278  0.6508760452270508  0.03350997716188431  1.0000
  Ge  Ge1       1.0  0.2896939814090728  0.8610851168632506  0.5098549723625183  1.0000
  Ge  Ge2       1.0  0.9323703646659851  0.7052311897277832  0.2417187839746475  1.0000
  Ge  Ge3       1.0  0.2587171792984008  0.8325974345207213  0.8900902271270751  1.0000
  Ge  Ge4       1.0  0.9799185991287231  0.8591940999031066  0.8845530152320861  1.0000
  Ge  Ge5       1.0  0.7450131177902222  0.7504994869232177  0.9974972009658812  1.0000
  Ge  Ge6       1.0  0.7320155501365662  0.06809956580400467  0.8511272072792052  1.0000
  Ir  Ir1       1.0  0.42931312322616577  0.6224538683891296  0.30215927958488464  1.0000
  Ir  Ir2       1.0  0.7424508333206177  0.9523803591728209  0.012008814141154288  1.0000
  Zr  Zr1       1.0  0.34256711602211  0.22287324070930478  0.7875152230262755  1.0000
