data_image0
_chemical_formula_structural       BErGaGe3I3SeTbYb
_chemical_formula_sum              "B1 Er1 Ga1 Ge3 I3 Se1 Tb1 Yb1"
_cell_length_a       0.5605713420147055
_cell_length_b       7.492382026907278
_cell_length_c       8.041801452636719
_cell_angle_alpha    91.73559197681404
_cell_angle_beta     132.40391505355223
_cell_angle_gamma    125.0277470633835

_space_group_name_H-M_alt    "P 1"
_space_group_IT_number       1

loop_
  _space_group_symop_operation_xyz
  'x, y, z'

loop_
  _atom_site_type_symbol
  _atom_site_label
  _atom_site_symmetry_multiplicity
  _atom_site_fract_x
  _atom_site_fract_y
  _atom_site_fract_z
  _atom_site_occupancy
  B   B1        1.0  0.3670770525932312  0.5849984884262085  0.20769309997558594  1.0000
  Er  Er1       1.0  0.8933797478675842  0.9969267249107361  0.8511463403701782  1.0000
  Ga  Ga1       1.0  0.008075731806453153  0.1542708575725553  0.7219291925430296  1.0000
  Ge  Ge1       1.0  0.3437955975532521  0.18554270267486567  0.16019584238529203  1.0000
  Ge  Ge2       1.0  0.4431068897247293  0.8546120524406432  0.2349209636449814  1.0000
  Ge  Ge3       1.0  0.9205399751663187  0.4184855520725249  0.3214286863803863  1.0000
  I   I1        1.0  0.9019449353218078  0.06190704926848411  0.07254952937364578  1.0000
  I   I2        1.0  0.9199816584587086  0.02023528516292565  0.2788198590278625  1.0000
  I   I3        1.0  0.9346258044242859  0.6859926581382751  0.42520368099212646  1.0000
  Se  Se1       1.0  0.5485818386077875  0.21655161678791043  0.6659116744995117  1.0000
  Tb  Tb1       1.0  0.33553200960159085  0.7190464735031127  0.5843848586082458  1.0000
  Yb  Yb1       1.0  0.5408703088760376  0.5676528811454773  0.5578750371932983  1.0000
