data_image0
_chemical_formula_structural       CaFGaGe3I2P2Tb
_chemical_formula_sum              "Ca1 F1 Ga1 Ge3 I2 P2 Tb1"
_cell_length_a       6.531083371392556
_cell_length_b       6.019038381883708
_cell_length_c       7.380928993225098
_cell_angle_alpha    117.6072914189217
_cell_angle_beta     113.66930621177849
_cell_angle_gamma    90.65816796351699

_space_group_name_H-M_alt    "P 1"
_space_group_IT_number       1

loop_
  _space_group_symop_operation_xyz
  'x, y, z'

loop_
  _atom_site_type_symbol
  _atom_site_label
  _atom_site_symmetry_multiplicity
  _atom_site_fract_x
  _atom_site_fract_y
  _atom_site_fract_z
  _atom_site_occupancy
  Ca  Ca1       1.0  0.059350162744522095  0.3518476188182831  0.7674524784088135  1.0000
  F   F1        1.0  0.7619816660881042  0.6920422911643982  0.2818353772163391  1.0000
  Ga  Ga1       1.0  0.5492022037506104  0.7128568887710571  0.47677522897720337  1.0000
  Ge  Ge1       1.0  0.7270810604095459  0.13834981620311737  0.13434261083602905  1.0000
  Ge  Ge2       1.0  0.24920785427093506  0.037512823939323425  0.771405816078186  1.0000
  Ge  Ge3       1.0  0.7689281702041626  0.28886130452156067  0.17731711268424988  1.0000
  I   I1        1.0  0.07526212185621262  0.11091503500938416  0.9158501029014587  1.0000
  I   I2        1.0  0.06968681514263153  0.7251397967338562  0.7309544682502747  1.0000
  P   P1        1.0  0.15819789469242096  0.03458624705672264  0.23897883296012878  1.0000
  P   P2        1.0  0.5642887353897095  0.013585405424237251  0.41856831312179565  1.0000
  Tb  Tb1       1.0  0.5685827136039734  0.530059278011322  0.23291441798210144  1.0000
