data_image0
_chemical_formula_structural       FGe3I2PPrSbTb2
_chemical_formula_sum              "F1 Ge3 I2 P1 Pr1 Sb1 Tb2"
_cell_length_a       6.305934601945215
_cell_length_b       6.288933237770798
_cell_length_c       7.8665852546691895
_cell_angle_alpha    116.4847874870184
_cell_angle_beta     98.27391183974183
_cell_angle_gamma    94.44658708921585

_space_group_name_H-M_alt    "P 1"
_space_group_IT_number       1

loop_
  _space_group_symop_operation_xyz
  'x, y, z'

loop_
  _atom_site_type_symbol
  _atom_site_label
  _atom_site_symmetry_multiplicity
  _atom_site_fract_x
  _atom_site_fract_y
  _atom_site_fract_z
  _atom_site_occupancy
  F   F1        1.0  0.7130817770957947  0.06695090979337692  0.2862851917743683  1.0000
  Ge  Ge1       1.0  0.7439746856689453  0.9404461979866028  0.042170844972133636  1.0000
  Ge  Ge2       1.0  0.46592700481414795  0.091485396027565  0.005483065731823444  1.0000
  Ge  Ge3       1.0  0.23438933491706848  0.502672016620636  0.16037358343601227  1.0000
  I   I1        1.0  0.9838546514511108  0.38298484683036804  0.6050181984901428  1.0000
  I   I2        1.0  0.9473628401756287  0.03755350410938263  0.521172821521759  1.0000
  P   P1        1.0  0.5044111013412476  0.013749799691140652  0.4021828770637513  1.0000
  Pr  Pr1       1.0  0.9773797988891602  0.5983731150627136  0.6785182952880859  1.0000
  Sb  Sb1       1.0  0.48205968737602234  0.884279191493988  0.21197207272052765  1.0000
  Tb  Tb1       1.0  0.9821265339851379  0.2650109827518463  0.6965463161468506  1.0000
  Tb  Tb2       1.0  0.457706093788147  0.18671566247940063  0.5475599765777588  1.0000
