data_image0
_chemical_formula_structural       BiGe3P2SbTiVYb2
_chemical_formula_sum              "Bi1 Ge3 P2 Sb1 Ti1 V1 Yb2"
_cell_length_a       5.532661839113228
_cell_length_b       5.898424377004981
_cell_length_c       6.897607326507568
_cell_angle_alpha    123.1828434209862
_cell_angle_beta     107.22758486078061
_cell_angle_gamma    94.00351606090776

_space_group_name_H-M_alt    "P 1"
_space_group_IT_number       1

loop_
  _space_group_symop_operation_xyz
  'x, y, z'

loop_
  _atom_site_type_symbol
  _atom_site_label
  _atom_site_symmetry_multiplicity
  _atom_site_fract_x
  _atom_site_fract_y
  _atom_site_fract_z
  _atom_site_occupancy
  Bi  Bi1       1.0  0.08504295349121094  0.48181241750717163  0.3075173497200012  1.0000
  Ge  Ge1       1.0  0.9047857522964478  0.7688676118850708  0.6630746126174927  1.0000
  Ge  Ge2       1.0  0.149800643324852  0.9060046672821045  0.4253424108028412  1.0000
  Ge  Ge3       1.0  0.24253737926483154  0.8318151235580444  0.874147355556488  1.0000
  P   P1        1.0  0.0741199478507042  0.536664605140686  0.19804148375988007  1.0000
  P   P2        1.0  0.30936136841773987  0.9323937296867371  0.9875326752662659  1.0000
  Sb  Sb1       1.0  0.6947495341300964  0.9521627426147461  0.3294961154460907  1.0000
  Ti  Ti1       1.0  0.4518272280693054  0.5918138027191162  0.8180748820304871  1.0000
  V   V1        1.0  0.536303699016571  0.2917380928993225  0.1438540518283844  1.0000
  Yb  Yb1       1.0  0.7839357852935791  0.6611881256103516  0.8170146942138672  1.0000
  Yb  Yb2       1.0  0.03597656637430191  0.18481716513633728  0.6703144311904907  1.0000
