data_image0
_chemical_formula_structural       Ag4Yb7
_chemical_formula_sum              "Ag4 Yb7"
_cell_length_a       5.960419066406068
_cell_length_b       6.2888176210294455
_cell_length_c       7.154763221740723
_cell_angle_alpha    118.1435625347766
_cell_angle_beta     114.5167648643157
_cell_angle_gamma    105.63544661166821

_space_group_name_H-M_alt    "P 1"
_space_group_IT_number       1

loop_
  _space_group_symop_operation_xyz
  'x, y, z'

loop_
  _atom_site_type_symbol
  _atom_site_label
  _atom_site_symmetry_multiplicity
  _atom_site_fract_x
  _atom_site_fract_y
  _atom_site_fract_z
  _atom_site_occupancy
  Ag  Ag1       1.0  0.13908956944942474  0.808765709400177  0.6462168097496033  1.0000
  Ag  Ag2       1.0  0.6029468178749084  0.43389081954956055  0.4889381527900696  1.0000
  Ag  Ag3       1.0  0.8969924449920655  0.340766578912735  0.4093993008136749  1.0000
  Ag  Ag4       1.0  0.6314955353736877  0.3170185983181  0.7354583144187927  1.0000
  Yb  Yb1       1.0  0.02961687929928303  0.5709419846534729  0.2770693898200988  1.0000
  Yb  Yb2       1.0  0.5127830505371094  0.6306865811347961  0.2111279517412185  1.0000
  Yb  Yb3       1.0  0.6286172270774841  0.9797528386116028  0.4186744391918181  1.0000
  Yb  Yb4       1.0  0.13556089997291565  0.1983945071697235  0.48956263065338135  1.0000
  Yb  Yb5       1.0  0.050060052424669266  0.02877792902290821  0.47843074798583984  1.0000
  Yb  Yb6       1.0  0.5136047601699829  0.07591366022825241  0.2795461118221283  1.0000
  Yb  Yb7       1.0  0.15913832187652588  0.8094514012336731  0.050534423440694747  1.0000
