data_image0
_chemical_formula_structural       Ag4Yb7
_chemical_formula_sum              "Ag4 Yb7"
_cell_length_a       5.18009491026479
_cell_length_b       6.403511204010512
_cell_length_c       7.424648284912109
_cell_angle_alpha    119.46049903705388
_cell_angle_beta     88.86101914366174
_cell_angle_gamma    89.7990017121553

_space_group_name_H-M_alt    "P 1"
_space_group_IT_number       1

loop_
  _space_group_symop_operation_xyz
  'x, y, z'

loop_
  _atom_site_type_symbol
  _atom_site_label
  _atom_site_symmetry_multiplicity
  _atom_site_fract_x
  _atom_site_fract_y
  _atom_site_fract_z
  _atom_site_occupancy
  Ag  Ag1       1.0  0.49992498755455017  0.4249947667121887  0.1951532512903214  1.0000
  Ag  Ag2       1.0  0.5005795955657959  0.3280877470970154  0.20560407638549805  1.0000
  Ag  Ag3       1.0  0.4987112581729889  0.8427459001541138  0.6874241828918457  1.0000
  Ag  Ag4       1.0  0.998866617679596  0.46420052647590637  0.610672652721405  1.0000
  Yb  Yb1       1.0  0.0003799683472607285  0.7163035869598389  0.2978428900241852  1.0000
  Yb  Yb2       1.0  0.4987991452217102  0.6795757412910461  0.9453870058059693  1.0000
  Yb  Yb3       1.0  0.006303098518401384  0.05092286318540573  0.4440163671970368  1.0000
  Yb  Yb4       1.0  0.00037229061126708984  0.1837170273065567  0.8868824839591981  1.0000
  Yb  Yb5       1.0  0.5033836960792542  0.6107003688812256  0.10528912395238878  1.0000
  Yb  Yb6       1.0  0.001419848413206637  0.9479572772979736  0.8688559532165528  1.0000
  Yb  Yb7       1.0  0.4978102445602417  0.8617159724235535  0.08785392343997962  1.0000
