data_image0
_chemical_formula_structural       FGe2IP3Pb2ReTb
_chemical_formula_sum              "F1 Ge2 I1 P3 Pb2 Re1 Tb1"
_cell_length_a       5.181851335313005
_cell_length_b       7.929097697362169
_cell_length_c       8.073265075683594
_cell_angle_alpha    123.65650180174413
_cell_angle_beta     90.17361765438771
_cell_angle_gamma    90.17558146169327

_space_group_name_H-M_alt    "P 1"
_space_group_IT_number       1

loop_
  _space_group_symop_operation_xyz
  'x, y, z'

loop_
  _atom_site_type_symbol
  _atom_site_label
  _atom_site_symmetry_multiplicity
  _atom_site_fract_x
  _atom_site_fract_y
  _atom_site_fract_z
  _atom_site_occupancy
  F   F1        1.0  0.6681208610534668  0.1455480307340622  0.13649596273899078  1.0000
  Ge  Ge1       1.0  0.6622201204299927  0.19863930344581604  0.46877074241638184  1.0000
  Ge  Ge2       1.0  0.16837607324123383  0.9355730414390564  0.018594512715935707  1.0000
  I   I1        1.0  0.16221438348293304  0.43665313720703125  0.9267440438270569  1.0000
  P   P1        1.0  0.6689268350601196  0.8934367299079895  0.6969515085220337  1.0000
  P   P2        1.0  0.13949114084243774  0.7354404926300049  0.7694976329803467  1.0000
  P   P3        1.0  0.7068915963172913  0.8568946719169617  0.9739027619361877  1.0000
  Pb  Pb1       1.0  0.683068573474884  0.7655641436576843  0.11940139532089233  1.0000
  Pb  Pb2       1.0  0.6572303175926208  0.6418439745903015  0.1997623890638352  1.0000
  Re  Re1       1.0  0.16285069286823273  0.18314480781555176  0.8210265636444092  1.0000
  Tb  Tb1       1.0  0.16200684010982513  0.7400003671646118  0.991743803024292  1.0000
