data_image0
_chemical_formula_structural       Ba6S4
_chemical_formula_sum              "Ba6 S4"
_cell_length_a       6.472387416173152
_cell_length_b       8.15470311432981
_cell_length_c       9.58731460571289
_cell_angle_alpha    113.73697655762832
_cell_angle_beta     90.3601905775711
_cell_angle_gamma    89.72178386429711

_space_group_name_H-M_alt    "P 1"
_space_group_IT_number       1

loop_
  _space_group_symop_operation_xyz
  'x, y, z'

loop_
  _atom_site_type_symbol
  _atom_site_label
  _atom_site_symmetry_multiplicity
  _atom_site_fract_x
  _atom_site_fract_y
  _atom_site_fract_z
  _atom_site_occupancy
  Ba  Ba1       1.0  0.5733118057250977  0.6014748811721802  0.9878584146499634  1.0000
  Ba  Ba2       1.0  0.3298008441925049  0.3832102417945862  0.47895947098731995  1.0000
  Ba  Ba3       1.0  0.32127994298934937  0.7535784244537354  0.7234565019607544  1.0000
  Ba  Ba4       1.0  0.32124972343444824  0.0968726947903633  0.2299918234348297  1.0000
  Ba  Ba5       1.0  0.8249619007110596  0.9697038531303405  0.5024978518486023  1.0000
  Ba  Ba6       1.0  0.8213300108909607  0.5857070684432983  0.22408512234687805  1.0000
  S   S1        1.0  0.06776367127895355  0.3676163852214813  0.9811310172080994  1.0000
  S   S2        1.0  0.819157063961029  0.5895697474479675  0.20833139121532437  1.0000
  S   S3        1.0  0.3230249583721161  0.09690060466527937  0.5004165172576903  1.0000
  S   S4        1.0  0.8207624554634094  0.08120398968458176  0.15294520556926727  1.0000
