data_image0
_chemical_formula_structural       Ba7GaS2
_chemical_formula_sum              "Ba7 Ga1 S2"
_cell_length_a       5.797625217166809
_cell_length_b       6.712652006480595
_cell_length_c       8.522228240966797
_cell_angle_alpha    109.82319143519673
_cell_angle_beta     109.50699826718622
_cell_angle_gamma    88.82138193482031

_space_group_name_H-M_alt    "P 1"
_space_group_IT_number       1

loop_
  _space_group_symop_operation_xyz
  'x, y, z'

loop_
  _atom_site_type_symbol
  _atom_site_label
  _atom_site_symmetry_multiplicity
  _atom_site_fract_x
  _atom_site_fract_y
  _atom_site_fract_z
  _atom_site_occupancy
  Ba  Ba1       1.0  0.08562523126602173  0.874707043170929  0.522057056427002  1.0000
  Ba  Ba2       1.0  0.6754709482192993  0.1589578092098236  0.8183102607727051  1.0000
  Ba  Ba3       1.0  0.9916071891784668  0.7933847308158875  0.8185939788818359  1.0000
  Ba  Ba4       1.0  0.8934686183929443  0.6566111445426941  0.3164941072463989  1.0000
  Ba  Ba5       1.0  0.42309579253196716  0.6416277885437012  0.9793375730514526  1.0000
  Ba  Ba6       1.0  0.8705121874809265  0.38891252875328064  0.19039493799209595  1.0000
  Ba  Ba7       1.0  0.38348791003227234  0.6422705054283142  0.19439074397087097  1.0000
  Ga  Ga1       1.0  0.54061359167099  0.9253847599029541  0.14829279482364655  1.0000
  S   S1        1.0  0.5878649950027466  0.8664914965629578  0.5101025700569153  1.0000
  S   S2        1.0  0.6224954724311829  0.14856764674186707  0.3286731243133545  1.0000
