data_image0
_chemical_formula_structural       Ba7S3
_chemical_formula_sum              "Ba7 S3"
_cell_length_a       5.609021534372634
_cell_length_b       7.104311140375305
_cell_length_c       8.221923828125
_cell_angle_alpha    115.1163296597374
_cell_angle_beta     114.6792094486376
_cell_angle_gamma    85.2495493547864

_space_group_name_H-M_alt    "P 1"
_space_group_IT_number       1

loop_
  _space_group_symop_operation_xyz
  'x, y, z'

loop_
  _atom_site_type_symbol
  _atom_site_label
  _atom_site_symmetry_multiplicity
  _atom_site_fract_x
  _atom_site_fract_y
  _atom_site_fract_z
  _atom_site_occupancy
  Ba  Ba1       1.0  0.02713772840797901  0.3120189309120178  0.7077978253364563  1.0000
  Ba  Ba2       1.0  0.20349964499473572  0.29332512617111206  0.6883463859558105  1.0000
  Ba  Ba3       1.0  0.5435783267021179  0.3075598478317261  0.8221629858016968  1.0000
  Ba  Ba4       1.0  0.9496526718139648  0.7341176271438599  0.12639063596725464  1.0000
  Ba  Ba5       1.0  0.5748660564422607  0.5643861889839172  0.24368932843208313  1.0000
  Ba  Ba6       1.0  0.439175546169281  0.7076236009597778  0.8993098139762878  1.0000
  Ba  Ba7       1.0  0.08636064827442169  0.8319286704063416  0.24675045907497406  1.0000
  S   S1        1.0  0.5399037599563599  0.7424979209899902  0.8100998997688293  1.0000
  S   S2        1.0  0.9450486898422241  0.7336148619651794  0.8613407611846924  1.0000
  S   S3        1.0  0.7837681770324707  0.04670853540301323  0.34621119499206543  1.0000
