data_image0
_chemical_formula_structural       Ba7CuS2
_chemical_formula_sum              "Ba7 Cu1 S2"
_cell_length_a       6.16650656059777
_cell_length_b       6.5738007406335655
_cell_length_c       8.479391098022461
_cell_angle_alpha    111.97901425710893
_cell_angle_beta     110.04016275519531
_cell_angle_gamma    87.8351453100837

_space_group_name_H-M_alt    "P 1"
_space_group_IT_number       1

loop_
  _space_group_symop_operation_xyz
  'x, y, z'

loop_
  _atom_site_type_symbol
  _atom_site_label
  _atom_site_symmetry_multiplicity
  _atom_site_fract_x
  _atom_site_fract_y
  _atom_site_fract_z
  _atom_site_occupancy
  Ba  Ba1       1.0  0.48890945315361023  0.08914497494697571  0.631178081035614  1.0000
  Ba  Ba2       1.0  0.7110013961791992  0.5922476649284363  0.29399994015693665  1.0000
  Ba  Ba3       1.0  0.012897616252303123  0.5928086042404175  0.7202700972557068  1.0000
  Ba  Ba4       1.0  0.692762017250061  0.5848913788795471  0.5061160326004028  1.0000
  Ba  Ba5       1.0  0.19789575040340424  0.583686888217926  0.03724265471100807  1.0000
  Ba  Ba6       1.0  0.35766923427581787  0.22130970656871796  0.4234207570552826  1.0000
  Ba  Ba7       1.0  0.7239660620689392  0.29212403297424316  0.4118766188621521  1.0000
  Cu  Cu1       1.0  0.0645701140165329  0.6006395220756531  0.22305485606193542  1.0000
  S   S1        1.0  0.3580620586872101  0.9560807943344116  0.9224693775177002  1.0000
  S   S2        1.0  0.9106975793838501  0.1758721023797989  0.09802661091089249  1.0000
