data_image0
_chemical_formula_structural       Ba4Cu2IrS3
_chemical_formula_sum              "Ba4 Cu2 Ir1 S3"
_cell_length_a       5.146339147057146
_cell_length_b       5.5447136988189865
_cell_length_c       8.53188419342041
_cell_angle_alpha    107.21631441662547
_cell_angle_beta     105.09850079867942
_cell_angle_gamma    89.09299929663837

_space_group_name_H-M_alt    "P 1"
_space_group_IT_number       1

loop_
  _space_group_symop_operation_xyz
  'x, y, z'

loop_
  _atom_site_type_symbol
  _atom_site_label
  _atom_site_symmetry_multiplicity
  _atom_site_fract_x
  _atom_site_fract_y
  _atom_site_fract_z
  _atom_site_occupancy
  Ba  Ba1       1.0  0.5044183731079102  0.13756169378757477  0.387291818857193  1.0000
  Ba  Ba2       1.0  0.4122665822505951  0.6330779194831848  0.8884142637252808  1.0000
  Ba  Ba3       1.0  0.8528544902801514  0.9251607656478883  0.20381204783916473  1.0000
  Ba  Ba4       1.0  0.9308188557624816  0.149861678481102  0.9235400557518005  1.0000
  Cu  Cu1       1.0  0.13611392676830292  0.933022975921631  0.3916259706020355  1.0000
  Cu  Cu2       1.0  0.19515959918498993  0.28053519129753113  0.5977320075035095  1.0000
  Ir  Ir1       1.0  0.187028706073761  0.6010820269584656  0.5049725770950317  1.0000
  S   S1        1.0  0.7334772348403931  0.6621202230453491  0.5200629830360413  1.0000
  S   S2        1.0  0.08935197442770004  0.8271008729934693  0.7288550734519958  1.0000
  S   S3        1.0  0.6070092916488647  0.29697751998901367  0.7514533400535583  1.0000
