data_image0
_chemical_formula_structural       Ba4Cu2S4
_chemical_formula_sum              "Ba4 Cu2 S4"
_cell_length_a       5.788817484475883
_cell_length_b       6.090420861657552
_cell_length_c       7.731561183929443
_cell_angle_alpha    107.92232749141667
_cell_angle_beta     109.1548669429202
_cell_angle_gamma    89.63424757752794

_space_group_name_H-M_alt    "P 1"
_space_group_IT_number       1

loop_
  _space_group_symop_operation_xyz
  'x, y, z'

loop_
  _atom_site_type_symbol
  _atom_site_label
  _atom_site_symmetry_multiplicity
  _atom_site_fract_x
  _atom_site_fract_y
  _atom_site_fract_z
  _atom_site_occupancy
  Ba  Ba1       1.0  0.22050489485263824  0.553734302520752  0.6867961287498473  1.0000
  Ba  Ba2       1.0  0.47596389055252075  0.8362939953804016  0.008179906755685806  1.0000
  Ba  Ba3       1.0  0.19203808903694153  0.8356893062591553  0.5018218159675598  1.0000
  Ba  Ba4       1.0  0.6973684430122375  0.6658815741539001  0.7739447355270385  1.0000
  Cu  Cu1       1.0  0.7233956456184387  0.17495951056480408  0.6703353524208068  1.0000
  Cu  Cu2       1.0  0.6039326786994934  0.34023672342300415  0.3985466659069061  1.0000
  S   S1        1.0  0.9292920231819153  0.6609857082366943  0.13576138019561765  1.0000
  S   S2        1.0  0.88570237159729  0.3289801776409149  0.9518711566925048  1.0000
  S   S3        1.0  0.21255812048912048  0.1588505357503891  0.2726441621780395  1.0000
  S   S4        1.0  0.8712495565414429  0.3261532783508301  0.7671116590499877  1.0000
