data_image0
_chemical_formula_structural       Ba4O4P2
_chemical_formula_sum              "Ba4 O4 P2"
_cell_length_a       5.335181322342693
_cell_length_b       6.122553135610488
_cell_length_c       7.255027770996094
_cell_angle_alpha    67.19863928547547
_cell_angle_beta     69.03568938352653
_cell_angle_gamma    64.8267542646203

_space_group_name_H-M_alt    "P 1"
_space_group_IT_number       1

loop_
  _space_group_symop_operation_xyz
  'x, y, z'

loop_
  _atom_site_type_symbol
  _atom_site_label
  _atom_site_symmetry_multiplicity
  _atom_site_fract_x
  _atom_site_fract_y
  _atom_site_fract_z
  _atom_site_occupancy
  Ba  Ba1       1.0  0.6098191142082214  0.5025090575218201  0.6811901330947876  1.0000
  Ba  Ba2       1.0  0.12017945945262909  0.509914755821228  0.714888334274292  1.0000
  Ba  Ba3       1.0  0.9591924548149109  0.6849071383476257  0.26695725321769714  1.0000
  Ba  Ba4       1.0  0.6633810997009277  0.015828071162104607  0.9955198764801024  1.0000
  O   O1        1.0  0.4376235902309418  0.6943826079368591  0.8860582709312438  1.0000
  O   O2        1.0  0.5559312105178833  0.8186188340187072  0.5740174651145935  1.0000
  O   O3        1.0  0.939591646194458  0.2940742075443268  0.5604164004325867  1.0000
  O   O4        1.0  0.17575566470623022  0.9491678476333617  0.4232539236545563  1.0000
  P   P1        1.0  0.6138222217559814  0.013256908394396303  0.6894903779029846  1.0000
  P   P2        1.0  0.1854066848754883  0.4533982872962951  0.018822966143488884  1.0000
