data_image0
_chemical_formula_structural       Ba4O4PV
_chemical_formula_sum              "Ba4 O4 P1 V1"
_cell_length_a       5.287000654941266
_cell_length_b       6.381729827036573
_cell_length_c       6.711495876312256
_cell_angle_alpha    68.6746675787827
_cell_angle_beta     68.51409328177893
_cell_angle_gamma    66.73278031722066

_space_group_name_H-M_alt    "P 1"
_space_group_IT_number       1

loop_
  _space_group_symop_operation_xyz
  'x, y, z'

loop_
  _atom_site_type_symbol
  _atom_site_label
  _atom_site_symmetry_multiplicity
  _atom_site_fract_x
  _atom_site_fract_y
  _atom_site_fract_z
  _atom_site_occupancy
  Ba  Ba1       1.0  0.07401677966117859  0.05249364301562309  0.012061653658747673  1.0000
  Ba  Ba2       1.0  0.2660619914531708  0.5697005987167358  0.6891507506370544  1.0000
  Ba  Ba3       1.0  0.5941269397735596  0.3643375635147095  0.615542471408844  1.0000
  Ba  Ba4       1.0  0.6347636580467224  0.23044054210186005  0.201189324259758  1.0000
  O   O1        1.0  0.8920336961746216  0.6734285354614258  0.8145381212234497  1.0000
  O   O2        1.0  0.7781467437744141  0.8680802583694458  0.25574371218681335  1.0000
  O   O3        1.0  0.29387351870536804  0.03582710772752762  0.7722164988517761  1.0000
  O   O4        1.0  0.58409583568573  0.030428683385252953  0.9709876775741577  1.0000
  P   P1        1.0  0.6163948774337769  0.08856463432312012  0.07594280689954758  1.0000
  V   V1        1.0  0.09920895844697952  0.3457718789577484  0.2882889211177826  1.0000
