data_image0
_chemical_formula_structural       AgBa2O5Pd2
_chemical_formula_sum              "Ag1 Ba2 O5 Pd2"
_cell_length_a       4.9903255240590845
_cell_length_b       4.827163539717496
_cell_length_c       8.35204029083252
_cell_angle_alpha    82.04479898693725
_cell_angle_beta     76.41339836567775
_cell_angle_gamma    62.264090982301866

_space_group_name_H-M_alt    "P 1"
_space_group_IT_number       1

loop_
  _space_group_symop_operation_xyz
  'x, y, z'

loop_
  _atom_site_type_symbol
  _atom_site_label
  _atom_site_symmetry_multiplicity
  _atom_site_fract_x
  _atom_site_fract_y
  _atom_site_fract_z
  _atom_site_occupancy
  Ag  Ag1       1.0  0.914940357208252  0.16220222413539886  0.4993906021118164  1.0000
  Ba  Ba1       1.0  0.5000413060188293  0.8132230639457703  0.9282222390174866  1.0000
  Ba  Ba2       1.0  0.42320528626441956  0.6644696593284607  0.10186869651079178  1.0000
  O   O1        1.0  0.5425256490707397  0.31130966544151306  0.7827520370483398  1.0000
  O   O2        1.0  0.24134688079357147  0.6605635285377502  0.2937553822994232  1.0000
  O   O3        1.0  0.051531340926885605  0.29546982049942017  0.6862824559211731  1.0000
  O   O4        1.0  0.7663552165031433  0.6620585918426514  0.6974290013313293  1.0000
  O   O5        1.0  0.11396785825490952  0.12694451212882996  0.6106784343719482  1.0000
  Pd  Pd1       1.0  0.9365378022193909  0.8132201433181763  0.05750102177262306  1.0000
  Pd  Pd2       1.0  0.9262986183166504  0.8111792206764221  0.10881805419921875  1.0000
