data_image0
_chemical_formula_structural       Ba2O4P2Pd2
_chemical_formula_sum              "Ba2 O4 P2 Pd2"
_cell_length_a       5.272460648063461
_cell_length_b       5.693996711975749
_cell_length_c       7.574588775634766
_cell_angle_alpha    73.40387022708349
_cell_angle_beta     74.40990115919905
_cell_angle_gamma    67.60436614407358

_space_group_name_H-M_alt    "P 1"
_space_group_IT_number       1

loop_
  _space_group_symop_operation_xyz
  'x, y, z'

loop_
  _atom_site_type_symbol
  _atom_site_label
  _atom_site_symmetry_multiplicity
  _atom_site_fract_x
  _atom_site_fract_y
  _atom_site_fract_z
  _atom_site_occupancy
  Ba  Ba1       1.0  0.6067289710044861  0.2981574535369873  0.2715036869049072  1.0000
  Ba  Ba2       1.0  0.8024842739105225  0.5585827827453613  0.9954937696456909  1.0000
  O   O1        1.0  0.48793256282806396  0.0960785374045372  0.27273696660995483  1.0000
  O   O2        1.0  0.282453715801239  0.70653235912323  0.6384620666503906  1.0000
  O   O3        1.0  0.0014792939182370901  0.5763349533081055  0.2613866925239563  1.0000
  O   O4        1.0  0.5053846836090088  0.10324840247631073  0.2734757661819458  1.0000
  P   P1        1.0  0.7533037066459656  0.7742360830307007  0.7807014584541321  1.0000
  P   P2        1.0  0.6083210110664368  0.2598375082015991  0.45385637879371643  1.0000
  Pd  Pd1       1.0  0.9817196726799011  0.06937095522880554  0.767880380153656  1.0000
  Pd  Pd2       1.0  0.11217426508665085  0.24608443677425385  0.342357337474823  1.0000
