data_image0
_chemical_formula_structural       Ba2O6Pd2
_chemical_formula_sum              "Ba2 O6 Pd2"
_cell_length_a       4.473177169449018
_cell_length_b       5.294730109125394
_cell_length_c       8.253318786621094
_cell_angle_alpha    76.09807876364368
_cell_angle_beta     74.95680686367946
_cell_angle_gamma    61.84289479828117

_space_group_name_H-M_alt    "P 1"
_space_group_IT_number       1

loop_
  _space_group_symop_operation_xyz
  'x, y, z'

loop_
  _atom_site_type_symbol
  _atom_site_label
  _atom_site_symmetry_multiplicity
  _atom_site_fract_x
  _atom_site_fract_y
  _atom_site_fract_z
  _atom_site_occupancy
  Ba  Ba1       1.0  0.1144317239522934  0.39922216534614563  0.3543243408203125  1.0000
  Ba  Ba2       1.0  0.016384804621338844  0.1473788619041443  0.19362087547779083  1.0000
  O   O1        1.0  0.31283700466156006  0.009009108878672123  0.31710687279701233  1.0000
  O   O2        1.0  0.9116454124450684  0.7744702696800232  0.0002142190933227539  1.0000
  O   O3        1.0  0.7512838244438171  0.1574200987815857  0.8071272373199463  1.0000
  O   O4        1.0  0.019985385239124298  0.221703439950943  0.9960732460021973  1.0000
  O   O5        1.0  0.6317766904830933  0.5133950710296631  0.16154177486896515  1.0000
  O   O6        1.0  0.6245972514152527  0.48696383833885193  0.36614859104156494  1.0000
  Pd  Pd1       1.0  0.502174437046051  0.1260206550359726  0.16371744871139526  1.0000
  Pd  Pd2       1.0  0.8110775947570801  0.9256225824356079  0.6247566342353821  1.0000
