data_image0
_chemical_formula_structural       Ba3O4P2Pd
_chemical_formula_sum              "Ba3 O4 P2 Pd1"
_cell_length_a       5.4348834885322805
_cell_length_b       5.933365650353174
_cell_length_c       8.104771614074707
_cell_angle_alpha    71.52735215553342
_cell_angle_beta     69.45095740754905
_cell_angle_gamma    63.19839459146915

_space_group_name_H-M_alt    "P 1"
_space_group_IT_number       1

loop_
  _space_group_symop_operation_xyz
  'x, y, z'

loop_
  _atom_site_type_symbol
  _atom_site_label
  _atom_site_symmetry_multiplicity
  _atom_site_fract_x
  _atom_site_fract_y
  _atom_site_fract_z
  _atom_site_occupancy
  Ba  Ba1       1.0  0.577452540397644  0.3208209276199341  0.47790566086769104  1.0000
  Ba  Ba2       1.0  0.14731764793395996  0.8296550512313843  0.2609046995639801  1.0000
  Ba  Ba3       1.0  0.3056148290634155  0.505220890045166  0.7383790016174316  1.0000
  O   O1        1.0  0.8676448464393616  0.0038745179772377014  0.6907926201820374  1.0000
  O   O2        1.0  0.17595598101615906  0.30877402424812317  0.7392356991767883  1.0000
  O   O3        1.0  0.36294224858283997  0.5418042540550232  0.24029844999313354  1.0000
  O   O4        1.0  0.6856003403663635  0.824968159198761  0.2346828579902649  1.0000
  P   P1        1.0  0.7697628736495972  0.05642643943428993  0.9510120749473572  1.0000
  P   P2        1.0  0.9201713800430298  0.7728429436683655  0.6417302489280701  1.0000
  Pd  Pd1       1.0  0.049622006714344025  0.7086421251296997  0.6670736074447632  1.0000
