data_image0
_chemical_formula_structural       AsBa3Mn3NbTe
_chemical_formula_sum              "As1 Ba3 Mn3 Nb1 Te1"
_cell_length_a       4.515750651777699
_cell_length_b       4.840776072377949
_cell_length_c       13.362496376037598
_cell_angle_alpha    89.98122173653645
_cell_angle_beta     99.57438857618321
_cell_angle_gamma    90.11987630722174

_space_group_name_H-M_alt    "P 1"
_space_group_IT_number       1

loop_
  _space_group_symop_operation_xyz
  'x, y, z'

loop_
  _atom_site_type_symbol
  _atom_site_label
  _atom_site_symmetry_multiplicity
  _atom_site_fract_x
  _atom_site_fract_y
  _atom_site_fract_z
  _atom_site_occupancy
  As  As1       1.0  0.08725627511739731  0.556171178817749  0.5928202271461487  1.0000
  Ba  Ba1       1.0  0.5825458765029907  0.05218212306499481  0.6038215756416321  1.0000
  Ba  Ba2       1.0  0.7021166086196899  0.5532744526863098  0.8222229480743408  1.0000
  Ba  Ba3       1.0  0.4751495122909546  0.553562581539154  0.37447589635849  1.0000
  Mn  Mn1       1.0  0.31333819031715393  0.5500863194465637  0.042864661663770676  1.0000
  Mn  Mn2       1.0  0.8693721890449524  0.5511378049850464  0.15759989619255066  1.0000
  Mn  Mn3       1.0  0.2397889792919159  0.05458538979291916  0.9088398218154907  1.0000
  Nb  Nb1       1.0  0.8085386753082275  0.053270235657691956  0.04264821112155915  1.0000
  Te  Te1       1.0  0.9123685956001282  0.05270826444029808  0.25405737757682795  1.0000
