data_image0
_chemical_formula_structural       AsBa3GeMnNbTe2
_chemical_formula_sum              "As1 Ba3 Ge1 Mn1 Nb1 Te2"
_cell_length_a       6.892574690804633
_cell_length_b       6.892251447323942
_cell_length_c       6.954019069671631
_cell_angle_alpha    68.94026291482734
_cell_angle_beta     68.16265835084364
_cell_angle_gamma    68.14529600688554

_space_group_name_H-M_alt    "P 1"
_space_group_IT_number       1

loop_
  _space_group_symop_operation_xyz
  'x, y, z'

loop_
  _atom_site_type_symbol
  _atom_site_label
  _atom_site_symmetry_multiplicity
  _atom_site_fract_x
  _atom_site_fract_y
  _atom_site_fract_z
  _atom_site_occupancy
  As  As1       1.0  0.8026977777481079  0.42940837144851685  0.29068681597709656  1.0000
  Ba  Ba1       1.0  0.8508937358856201  0.024561742320656776  0.15910236537456515  1.0000
  Ba  Ba2       1.0  0.45371541380882263  0.08650804311037064  0.729096531867981  1.0000
  Ba  Ba3       1.0  0.32868313789367676  0.5256052613258362  0.18169188499450686  1.0000
  Ge  Ge1       1.0  0.7675135135650635  0.3969745337963104  0.7706124782562255  1.0000
  Mn  Mn1       1.0  0.014914781786501408  0.15109296143054962  0.5345878601074218  1.0000
  Nb  Nb1       1.0  0.5279401540756226  0.6479456424713135  0.5348988175392151  1.0000
  Te  Te1       1.0  0.07323594391345978  0.7312967777252197  0.7483212947845459  1.0000
  Te  Te2       1.0  0.38411641120910645  0.9912394881248474  0.23997169733047485  1.0000
