data_image0
_chemical_formula_structural       Ba3Mn3Nb3
_chemical_formula_sum              "Ba3 Mn3 Nb3"
_cell_length_a       4.470947613863276
_cell_length_b       4.522180750367981
_cell_length_c       14.657285690307617
_cell_angle_alpha    81.76289156553031
_cell_angle_beta     81.44836884317131
_cell_angle_gamma    60.613770482773816

_space_group_name_H-M_alt    "P 1"
_space_group_IT_number       1

loop_
  _space_group_symop_operation_xyz
  'x, y, z'

loop_
  _atom_site_type_symbol
  _atom_site_label
  _atom_site_symmetry_multiplicity
  _atom_site_fract_x
  _atom_site_fract_y
  _atom_site_fract_z
  _atom_site_occupancy
  Ba  Ba1       1.0  0.7950316071510315  0.22704003751277924  0.6494662761688232  1.0000
  Ba  Ba2       1.0  0.387320339679718  0.828598141670227  0.9301426410675049  1.0000
  Ba  Ba3       1.0  0.2712860703468323  0.7156281471252441  0.23688624799251556  1.0000
  Mn  Mn1       1.0  0.9890577793121338  0.428592711687088  0.07771436870098114  1.0000
  Mn  Mn2       1.0  0.6545439958572388  0.10275111347436905  0.07492323964834213  1.0000
  Mn  Mn3       1.0  0.5407833456993103  0.9763755202293396  0.4419027268886566  1.0000
  Nb  Nb1       1.0  0.8820078372955322  0.3267996311187744  0.4003182351589203  1.0000
  Nb  Nb2       1.0  0.18204420804977417  0.6301627159118652  0.49289506673812866  1.0000
  Nb  Nb3       1.0  0.0900123119354248  0.531819224357605  0.7893691062927246  1.0000
