data_image0
_chemical_formula_structural       Ti7
_chemical_formula_sum              "Ti7"
_cell_length_a       4.6688271267425225
_cell_length_b       4.120875599374583
_cell_length_c       4.2355780601501465
_cell_angle_alpha    110.9659090936952
_cell_angle_beta     98.94088145024338
_cell_angle_gamma    113.81130644271025

_space_group_name_H-M_alt    "P 1"
_space_group_IT_number       1

loop_
  _space_group_symop_operation_xyz
  'x, y, z'

loop_
  _atom_site_type_symbol
  _atom_site_label
  _atom_site_symmetry_multiplicity
  _atom_site_fract_x
  _atom_site_fract_y
  _atom_site_fract_z
  _atom_site_occupancy
  Ti  Ti1       1.0  0.586858868598938  0.27695250511169434  0.3676796555519104  1.0000
  Ti  Ti2       1.0  0.10058993846178055  0.7863679528236389  0.29914581775665283  1.0000
  Ti  Ti3       1.0  0.09845894575119019  0.6579688787460327  0.3688580095767975  1.0000
  Ti  Ti4       1.0  0.10581200569868088  0.0009487278293818234  0.8588606715202332  1.0000
  Ti  Ti5       1.0  0.09943683445453644  0.165426567196846  0.18004292249679565  1.0000
  Ti  Ti6       1.0  0.586581289768219  0.3128919005393982  0.28338712453842163  1.0000
  Ti  Ti7       1.0  0.6441811323165894  0.297992080450058  0.48283112049102783  1.0000
