data_image0
_chemical_formula_structural       DyH2LiPd4Pt
_chemical_formula_sum              "Dy1 H2 Li1 Pd4 Pt1"
_cell_length_a       6.0419354196181745
_cell_length_b       5.030903760375621
_cell_length_c       6.1233367919921875
_cell_angle_alpha    59.89513881490534
_cell_angle_beta     56.90891041943888
_cell_angle_gamma    49.98109540829276

_space_group_name_H-M_alt    "P 1"
_space_group_IT_number       1

loop_
  _space_group_symop_operation_xyz
  'x, y, z'

loop_
  _atom_site_type_symbol
  _atom_site_label
  _atom_site_symmetry_multiplicity
  _atom_site_fract_x
  _atom_site_fract_y
  _atom_site_fract_z
  _atom_site_occupancy
  Dy  Dy1       1.0  0.21219563484191895  0.13748927414417267  0.8450011610984802  1.0000
  H   H1        1.0  0.7484716773033142  0.7801233530044556  0.3945777714252472  1.0000
  H   H2        1.0  0.28066128492355347  0.13794729113578796  0.052862148731946945  1.0000
  Li  Li1       1.0  0.7923299670219421  0.3457587659358978  0.11383956670761108  1.0000
  Pd  Pd1       1.0  0.5115103125572205  0.3868291676044464  0.913489818572998  1.0000
  Pd  Pd2       1.0  0.8636606335639954  0.5616116523742676  0.2675904929637909  1.0000
  Pd  Pd3       1.0  0.7913097739219666  0.7990010976791382  0.13011448085308075  1.0000
  Pd  Pd4       1.0  0.5141109228134155  0.855134129524231  0.2586928606033325  1.0000
  Pt  Pt1       1.0  0.24882568418979645  0.15192843973636627  0.5986825227737427  1.0000
