data_image0
_chemical_formula_structural       DyHPPd4RuSb
_chemical_formula_sum              "Dy1 H1 P1 Pd4 Ru1 Sb1"
_cell_length_a       5.367445922315026
_cell_length_b       5.264399279792569
_cell_length_c       6.039833068847656
_cell_angle_alpha    123.7078372579326
_cell_angle_beta     89.81144892857854
_cell_angle_gamma    89.5760700644423

_space_group_name_H-M_alt    "P 1"
_space_group_IT_number       1

loop_
  _space_group_symop_operation_xyz
  'x, y, z'

loop_
  _atom_site_type_symbol
  _atom_site_label
  _atom_site_symmetry_multiplicity
  _atom_site_fract_x
  _atom_site_fract_y
  _atom_site_fract_z
  _atom_site_occupancy
  Dy  Dy1       1.0  0.8147916793823242  0.23312430083751678  0.16604477167129517  1.0000
  H   H1        1.0  0.3025604486465454  0.26488059759140015  0.3420126438140869  1.0000
  P   P1        1.0  0.3060550093650818  0.3033314645290375  0.5170906186103821  1.0000
  Pd  Pd1       1.0  0.8088549971580505  0.07158105075359344  0.4313487112522125  1.0000
  Pd  Pd2       1.0  0.30881795287132263  0.7080385684967041  0.12982097268104553  1.0000
  Pd  Pd3       1.0  0.8152816295623779  0.6759870648384094  0.044256981462240254  1.0000
  Pd  Pd4       1.0  0.5201424956321716  0.08560944348573685  0.17226330935955048  1.0000
  Ru  Ru1       1.0  0.31259068846702576  0.005923657678067684  0.7905387282371521  1.0000
  Sb  Sb1       1.0  0.3104848265647888  0.874517023563385  0.3029150664806366  1.0000
