data_image0
_chemical_formula_structural       DyHPPd5Sb
_chemical_formula_sum              "Dy1 H1 P1 Pd5 Sb1"
_cell_length_a       5.296661909299874
_cell_length_b       6.450489445565143
_cell_length_c       6.975761890411377
_cell_angle_alpha    81.19057579173645
_cell_angle_beta     73.16761909143588
_cell_angle_gamma    67.23406384527637

_space_group_name_H-M_alt    "P 1"
_space_group_IT_number       1

loop_
  _space_group_symop_operation_xyz
  'x, y, z'

loop_
  _atom_site_type_symbol
  _atom_site_label
  _atom_site_symmetry_multiplicity
  _atom_site_fract_x
  _atom_site_fract_y
  _atom_site_fract_z
  _atom_site_occupancy
  Dy  Dy1       1.0  0.7779468894004822  0.22797508537769318  0.9010277986526489  1.0000
  H   H1        1.0  0.3090232014656067  0.23153162002563477  0.17761266231536865  1.0000
  P   P1        1.0  0.2801671326160431  0.8641287684440613  0.5417248606681824  1.0000
  Pd  Pd1       1.0  0.8137937188148499  0.7440000772476196  0.4909333288669586  1.0000
  Pd  Pd2       1.0  0.8286893367767334  0.9569934606552125  0.04722261056303978  1.0000
  Pd  Pd3       1.0  0.7987026572227478  0.0840168371796608  0.4513701796531677  1.0000
  Pd  Pd4       1.0  0.7823371887207031  0.8718826174736023  0.9607474207878113  1.0000
  Pd  Pd5       1.0  0.28082767128944397  0.3624313175678253  0.32060039043426514  1.0000
  Sb  Sb1       1.0  0.3321147859096527  0.25178202986717224  0.9805687069892883  1.0000
