data_image0
_chemical_formula_structural       Pd6Yb3
_chemical_formula_sum              "Pd6 Yb3"
_cell_length_a       3.348961496309832
_cell_length_b       5.768817128630289
_cell_length_c       6.105449199676514
_cell_angle_alpha    112.49961440937878
_cell_angle_beta     93.48774660076722
_cell_angle_gamma    89.68236627967427

_space_group_name_H-M_alt    "P 1"
_space_group_IT_number       1

loop_
  _space_group_symop_operation_xyz
  'x, y, z'

loop_
  _atom_site_type_symbol
  _atom_site_label
  _atom_site_symmetry_multiplicity
  _atom_site_fract_x
  _atom_site_fract_y
  _atom_site_fract_z
  _atom_site_occupancy
  Pd  Pd1       1.0  0.17265024781227112  0.22028554975986483  0.691491961479187  1.0000
  Pd  Pd2       1.0  0.1725706309080124  0.6920844912528992  0.6551840305328369  1.0000
  Pd  Pd3       1.0  0.1783057451248169  0.10194624960422517  0.5717823505401611  1.0000
  Pd  Pd4       1.0  0.1726878136396408  0.26295024156570435  0.8965106010437012  1.0000
  Pd  Pd5       1.0  0.6827638745307922  0.42675593495368963  0.6984676122665405  1.0000
  Pd  Pd6       1.0  0.6730363368988037  0.3560667335987091  0.9272444248199463  1.0000
  Yb  Yb1       1.0  0.6734654903411865  0.2905392050743103  0.5759646892547607  1.0000
  Yb  Yb2       1.0  0.17361189424991608  0.9922474026679994  0.8590705990791321  1.0000
  Yb  Yb3       1.0  0.1742112934589386  0.8097742199897767  0.9544743895530701  1.0000
