data_image0
_chemical_formula_structural       MoO9P4
_chemical_formula_sum              "Mo1 O9 P4"
_cell_length_a       5.073883715768189
_cell_length_b       6.686019561511141
_cell_length_c       6.621001720428467
_cell_angle_alpha    122.89715061606857
_cell_angle_beta     91.63844146246667
_cell_angle_gamma    91.04813587225112

_space_group_name_H-M_alt    "P 1"
_space_group_IT_number       1

loop_
  _space_group_symop_operation_xyz
  'x, y, z'

loop_
  _atom_site_type_symbol
  _atom_site_label
  _atom_site_symmetry_multiplicity
  _atom_site_fract_x
  _atom_site_fract_y
  _atom_site_fract_z
  _atom_site_occupancy
  Mo  Mo1       1.0  0.5664854645729065  0.41777378320693964  0.9889010787010193  1.0000
  O   O1        1.0  0.7855903506278992  0.34430545568466187  0.5916239023208618  1.0000
  O   O2        1.0  0.7959673404693604  0.6650714874267578  0.1307281255722046  1.0000
  O   O3        1.0  0.3208693563938141  0.06763814389705658  0.7883712649345398  1.0000
  O   O4        1.0  0.5386415123939514  0.6180500984191895  0.5857757329940796  1.0000
  O   O5        1.0  0.30194056034088135  0.7308273911476135  0.9931359887123108  1.0000
  O   O6        1.0  0.8068457841873169  0.12349351495504378  0.32441002130508423  1.0000
  O   O7        1.0  0.2891335189342499  0.37210348248481745  0.5663886666297913  1.0000
  O   O8        1.0  0.813393235206604  0.9257676601409911  0.7208054661750793  1.0000
  O   O9        1.0  0.2956892848014831  0.04871832579374313  0.2678496539592743  1.0000
  P   P1        1.0  0.587773323059082  0.998587667942047  0.00035250186920166016  1.0000
  P   P2        1.0  0.08091286569833755  0.6587802767753601  0.605393648147583  1.0000
  P   P3        1.0  0.0845554918050766  0.011687345802783964  0.7393803596496582  1.0000
  P   P4        1.0  0.05951487272977829  0.40738859772682184  0.8126826882362366  1.0000
