data_image0
_chemical_formula_structural       CoMoO6P6
_chemical_formula_sum              "Co1 Mo1 O6 P6"
_cell_length_a       5.372297966408633
_cell_length_b       5.925752614888398
_cell_length_c       6.800778865814209
_cell_angle_alpha    119.97579062472126
_cell_angle_beta     91.79936436526154
_cell_angle_gamma    88.57774712564124

_space_group_name_H-M_alt    "P 1"
_space_group_IT_number       1

loop_
  _space_group_symop_operation_xyz
  'x, y, z'

loop_
  _atom_site_type_symbol
  _atom_site_label
  _atom_site_symmetry_multiplicity
  _atom_site_fract_x
  _atom_site_fract_y
  _atom_site_fract_z
  _atom_site_occupancy
  Co  Co1       1.0  0.4406484067440033  0.2825292944908142  0.6515707969665526  1.0000
  Mo  Mo1       1.0  0.6794410943984985  0.6259745955467224  0.3012152314186096  1.0000
  O   O1        1.0  0.6947972178459167  0.2921757698059082  0.17335145175456998  1.0000
  O   O2        1.0  0.17297518253326416  0.6490424275398254  0.8008419275283812  1.0000
  O   O3        1.0  0.21763020753860474  0.14551998674869537  0.8079513311386107  1.0000
  O   O4        1.0  0.73714280128479  0.6205874681472778  0.79750257730484  1.0000
  O   O5        1.0  0.6840159893035889  0.09736910462379456  0.59925377368927  1.0000
  O   O6        1.0  0.6949692368507385  0.2853250801563263  0.4184973835945129  1.0000
  P   P1        1.0  0.6815028786659241  0.17478212714195251  0.4220454394817352  1.0000
  P   P2        1.0  0.6774989366531372  0.8047052025794983  0.2134357392787933  1.0000
  P   P3        1.0  0.18294993042945862  0.0950997918844223  0.031340658664703376  1.0000
  P   P4        1.0  0.20309624075889587  0.574311375617981  0.8880037069320678  1.0000
  P   P5        1.0  0.18435046076774597  0.5679484009742737  0.09644578397274016  1.0000
  P   P6        1.0  0.6979790329933167  0.5916696190834045  0.4224389493465423  1.0000
