data_image0
_chemical_formula_structural       Mo2O7P5
_chemical_formula_sum              "Mo2 O7 P5"
_cell_length_a       5.315579224018844
_cell_length_b       7.362832790684675
_cell_length_c       7.66644287109375
_cell_angle_alpha    119.59138310835492
_cell_angle_beta     93.09277026931251
_cell_angle_gamma    88.54331487357824

_space_group_name_H-M_alt    "P 1"
_space_group_IT_number       1

loop_
  _space_group_symop_operation_xyz
  'x, y, z'

loop_
  _atom_site_type_symbol
  _atom_site_label
  _atom_site_symmetry_multiplicity
  _atom_site_fract_x
  _atom_site_fract_y
  _atom_site_fract_z
  _atom_site_occupancy
  Mo  Mo1       1.0  0.33615246415138245  0.2900354564189911  0.8599685430526733  1.0000
  Mo  Mo2       1.0  0.815715491771698  0.17319294810295105  0.7255085706710815  1.0000
  O   O1        1.0  0.2571152150630951  0.31758755445480347  0.15904870629310608  1.0000
  O   O2        1.0  0.5904794931411743  0.5412283539772034  0.7261333465576172  1.0000
  O   O3        1.0  0.0034263134002685547  0.6146499514579773  0.9964597821235657  1.0000
  O   O4        1.0  0.6917719841003418  0.6210863590240479  0.054257955402135905  1.0000
  O   O5        1.0  0.4490542411804199  0.04422692582011223  0.6799288392066956  1.0000
  O   O6        1.0  0.7601558566093445  0.117189459502697  0.510521650314331  1.0000
  O   O7        1.0  0.17554789781570435  0.7796748876571655  0.7320228219032288  1.0000
  P   P1        1.0  0.3161490559577942  0.6668809652328491  0.12191259115934377  1.0000
  P   P2        1.0  0.33190691471099854  0.3516978919506073  0.05590248107910156  1.0000
  P   P3        1.0  0.9937322735786438  0.5120148062705994  0.5578683614730835  1.0000
  P   P4        1.0  0.8263653516769409  0.152095764875412  0.2662626802921295  1.0000
  P   P5        1.0  0.30047911405563354  0.9811878800392152  0.6913238763809204  1.0000
