data_image0
_chemical_formula_structural       Mo5O4P5
_chemical_formula_sum              "Mo5 O4 P5"
_cell_length_a       4.033774608968751
_cell_length_b       8.407718472102735
_cell_length_c       8.123229026794434
_cell_angle_alpha    127.62551347608706
_cell_angle_beta     80.76857709633516
_cell_angle_gamma    93.02937179161677

_space_group_name_H-M_alt    "P 1"
_space_group_IT_number       1

loop_
  _space_group_symop_operation_xyz
  'x, y, z'

loop_
  _atom_site_type_symbol
  _atom_site_label
  _atom_site_symmetry_multiplicity
  _atom_site_fract_x
  _atom_site_fract_y
  _atom_site_fract_z
  _atom_site_occupancy
  Mo  Mo1       1.0  0.1067575216293335  0.7469112873077393  0.9807139039039612  1.0000
  Mo  Mo2       1.0  0.10490336269140244  0.16689014434814453  0.33174145221710205  1.0000
  Mo  Mo3       1.0  0.5962204933166504  0.09322116523981094  0.8484537601470947  1.0000
  Mo  Mo4       1.0  0.10593889653682709  0.44677168130874634  0.7198814153671265  1.0000
  Mo  Mo5       1.0  0.5994978547096252  0.12032753229141235  0.44543373584747314  1.0000
  O   O1        1.0  0.6095545291900635  0.7274065613746643  0.1269520223140716  1.0000
  O   O2        1.0  0.09864833950996399  0.28857114911079407  0.8153244853019714  1.0000
  O   O3        1.0  0.09286278486251831  0.7351378202438354  0.877998411655426  1.0000
  O   O4        1.0  0.5949289798736572  0.435960054397583  0.33310481905937195  1.0000
  P   P1        1.0  0.10323936492204666  0.5790232419967651  0.08156520128250117  1.0000
  P   P2        1.0  0.1005067378282547  0.5142927765846252  0.2324571311473846  1.0000
  P   P3        1.0  0.5894544124603271  0.11137892305850983  0.371246337890625  1.0000
  P   P4        1.0  0.6091480851173401  0.523099958896637  0.5470423102378845  1.0000
  P   P5        1.0  0.1149657741189003  0.9839205145835876  0.7009921669960021  1.0000
