data_image0
_chemical_formula_structural       Mo2O8P4
_chemical_formula_sum              "Mo2 O8 P4"
_cell_length_a       6.2378766443623395
_cell_length_b       7.576633723641098
_cell_length_c       7.949478626251221
_cell_angle_alpha    122.15644230234555
_cell_angle_beta     90.83238307028444
_cell_angle_gamma    90.05829395890056

_space_group_name_H-M_alt    "P 1"
_space_group_IT_number       1

loop_
  _space_group_symop_operation_xyz
  'x, y, z'

loop_
  _atom_site_type_symbol
  _atom_site_label
  _atom_site_symmetry_multiplicity
  _atom_site_fract_x
  _atom_site_fract_y
  _atom_site_fract_z
  _atom_site_occupancy
  Mo  Mo1       1.0  0.8194219470024108  0.4332328140735626  0.3252849876880645  1.0000
  Mo  Mo2       1.0  0.13741151988506317  0.20042549073696136  0.5007875561714172  1.0000
  O   O1        1.0  0.1574307531118393  0.9351463913917542  0.834045112133026  1.0000
  O   O2        1.0  0.11547176539897917  0.5848764777183533  0.6063318848609923  1.0000
  O   O3        1.0  0.6004604697227478  0.1542418897151947  0.895886719226837  1.0000
  O   O4        1.0  0.8622992038726806  0.08216242492198944  0.03504341468214989  1.0000
  O   O5        1.0  0.12759490311145782  0.5651925206184387  0.8870036602020263  1.0000
  O   O6        1.0  0.9089590311050414  0.057234786450862885  0.3775654733180999  1.0000
  O   O7        1.0  0.4093766808509826  0.8241534233093262  0.41079115867614735  1.0000
  O   O8        1.0  0.6077292561531067  0.7996518015861511  0.999808371067047  1.0000
  P   P1        1.0  0.4155550003051757  0.42757052183151245  0.0638030543923378  1.0000
  P   P2        1.0  0.4159151911735534  0.6952419877052307  0.4203968048095702  1.0000
  P   P3        1.0  0.06362161040306091  0.22568437457084656  0.3822243213653564  1.0000
  P   P4        1.0  0.5668867826461792  0.17560172080993652  0.8006213307380675  1.0000
