data_image0
_chemical_formula_structural       CeMo4NaO3P4Re
_chemical_formula_sum              "Ce1 Mo4 Na1 O3 P4 Re1"
_cell_length_a       3.7633954881011378
_cell_length_b       7.285601887158559
_cell_length_c       7.51218843460083
_cell_angle_alpha    126.98818944275914
_cell_angle_beta     82.28838301791828
_cell_angle_gamma    103.71690524593824

_space_group_name_H-M_alt    "P 1"
_space_group_IT_number       1

loop_
  _space_group_symop_operation_xyz
  'x, y, z'

loop_
  _atom_site_type_symbol
  _atom_site_label
  _atom_site_symmetry_multiplicity
  _atom_site_fract_x
  _atom_site_fract_y
  _atom_site_fract_z
  _atom_site_occupancy
  Ce  Ce1       1.0  0.333090215921402  0.31654706597328186  0.4606837332248688  1.0000
  Mo  Mo1       1.0  0.34579241275787354  0.5061269998550415  0.5641759037971497  1.0000
  Mo  Mo2       1.0  0.3252679109573364  0.18773026764392853  0.5392706394195557  1.0000
  Mo  Mo3       1.0  0.833011269569397  0.7331221699714661  0.1389457136392594  1.0000
  Mo  Mo4       1.0  0.32890114188194275  0.0014933833153918386  0.05293827131390572  1.0000
  Na  Na1       1.0  0.8268453478813171  0.7055012583732605  0.43379643559455877  1.0000
  O   O1        1.0  0.33324289321899414  0.5051817297935486  0.7225387096405029  1.0000
  O   O2        1.0  0.8514282703399658  0.36161381006240845  0.0477049387991429  1.0000
  O   O3        1.0  0.8455567359924316  0.02407476305961609  0.2758256196975708  1.0000
  P   P1        1.0  0.8277601003646851  0.6698163151741028  0.41135928034782415  1.0000
  P   P2        1.0  0.817913293838501  0.31485337018966675  0.7150890231132507  1.0000
  P   P3        1.0  0.31673651933670044  0.4991108775138855  0.6576693058013916  1.0000
  P   P4        1.0  0.8195658922195435  0.9543805122375488  0.9498253464698792  1.0000
  Re  Re1       1.0  0.33597010374069214  0.0229596309363842  0.04169108718633652  1.0000
