data_image0
_chemical_formula_structural       CoDyGaGe3PRbV2
_chemical_formula_sum              "Co1 Dy1 Ga1 Ge3 P1 Rb1 V2"
_cell_length_a       5.207852228052454
_cell_length_b       7.174163679629794
_cell_length_c       7.966829776763916
_cell_angle_alpha    122.63516244026272
_cell_angle_beta     89.40006295420997
_cell_angle_gamma    90.21031074226596

_space_group_name_H-M_alt    "P 1"
_space_group_IT_number       1

loop_
  _space_group_symop_operation_xyz
  'x, y, z'

loop_
  _atom_site_type_symbol
  _atom_site_label
  _atom_site_symmetry_multiplicity
  _atom_site_fract_x
  _atom_site_fract_y
  _atom_site_fract_z
  _atom_site_occupancy
  Co  Co1       1.0  0.21742822229862213  0.3013293147087097  0.14307923614978793  1.0000
  Dy  Dy1       1.0  0.22546133399009705  0.3670945465564728  0.24411539733409882  1.0000
  Ga  Ga1       1.0  0.7213140726089478  0.036545153707265854  0.11417657881975174  1.0000
  Ge  Ge1       1.0  0.7258372902870178  0.388523131608963  0.9874391555786133  1.0000
  Ge  Ge2       1.0  0.7230815887451172  0.04226072132587433  0.15159879624843597  1.0000
  Ge  Ge3       1.0  0.22300595045089722  0.18200278282165527  0.4204753041267395  1.0000
  P   P1        1.0  0.42872440814971924  0.8345092535018921  0.01516204047948122  1.0000
  Rb  Rb1       1.0  0.7226732969284058  0.10534520447254181  0.47249844670295715  1.0000
  V   V1        1.0  0.22545261681079865  0.97153639793396  0.7565139532089233  1.0000
  V   V2        1.0  0.2223132699728012  0.02409444935619831  0.5100048184394836  1.0000
