data_image0
_chemical_formula_structural       Ge2Lu2TbV2Zn2Zr
_chemical_formula_sum              "Ge2 Lu2 Tb1 V2 Zn2 Zr1"
_cell_length_a       6.063691848974879
_cell_length_b       6.508841501586519
_cell_length_c       8.106185913085938
_cell_angle_alpha    89.59241983734647
_cell_angle_beta     89.9105751342457
_cell_angle_gamma    98.26904251055652

_space_group_name_H-M_alt    "P 1"
_space_group_IT_number       1

loop_
  _space_group_symop_operation_xyz
  'x, y, z'

loop_
  _atom_site_type_symbol
  _atom_site_label
  _atom_site_symmetry_multiplicity
  _atom_site_fract_x
  _atom_site_fract_y
  _atom_site_fract_z
  _atom_site_occupancy
  Ge  Ge1       1.0  0.36323243379592896  0.38343286514282227  0.1475880891084671  1.0000
  Ge  Ge2       1.0  0.17508092522621155  0.7033680081367493  0.8218494057655334  1.0000
  Lu  Lu1       1.0  0.570450484752655  0.09080043435096741  0.06338966637849808  1.0000
  Lu  Lu2       1.0  0.8601314425468445  0.6380771398544312  0.6774590015411377  1.0000
  Tb  Tb1       1.0  0.8590883612632751  0.5686371326446533  0.998198926448822  1.0000
  V   V1        1.0  0.35637950897216797  0.06462188065052032  0.8730504512786865  1.0000
  V   V2        1.0  0.3609856963157654  0.919554591178894  0.21380634605884552  1.0000
  Zn  Zn1       1.0  0.8600316643714905  0.4335574805736542  0.45678481459617615  1.0000
  Zn  Zn2       1.0  0.8566300272941589  0.8860663771629333  0.8590441346168518  1.0000
  Zr  Zr1       1.0  0.8626267313957214  0.9411319494247437  0.8417289853096008  1.0000
