data_image0
_chemical_formula_structural       GdGeNaO6Rb
_chemical_formula_sum              "Gd1 Ge1 Na1 O6 Rb1"
_cell_length_a       5.574261943093511
_cell_length_b       5.641983052029517
_cell_length_c       6.04334020614624
_cell_angle_alpha    90.50714537866503
_cell_angle_beta     89.63394275701633
_cell_angle_gamma    90.1939407012635

_space_group_name_H-M_alt    "P 1"
_space_group_IT_number       1

loop_
  _space_group_symop_operation_xyz
  'x, y, z'

loop_
  _atom_site_type_symbol
  _atom_site_label
  _atom_site_symmetry_multiplicity
  _atom_site_fract_x
  _atom_site_fract_y
  _atom_site_fract_z
  _atom_site_occupancy
  Gd  Gd1       1.0  0.7699697017669678  0.6793872117996216  0.4832715988159179  1.0000
  Ge  Ge1       1.0  0.2690151035785675  0.9201734662055969  0.39913657307624817  1.0000
  Na  Na1       1.0  0.2672160863876343  0.8355807662010193  0.8613413572311401  1.0000
  O   O1        1.0  0.2662673890590668  0.06298293173313141  0.6867140531539917  1.0000
  O   O2        1.0  0.777281641960144  0.3603655695915222  0.8002952933311462  1.0000
  O   O3        1.0  0.2686091363430023  0.49952203035354614  0.9423886537551879  1.0000
  O   O4        1.0  0.7678506374359131  0.6964795589447021  0.922762095928192  1.0000
  O   O5        1.0  0.2735214829444885  0.04954800754785538  0.4279439151287079  1.0000
  O   O6        1.0  0.7659918069839478  0.6330094337463379  0.5874262452125549  1.0000
  Rb  Rb1       1.0  0.7691258192062378  0.30197873711586  0.5647649765014648  1.0000
