data_image0
_chemical_formula_structural       FGaGe3LiORbUZn
_chemical_formula_sum              "F1 Ga1 Ge3 Li1 O1 Rb1 U1 Zn1"
_cell_length_a       5.813565325956657
_cell_length_b       5.553993441201017
_cell_length_c       6.6064453125
_cell_angle_alpha    112.59152256313747
_cell_angle_beta     106.44034787790609
_cell_angle_gamma    114.59228240707934

_space_group_name_H-M_alt    "P 1"
_space_group_IT_number       1

loop_
  _space_group_symop_operation_xyz
  'x, y, z'

loop_
  _atom_site_type_symbol
  _atom_site_label
  _atom_site_symmetry_multiplicity
  _atom_site_fract_x
  _atom_site_fract_y
  _atom_site_fract_z
  _atom_site_occupancy
  F   F1        1.0  0.5580918192863464  0.16176725924015045  0.006079582497477531  1.0000
  Ga  Ga1       1.0  0.4545051157474518  0.10668166726827621  0.28767287731170654  1.0000
  Ge  Ge1       1.0  0.2650960683822632  0.8833416700363159  0.3077850043773651  1.0000
  Ge  Ge2       1.0  0.7877318263053894  0.3963620066642761  0.40997472405433655  1.0000
  Ge  Ge3       1.0  0.41779619455337524  0.4701882302761078  0.7010730504989624  1.0000
  Li  Li1       1.0  0.3420215845108032  0.6979880928993225  0.1613791584968567  1.0000
  O   O1        1.0  0.13703615963459015  0.5821888446807861  0.1481180042028427  1.0000
  Rb  Rb1       1.0  0.7605828642845154  0.011023455299437046  0.9062413573265076  1.0000
  U   U1        1.0  0.6896977424621582  0.6334272623062134  0.7861722707748413  1.0000
  Zn  Zn1       1.0  0.7399249076843262  0.34463372826576233  0.3567643463611603  1.0000
