data_image0
_chemical_formula_structural       AsBiGe2LaOP2UZn
_chemical_formula_sum              "As1 Bi1 Ge2 La1 O1 P2 U1 Zn1"
_cell_length_a       5.226884866275136
_cell_length_b       6.289143826790696
_cell_length_c       7.485243320465088
_cell_angle_alpha    94.34468346536995
_cell_angle_beta     89.78240176422925
_cell_angle_gamma    104.33331303340657

_space_group_name_H-M_alt    "P 1"
_space_group_IT_number       1

loop_
  _space_group_symop_operation_xyz
  'x, y, z'

loop_
  _atom_site_type_symbol
  _atom_site_label
  _atom_site_symmetry_multiplicity
  _atom_site_fract_x
  _atom_site_fract_y
  _atom_site_fract_z
  _atom_site_occupancy
  As  As1       1.0  0.1835193783044815  0.9583002328872681  0.6226332187652588  1.0000
  Bi  Bi1       1.0  0.6736137866973877  0.33164557814598083  0.5971311926841736  1.0000
  Ge  Ge1       1.0  0.18247058987617493  0.8720203042030334  0.7355942726135254  1.0000
  Ge  Ge2       1.0  0.19337618350982666  0.433840274810791  0.232587069272995  1.0000
  La  La1       1.0  0.19232846796512604  0.00176321214530617  0.002212348161265254  1.0000
  O   O1        1.0  0.674985408782959  0.9839237332344054  0.6009361743927002  1.0000
  P   P1        1.0  0.6899337768554688  0.3082561194896698  0.6447864174842834  1.0000
  P   P2        1.0  0.6712331175804138  0.7986262440681458  0.5470558404922485  1.0000
  U   U1        1.0  0.699672520160675  0.27551567554473877  0.10444805026054382  1.0000
  Zn  Zn1       1.0  0.6818403005599976  0.42468440532684326  0.21945789456367493  1.0000
