data_image0
_chemical_formula_structural       Ge3O7
_chemical_formula_sum              "Ge3 O7"
_cell_length_a       5.553503669156246
_cell_length_b       6.205366203804406
_cell_length_c       6.0100579261779785
_cell_angle_alpha    110.50413912982918
_cell_angle_beta     109.30691694435649
_cell_angle_gamma    108.83996566729303

_space_group_name_H-M_alt    "P 1"
_space_group_IT_number       1

loop_
  _space_group_symop_operation_xyz
  'x, y, z'

loop_
  _atom_site_type_symbol
  _atom_site_label
  _atom_site_symmetry_multiplicity
  _atom_site_fract_x
  _atom_site_fract_y
  _atom_site_fract_z
  _atom_site_occupancy
  Ge  Ge1       1.0  0.42194435000419617  0.9137644171714783  0.8287376761436462  1.0000
  Ge  Ge2       1.0  0.14699891209602356  0.438254714012146  0.9750186800956726  1.0000
  Ge  Ge3       1.0  0.1523447334766388  0.8676262497901917  0.7701495885848999  1.0000
  O   O1        1.0  0.6285948157310486  0.20067842304706573  0.7616180181503296  1.0000
  O   O2        1.0  0.6372076272964478  0.07988692075014114  0.6388020515441895  1.0000
  O   O3        1.0  0.6369924545288086  0.6308445334434509  0.31043827533721924  1.0000
  O   O4        1.0  0.12307527661323547  0.38125079870224  0.5770261883735657  1.0000
  O   O5        1.0  0.138711616396904  0.2423531413078308  0.1780865490436554  1.0000
  O   O6        1.0  0.14901518821716309  0.007201282773166895  0.46711716055870056  1.0000
  O   O7        1.0  0.6351843476295471  0.9338952898979187  0.8189020156860352  1.0000
