data_image0
_chemical_formula_structural       Ge3Tb4
_chemical_formula_sum              "Ge3 Tb4"
_cell_length_a       5.58818754637912
_cell_length_b       5.58345479207328
_cell_length_c       7.649349212646484
_cell_angle_alpha    90.53692665156144
_cell_angle_beta     88.8306326271842
_cell_angle_gamma    120.77095769976751

_space_group_name_H-M_alt    "P 1"
_space_group_IT_number       1

loop_
  _space_group_symop_operation_xyz
  'x, y, z'

loop_
  _atom_site_type_symbol
  _atom_site_label
  _atom_site_symmetry_multiplicity
  _atom_site_fract_x
  _atom_site_fract_y
  _atom_site_fract_z
  _atom_site_occupancy
  Ge  Ge1       1.0  0.4513179659843445  0.8585701584815979  0.2922220826148987  1.0000
  Ge  Ge2       1.0  0.41909319162368774  0.6657114624977112  0.06484152376651764  1.0000
  Ge  Ge3       1.0  0.03849610686302185  0.9657995700836182  0.7779420018196105  1.0000
  Tb  Tb1       1.0  0.7603498101234436  0.1532209813594818  0.07432807981967926  1.0000
  Tb  Tb2       1.0  0.0763414055109024  0.6725851893424988  0.26615920662879944  1.0000
  Tb  Tb3       1.0  0.8076736927032471  0.33894574642181396  0.7747903466224669  1.0000
  Tb  Tb4       1.0  0.3263641595840454  0.3391316831111908  0.5639218688011169  1.0000
