data_image0
_chemical_formula_structural       Ge3Tb4
_chemical_formula_sum              "Ge3 Tb4"
_cell_length_a       5.533705439452565
_cell_length_b       5.561965216184228
_cell_length_c       7.41461181640625
_cell_angle_alpha    89.99958905835423
_cell_angle_beta     89.04457913787087
_cell_angle_gamma    118.74788919663189

_space_group_name_H-M_alt    "P 1"
_space_group_IT_number       1

loop_
  _space_group_symop_operation_xyz
  'x, y, z'

loop_
  _atom_site_type_symbol
  _atom_site_label
  _atom_site_symmetry_multiplicity
  _atom_site_fract_x
  _atom_site_fract_y
  _atom_site_fract_z
  _atom_site_occupancy
  Ge  Ge1       1.0  0.40216875076293945  0.17859572172164917  0.4597765803337097  1.0000
  Ge  Ge2       1.0  0.898217260837555  0.18042609095573425  0.13788780570030212  1.0000
  Ge  Ge3       1.0  0.5503216981887817  0.6816327571868896  0.41689714789390564  1.0000
  Tb  Tb1       1.0  0.19723154604434961  0.9788464307785033  0.6295961141586303  1.0000
  Tb  Tb2       1.0  0.1746198534965515  0.39264002442359924  0.454568475484848  1.0000
  Tb  Tb3       1.0  0.6887280344963074  0.48568505048751826  0.628494918346405  1.0000
  Tb  Tb4       1.0  0.6637395024299622  0.8436442017555237  0.12727557122707364  1.0000
