data_image0
_chemical_formula_structural       Ge2Tb5
_chemical_formula_sum              "Ge2 Tb5"
_cell_length_a       5.1981435739630975
_cell_length_b       5.494524932184703
_cell_length_c       9.199068069458008
_cell_angle_alpha    93.5600204153946
_cell_angle_beta     88.08770144359701
_cell_angle_gamma    120.0488195192597

_space_group_name_H-M_alt    "P 1"
_space_group_IT_number       1

loop_
  _space_group_symop_operation_xyz
  'x, y, z'

loop_
  _atom_site_type_symbol
  _atom_site_label
  _atom_site_symmetry_multiplicity
  _atom_site_fract_x
  _atom_site_fract_y
  _atom_site_fract_z
  _atom_site_occupancy
  Ge  Ge1       1.0  0.18513411283493042  0.8577260971069336  0.011967168189585209  1.0000
  Ge  Ge2       1.0  0.5098822712898254  0.05905035883188247  0.6564381122589111  1.0000
  Tb  Tb1       1.0  0.16386322677135468  0.3886871933937073  0.6670486927032471  1.0000
  Tb  Tb2       1.0  0.8144770264625549  0.05051516741514206  0.849390983581543  1.0000
  Tb  Tb3       1.0  0.27240681648254395  0.5663397908210754  0.36988499760627747  1.0000
  Tb  Tb4       1.0  0.8416548967361451  0.6384400129318237  0.003347158432006833  1.0000
  Tb  Tb5       1.0  0.613456666469574  0.5605770349502563  0.6492871642112732  1.0000
