data_image0
_chemical_formula_structural       Ge3Tb4
_chemical_formula_sum              "Ge3 Tb4"
_cell_length_a       4.500277424909632
_cell_length_b       5.528321143200993
_cell_length_c       8.187112808227539
_cell_angle_alpha    102.88746108065571
_cell_angle_beta     87.79899126934882
_cell_angle_gamma    110.0801124527125

_space_group_name_H-M_alt    "P 1"
_space_group_IT_number       1

loop_
  _space_group_symop_operation_xyz
  'x, y, z'

loop_
  _atom_site_type_symbol
  _atom_site_label
  _atom_site_symmetry_multiplicity
  _atom_site_fract_x
  _atom_site_fract_y
  _atom_site_fract_z
  _atom_site_occupancy
  Ge  Ge1       1.0  0.4650956392288208  0.6218275427818298  0.3395687937736511  1.0000
  Ge  Ge2       1.0  0.9273046255111694  0.42157137393951416  0.3337513208389282  1.0000
  Ge  Ge3       1.0  0.4528063237667084  0.12253473699092865  0.32366952300071716  1.0000
  Tb  Tb1       1.0  0.19957399368286133  0.9188101291656494  0.32450994849205017  1.0000
  Tb  Tb2       1.0  0.9533793330192566  0.11846700310707092  0.10024106502532959  1.0000
  Tb  Tb3       1.0  0.4408723711967468  0.3302461802959442  0.6201854348182678  1.0000
  Tb  Tb4       1.0  0.7150110006332397  0.6403295993804932  0.8332372903823853  1.0000
