data_image0
_chemical_formula_structural       Cs5LaLuSeTeZn6
_chemical_formula_sum              "Cs5 La1 Lu1 Se1 Te1 Zn6"
_cell_length_a       5.173962377139804
_cell_length_b       7.25208845532671
_cell_length_c       14.289807319641113
_cell_angle_alpha    90.73580443343218
_cell_angle_beta     90.24665859105619
_cell_angle_gamma    89.64320915732563

_space_group_name_H-M_alt    "P 1"
_space_group_IT_number       1

loop_
  _space_group_symop_operation_xyz
  'x, y, z'

loop_
  _atom_site_type_symbol
  _atom_site_label
  _atom_site_symmetry_multiplicity
  _atom_site_fract_x
  _atom_site_fract_y
  _atom_site_fract_z
  _atom_site_occupancy
  Cs  Cs1       1.0  0.6549138426780701  0.2258053719997406  0.022038199007511135  1.0000
  Cs  Cs2       1.0  0.1348755657672882  0.5711726546287537  0.5620543956756592  1.0000
  Cs  Cs3       1.0  0.16012193262577057  0.05462067574262619  0.9066271185874938  1.0000
  Cs  Cs4       1.0  0.6423251628875732  0.5515036582946777  0.35611477494239796  1.0000
  Cs  Cs5       1.0  0.1593923419713974  0.6509347558021545  0.01603160984814167  1.0000
  La  La1       1.0  0.15480004251003265  0.052566055208444595  0.020181588828563687  1.0000
  Lu  Lu1       1.0  0.13972187042236328  0.28962084650993347  0.9282861948013305  1.0000
  Se  Se1       1.0  0.1321004033088684  0.06438998132944107  0.38966223597526545  1.0000
  Te  Te1       1.0  0.1551518738269806  0.2945423126220703  0.39608517289161677  1.0000
  Zn  Zn1       1.0  0.6512423157691956  0.02231472171843052  0.6027382016181945  1.0000
  Zn  Zn2       1.0  0.6289632320404053  0.511982798576355  0.2344575524330139  1.0000
  Zn  Zn3       1.0  0.623862624168396  0.788400411605835  0.457555204629898  1.0000
  Zn  Zn4       1.0  0.6469515562057495  0.5499929785728455  0.1596337258815765  1.0000
  Zn  Zn5       1.0  0.13250832259655  0.7707259058952332  0.23881654441356656  1.0000
  Zn  Zn6       1.0  0.6499859690666199  0.0687028169631958  0.10135798156261443  1.0000
