data_image0
_chemical_formula_structural       BaClCs7STeZn4
_chemical_formula_sum              "Ba1 Cl1 Cs7 S1 Te1 Zn4"
_cell_length_a       5.954656341859403
_cell_length_b       9.25544978011605
_cell_length_c       14.448223114013672
_cell_angle_alpha    90.29255025945957
_cell_angle_beta     89.55688596946776
_cell_angle_gamma    90.08028681892046

_space_group_name_H-M_alt    "P 1"
_space_group_IT_number       1

loop_
  _space_group_symop_operation_xyz
  'x, y, z'

loop_
  _atom_site_type_symbol
  _atom_site_label
  _atom_site_symmetry_multiplicity
  _atom_site_fract_x
  _atom_site_fract_y
  _atom_site_fract_z
  _atom_site_occupancy
  Ba  Ba1       1.0  0.9049361348152161  0.44828861951828003  0.2988787293434143  1.0000
  Cl  Cl1       1.0  0.85146564245224  0.5123884677886963  0.008182046934962273  1.0000
  Cs  Cs1       1.0  0.3601433038711548  0.4385226368904114  0.5113246440887451  1.0000
  Cs  Cs2       1.0  0.7447564601898193  0.6908555030822754  0.7643032670021057  1.0000
  Cs  Cs3       1.0  0.35503968596458435  0.7016578316688538  0.5928759574890137  1.0000
  Cs  Cs4       1.0  0.7433891296386719  0.671919047832489  0.25144389271736145  1.0000
  Cs  Cs5       1.0  0.8416635394096375  0.02720794640481472  0.2016372233629227  1.0000
  Cs  Cs6       1.0  0.33427906036376953  0.7750151753425598  0.02240513078868389  1.0000
  Cs  Cs7       1.0  0.3537985682487488  0.4356933534145355  0.04698982462286949  1.0000
  S   S1        1.0  0.8709351420402527  0.9239034056663513  0.3575231730937958  1.0000
  Te  Te1       1.0  0.24481986463069916  0.7049503326416016  0.31807637214660645  1.0000
  Zn  Zn1       1.0  0.856019914150238  0.07200489938259125  0.5986323952674866  1.0000
  Zn  Zn2       1.0  0.061014723032712936  0.33479419350624084  0.18308360874652863  1.0000
  Zn  Zn3       1.0  0.8430936932563782  0.9952101707458496  0.5318302512168884  1.0000
  Zn  Zn4       1.0  0.8404703736305237  0.2148740291595459  0.06076053902506829  1.0000
