data_image0
_chemical_formula_structural       As3BiCd2CsLa3SbTe4
_chemical_formula_sum              "As3 Bi1 Cd2 Cs1 La3 Sb1 Te4"
_cell_length_a       6.0969397737417514
_cell_length_b       10.350177042324654
_cell_length_c       10.999879837036133
_cell_angle_alpha    120.18408636081371
_cell_angle_beta     91.41507319237236
_cell_angle_gamma    86.82175745651827

_space_group_name_H-M_alt    "P 1"
_space_group_IT_number       1

loop_
  _space_group_symop_operation_xyz
  'x, y, z'

loop_
  _atom_site_type_symbol
  _atom_site_label
  _atom_site_symmetry_multiplicity
  _atom_site_fract_x
  _atom_site_fract_y
  _atom_site_fract_z
  _atom_site_occupancy
  As  As1       1.0  0.2619647979736328  0.9710218906402588  0.012529514729976656  1.0000
  As  As2       1.0  0.7587658762931824  0.4763592779636383  0.7011116743087769  1.0000
  As  As3       1.0  0.7424079179763794  0.985689640045166  0.5746011734008789  1.0000
  Bi  Bi1       1.0  0.2394850105047226  0.6638468503952026  0.6355555057525635  1.0000
  Cd  Cd1       1.0  0.2586992084980011  0.9652149081230164  0.8965716958045961  1.0000
  Cd  Cd2       1.0  0.24616660177707672  0.30819329619407654  0.9529007673263551  1.0000
  Cs  Cs1       1.0  0.7534957528114319  0.9912768006324768  0.5205169916152954  1.0000
  La  La1       1.0  0.762819230556488  0.29695925116539  0.8656945824623109  1.0000
  La  La2       1.0  0.24411270022392273  0.7827044725418091  0.6722158789634705  1.0000
  La  La3       1.0  0.7522574663162231  0.2990320324897766  0.5111131072044373  1.0000
  Sb  Sb1       1.0  0.2398427426815033  0.22785602509975433  0.48091945052146917  1.0000
  Te  Te1       1.0  0.7530522346496582  0.4668922424316406  0.7680810689926149  1.0000
  Te  Te2       1.0  0.25190699100494385  0.21884667873382568  0.3494095504283905  1.0000
  Te  Te3       1.0  0.24348054826259613  0.32581233978271484  0.34917667508125305  1.0000
  Te  Te4       1.0  0.2529582977294922  0.7647156119346619  0.1536710113286972  1.0000
