data_image0
_chemical_formula_structural       BBaCs4CuILaMnSbTiZn3
_chemical_formula_sum              "B1 Ba1 Cs4 Cu1 I1 La1 Mn1 Sb1 Ti1 Zn3"
_cell_length_a       5.899000731412522
_cell_length_b       7.902840256628726
_cell_length_c       13.212485313415527
_cell_angle_alpha    98.64284504999101
_cell_angle_beta     87.92061773165133
_cell_angle_gamma    89.0146974578108

_space_group_name_H-M_alt    "P 1"
_space_group_IT_number       1

loop_
  _space_group_symop_operation_xyz
  'x, y, z'

loop_
  _atom_site_type_symbol
  _atom_site_label
  _atom_site_symmetry_multiplicity
  _atom_site_fract_x
  _atom_site_fract_y
  _atom_site_fract_z
  _atom_site_occupancy
  B   B1        1.0  0.8036512136459351  0.2074817270040512  0.5573132038116455  1.0000
  Ba  Ba1       1.0  0.8115361928939818  0.623068630695343  0.5597314834594727  1.0000
  Cs  Cs1       1.0  0.31128185987472534  0.4370090961456299  0.5207325220108032  1.0000
  Cs  Cs2       1.0  0.31299889087677  0.1902206987142563  0.13321857154369354  1.0000
  Cs  Cs3       1.0  0.810310125350952  0.22062461078166962  0.4579815566539764  1.0000
  Cs  Cs4       1.0  0.312978595495224  0.9297648668289185  0.29965585470199585  1.0000
  Cu  Cu1       1.0  0.023527123034000397  0.6330164074897766  0.6038066148757935  1.0000
  I   I1        1.0  0.8040264248847961  0.17284908890724182  0.6988727450370787  1.0000
  La  La1       1.0  0.41905280947685236  0.7767062187194824  0.9248325824737548  1.0000
  Mn  Mn1       1.0  0.07770825177431107  0.7596486806869507  0.3287316262722015  1.0000
  Sb  Sb1       1.0  0.30515193939208984  0.15418140590190887  0.6627222299575805  1.0000
  Ti  Ti1       1.0  0.8200514912605285  0.8095794320106506  0.8082115650177001  1.0000
  Zn  Zn1       1.0  0.2976433336734772  0.6910571455955505  0.5799774527549744  1.0000
  Zn  Zn2       1.0  0.31073886156082153  0.6816068887710571  0.15683445334434507  1.0000
  Zn  Zn3       1.0  0.805907666683197  0.22323647141456604  0.31099545955657953  1.0000
