data_image0
_chemical_formula_structural       As3Bi2CdCoCsLa3Te3Ti
_chemical_formula_sum              "As3 Bi2 Cd1 Co1 Cs1 La3 Te3 Ti1"
_cell_length_a       6.339193862244768
_cell_length_b       10.065824672811342
_cell_length_c       10.42993450164795
_cell_angle_alpha    119.53939805697016
_cell_angle_beta     92.64133996554573
_cell_angle_gamma    88.25842509838564

_space_group_name_H-M_alt    "P 1"
_space_group_IT_number       1

loop_
  _space_group_symop_operation_xyz
  'x, y, z'

loop_
  _atom_site_type_symbol
  _atom_site_label
  _atom_site_symmetry_multiplicity
  _atom_site_fract_x
  _atom_site_fract_y
  _atom_site_fract_z
  _atom_site_occupancy
  As  As1       1.0  0.2716450095176697  0.4308813810348511  0.6905450820922852  1.0000
  As  As2       1.0  0.27614569664001465  0.8364363312721252  0.1042298674583435  1.0000
  As  As3       1.0  0.7790170311927797  0.08562743663787842  0.9804580211639404  1.0000
  Bi  Bi1       1.0  0.7615029215812683  0.5764003396034241  0.8761979937553406  1.0000
  Bi  Bi2       1.0  0.27386361360549927  0.23490937054157257  0.925470769405365  1.0000
  Cd  Cd1       1.0  0.2635498046875  0.11076049506664276  0.060573510825634  1.0000
  Co  Co1       1.0  0.27872544527053833  0.30132392048835754  0.5689297914505005  1.0000
  Cs  Cs1       1.0  0.7770590782165528  0.8210904598236084  0.5633673071861267  1.0000
  La  La1       1.0  0.28092706203460693  0.28007420897483826  0.34415432810783386  1.0000
  La  La2       1.0  0.52106112241745  0.4233655333518982  0.10890818387269974  1.0000
  La  La3       1.0  0.020047461614012718  0.717301070690155  0.045895453542470974  1.0000
  Te  Te1       1.0  0.7708124518394471  0.01695222035050392  0.7306260466575623  1.0000
  Te  Te2       1.0  0.7812995910644532  0.7016545534133911  0.6347169876098633  1.0000
  Te  Te3       1.0  0.7696329951286317  0.28469112515449524  0.24530161917209625  1.0000
  Ti  Ti1       1.0  0.2742319405078888  0.6263062357902527  0.3390639126300812  1.0000
