data_image0
_chemical_formula_structural       CeCs4La2PtSeTeTiTlZn3
_chemical_formula_sum              "Ce1 Cs4 La2 Pt1 Se1 Te1 Ti1 Tl1 Zn3"
_cell_length_a       5.2622582573997345
_cell_length_b       7.343536233923
_cell_length_c       13.853446960449219
_cell_angle_alpha    90.04827947695345
_cell_angle_beta     90.18644515326177
_cell_angle_gamma    89.80699838740294

_space_group_name_H-M_alt    "P 1"
_space_group_IT_number       1

loop_
  _space_group_symop_operation_xyz
  'x, y, z'

loop_
  _atom_site_type_symbol
  _atom_site_label
  _atom_site_symmetry_multiplicity
  _atom_site_fract_x
  _atom_site_fract_y
  _atom_site_fract_z
  _atom_site_occupancy
  Ce  Ce1       1.0  0.9086041450500486  0.08792963624000551  0.08843119442462921  1.0000
  Cs  Cs1       1.0  0.9000024795532227  0.5835151672363281  0.2122155576944351  1.0000
  Cs  Cs2       1.0  0.8959262371063232  0.06500233709812164  0.11892975866794585  1.0000
  Cs  Cs3       1.0  0.9006441235542297  0.75107479095459  0.5906219482421875  1.0000
  Cs  Cs4       1.0  0.35845819115638733  0.07639347016811371  0.3570457398891449  1.0000
  La  La1       1.0  0.46124300360679626  0.5646214485168457  0.49466261267662043  1.0000
  La  La2       1.0  0.33119335770606995  0.5834944248199463  0.8130801916122435  1.0000
  Pt  Pt1       1.0  0.403152197599411  0.2459261864423752  0.135489821434021  1.0000
  Se  Se1       1.0  0.4174317717552185  0.09944144636392595  0.7201561331748962  1.0000
  Te  Te1       1.0  0.404035359621048  0.034668441861867905  0.19619032740592954  1.0000
  Ti  Ti1       1.0  0.9055963754653931  0.08366467803716661  0.6258589625358582  1.0000
  Tl  Tl1       1.0  0.8808096051216125  0.5202109813690186  0.22708699107170102  1.0000
  Zn  Zn1       1.0  0.8666927814483643  0.732159972190857  0.6238817572593689  1.0000
  Zn  Zn2       1.0  0.6009300947189331  0.06722571700811386  0.9810179471969603  1.0000
  Zn  Zn3       1.0  0.10764089971780777  0.8518379330635072  0.8319381475448607  1.0000
