data_image0
_chemical_formula_structural       GeIInO3Pb2PrRe
_chemical_formula_sum              "Ge1 I1 In1 O3 Pb2 Pr1 Re1"
_cell_length_a       5.388537543282038
_cell_length_b       5.546552011575713
_cell_length_c       8.417081832885742
_cell_angle_alpha    88.28253141648409
_cell_angle_beta     80.24544005805929
_cell_angle_gamma    71.2278390904528

_space_group_name_H-M_alt    "P 1"
_space_group_IT_number       1

loop_
  _space_group_symop_operation_xyz
  'x, y, z'

loop_
  _atom_site_type_symbol
  _atom_site_label
  _atom_site_symmetry_multiplicity
  _atom_site_fract_x
  _atom_site_fract_y
  _atom_site_fract_z
  _atom_site_occupancy
  Ge  Ge1       1.0  0.43928876519203186  0.48550558090209966  0.3204750716686249  1.0000
  I   I1        1.0  0.940318763256073  0.443177878856659  0.629316508769989  1.0000
  In  In1       1.0  0.9390773773193359  0.428689330816269  0.39894223213195795  1.0000
  O   O1        1.0  0.004978175275027752  0.16027984023094177  0.5973607897758484  1.0000
  O   O2        1.0  0.4836718440055847  0.17563791573047638  0.5274745225906372  1.0000
  O   O3        1.0  0.9985743165016174  0.9659165740013124  0.5924203991889954  1.0000
  Pb  Pb1       1.0  0.44864875078201294  0.5361980199813843  0.3370409607887268  1.0000
  Pb  Pb2       1.0  0.4327903389930725  0.055784683674573905  0.36353152990341187  1.0000
  Pr  Pr1       1.0  0.940467894077301  0.868404507637024  0.2832571268081665  1.0000
  Re  Re1       1.0  0.9371171593666077  0.004891461227089167  0.9648954272270203  1.0000
