data_image0
_chemical_formula_structural       BeGeI2O3PbSeTb
_chemical_formula_sum              "Be1 Ge1 I2 O3 Pb1 Se1 Tb1"
_cell_length_a       5.744884597503933
_cell_length_b       6.56204615138337
_cell_length_c       5.857166290283203
_cell_angle_alpha    57.7771330715174
_cell_angle_beta     54.54115429693346
_cell_angle_gamma    57.13002693479152

_space_group_name_H-M_alt    "P 1"
_space_group_IT_number       1

loop_
  _space_group_symop_operation_xyz
  'x, y, z'

loop_
  _atom_site_type_symbol
  _atom_site_label
  _atom_site_symmetry_multiplicity
  _atom_site_fract_x
  _atom_site_fract_y
  _atom_site_fract_z
  _atom_site_occupancy
  Be  Be1       1.0  0.306253582239151  0.0740601047873497  0.5843290686607361  1.0000
  Ge  Ge1       1.0  0.32415977120399475  0.4914030134677887  0.6476370096206665  1.0000
  I   I1        1.0  0.7091817259788513  0.06470249593257904  0.13383536040782928  1.0000
  I   I2        1.0  0.2554095983505249  0.2103533297777176  0.5669209957122803  1.0000
  O   O1        1.0  0.7039434909820557  0.5921011567115784  0.48090526461601263  1.0000
  O   O2        1.0  0.030880533158779144  0.689035177230835  0.542586088180542  1.0000
  O   O3        1.0  0.46161946654319763  0.09965064376592636  0.6053732633590698  1.0000
  Pb  Pb1       1.0  0.9107459783554077  0.7242504954338074  0.8523594141006471  1.0000
  Se  Se1       1.0  0.8238179087638855  0.3851654827594757  0.3126521706581116  1.0000
  Tb  Tb1       1.0  0.3830361068248749  0.51939457654953  0.5656081438064575  1.0000
