data_image0
_chemical_formula_structural       FeIO5Re2Zn
_chemical_formula_sum              "Fe1 I1 O5 Re2 Zn1"
_cell_length_a       4.915272353789918
_cell_length_b       4.9551080502322415
_cell_length_c       7.515645503997803
_cell_angle_alpha    92.3541906670246
_cell_angle_beta     90.58443110524361
_cell_angle_gamma    109.31369871439257

_space_group_name_H-M_alt    "P 1"
_space_group_IT_number       1

loop_
  _space_group_symop_operation_xyz
  'x, y, z'

loop_
  _atom_site_type_symbol
  _atom_site_label
  _atom_site_symmetry_multiplicity
  _atom_site_fract_x
  _atom_site_fract_y
  _atom_site_fract_z
  _atom_site_occupancy
  Fe  Fe1       1.0  0.6388742327690125  0.7756150960922241  0.37933167815208424  1.0000
  I   I1        1.0  0.7246185541152954  0.21519635617733002  0.055748149752616875  1.0000
  O   O1        1.0  0.7372821569442749  0.8990146517753601  0.945223033428192  1.0000
  O   O2        1.0  0.7152256965637207  0.5158514380455017  0.22180424630641934  1.0000
  O   O3        1.0  0.7450207471847534  0.16505640745162964  0.7902895808219909  1.0000
  O   O4        1.0  0.23538832366466522  0.19122642278671265  0.4504468739032745  1.0000
  O   O5        1.0  0.24823905527591705  0.6272090077400208  0.18047080934047696  1.0000
  Re  Re1       1.0  0.22872821986675262  0.3278885781764984  0.12464404851198195  1.0000
  Re  Re2       1.0  0.22846335172653198  0.7614376544952393  0.009684007614850993  1.0000
  Zn  Zn1       1.0  0.22569048404693604  0.9390871524810791  0.5580223202705383  1.0000
