data_image0
_chemical_formula_structural       Bi3O4Re3
_chemical_formula_sum              "Bi3 O4 Re3"
_cell_length_a       4.815807119626778
_cell_length_b       5.465063063789494
_cell_length_c       6.522181510925293
_cell_angle_alpha    106.69376465446702
_cell_angle_beta     89.98139352669877
_cell_angle_gamma    90.09617630260784

_space_group_name_H-M_alt    "P 1"
_space_group_IT_number       1

loop_
  _space_group_symop_operation_xyz
  'x, y, z'

loop_
  _atom_site_type_symbol
  _atom_site_label
  _atom_site_symmetry_multiplicity
  _atom_site_fract_x
  _atom_site_fract_y
  _atom_site_fract_z
  _atom_site_occupancy
  Bi  Bi1       1.0  0.011669924482703209  0.19156800210475922  0.9505870342254639  1.0000
  Bi  Bi2       1.0  0.008244381286203861  0.899481475353241  0.40701019763946533  1.0000
  Bi  Bi3       1.0  0.5077133178710938  0.9780401587486267  0.8349565863609314  1.0000
  O   O1        1.0  0.25126174092292786  0.2502128779888153  0.8188424706459045  1.0000
  O   O2        1.0  0.771986186504364  0.3121214807033539  0.7518689632415771  1.0000
  O   O3        1.0  0.27964019775390625  0.2724193036556244  0.23475989699363708  1.0000
  O   O4        1.0  0.5079132318496704  0.9261611104011536  0.8426138162612915  1.0000
  Re  Re1       1.0  0.5117985606193542  0.9082154035568237  0.0708858594298363  1.0000
  Re  Re2       1.0  0.5090859532356262  0.563251793384552  0.36432763934135437  1.0000
  Re  Re3       1.0  0.5250174403190613  0.30725976824760437  0.6228621602058411  1.0000
