data_image0
_chemical_formula_structural       Bi4O4Re2
_chemical_formula_sum              "Bi4 O4 Re2"
_cell_length_a       5.083905432932805
_cell_length_b       5.348801979445679
_cell_length_c       6.594687461853027
_cell_angle_alpha    114.41561310851652
_cell_angle_beta     108.39035574906669
_cell_angle_gamma    89.87626136267569

_space_group_name_H-M_alt    "P 1"
_space_group_IT_number       1

loop_
  _space_group_symop_operation_xyz
  'x, y, z'

loop_
  _atom_site_type_symbol
  _atom_site_label
  _atom_site_symmetry_multiplicity
  _atom_site_fract_x
  _atom_site_fract_y
  _atom_site_fract_z
  _atom_site_occupancy
  Bi  Bi1       1.0  0.4515085220336914  0.9974984526634216  0.5586556792259216  1.0000
  Bi  Bi2       1.0  0.9521812200546265  0.036042775958776474  0.5796639919281006  1.0000
  Bi  Bi3       1.0  0.44642290472984314  0.0037839210126549006  0.8876864910125732  1.0000
  Bi  Bi4       1.0  0.4516241252422333  0.0737125352025032  0.10927536338567735  1.0000
  O   O1        1.0  0.9519997239112854  0.6517460346221924  0.9374181032180786  1.0000
  O   O2        1.0  0.45548194646835327  0.1473647803068161  0.2819671034812927  1.0000
  O   O3        1.0  0.9532566070556641  0.03663796931505203  0.5555652976036072  1.0000
  O   O4        1.0  0.4508574306964874  0.5100617408752441  0.8131925463676453  1.0000
  Re  Re1       1.0  0.9558039307594299  0.3410397171974182  0.6398457884788513  1.0000
  Re  Re2       1.0  0.45538899302482605  0.1568131297826767  0.643298327922821  1.0000
