data_image0
_chemical_formula_structural       IO2P2Re5
_chemical_formula_sum              "I1 O2 P2 Re5"
_cell_length_a       4.786072523730893
_cell_length_b       5.6969931276531005
_cell_length_c       6.913884162902832
_cell_angle_alpha    94.106119248599
_cell_angle_beta     90.05464709887039
_cell_angle_gamma    91.9755948846115

_space_group_name_H-M_alt    "P 1"
_space_group_IT_number       1

loop_
  _space_group_symop_operation_xyz
  'x, y, z'

loop_
  _atom_site_type_symbol
  _atom_site_label
  _atom_site_symmetry_multiplicity
  _atom_site_fract_x
  _atom_site_fract_y
  _atom_site_fract_z
  _atom_site_occupancy
  I   I1        1.0  0.8313004970550537  0.1174447387456894  0.8188464641571045  1.0000
  O   O1        1.0  0.32693201303482056  0.4770129024982453  0.7663003206253052  1.0000
  O   O2        1.0  0.8208931088447571  0.9609571099281312  0.9191761612892151  1.0000
  P   P1        1.0  0.3508853316307068  0.6886952519416809  0.27909916639328003  1.0000
  P   P2        1.0  0.3448752164840698  0.5198882818222046  0.9943915605545044  1.0000
  Re  Re1       1.0  0.33858630061149597  0.16525216400623322  0.4571640193462372  1.0000
  Re  Re2       1.0  0.8419263362884521  0.7073333263397217  0.15445476770401  1.0000
  Re  Re3       1.0  0.8317336440086365  0.8623076081275941  0.8073781728744507  1.0000
  Re  Re4       1.0  0.8302151560783386  0.59116530418396  0.44179579615592957  1.0000
  Re  Re5       1.0  0.338131308555603  0.19879615306854248  0.09562141448259354  1.0000
