data_image0
_chemical_formula_structural       CsNi2Pt3
_chemical_formula_sum              "Cs1 Ni2 Pt3"
_cell_length_a       5.265589390163415
_cell_length_b       5.399376307954236
_cell_length_c       6.005778789520264
_cell_angle_alpha    117.11241179650072
_cell_angle_beta     116.61725992880046
_cell_angle_gamma    90.62613742184978

_space_group_name_H-M_alt    "P 1"
_space_group_IT_number       1

loop_
  _space_group_symop_operation_xyz
  'x, y, z'

loop_
  _atom_site_type_symbol
  _atom_site_label
  _atom_site_symmetry_multiplicity
  _atom_site_fract_x
  _atom_site_fract_y
  _atom_site_fract_z
  _atom_site_occupancy
  Cs  Cs1       1.0  0.5609685778617859  0.6268436312675476  0.06794837862253196  1.0000
  Ni  Ni1       1.0  0.1985640823841095  0.8843244910240173  0.831475555896759  1.0000
  Ni  Ni2       1.0  0.5313816666603088  0.3856779634952545  0.34422859549522405  1.0000
  Pt  Pt1       1.0  0.8613648414611816  0.3841354250907898  0.8342911601066589  1.0000
  Pt  Pt2       1.0  0.31748130917549133  0.3882267475128174  0.3311206996440888  1.0000
  Pt  Pt3       1.0  0.8656298518180847  0.8897553086280823  0.33691003918647766  1.0000
