data_image0
_chemical_formula_structural       Au2BaPt3
_chemical_formula_sum              "Au2 Ba1 Pt3"
_cell_length_a       5.243005462169186
_cell_length_b       5.121172153277573
_cell_length_c       6.015603542327881
_cell_angle_alpha    118.3623218721348
_cell_angle_beta     119.3152069910696
_cell_angle_gamma    88.56994790301707

_space_group_name_H-M_alt    "P 1"
_space_group_IT_number       1

loop_
  _space_group_symop_operation_xyz
  'x, y, z'

loop_
  _atom_site_type_symbol
  _atom_site_label
  _atom_site_symmetry_multiplicity
  _atom_site_fract_x
  _atom_site_fract_y
  _atom_site_fract_z
  _atom_site_occupancy
  Au  Au1       1.0  0.6295364499092102  0.12245967984199524  0.13392917811870575  1.0000
  Au  Au2       1.0  0.22942310571670532  0.4563739001750946  0.364668309688568  1.0000
  Ba  Ba1       1.0  0.6830939054489136  0.1470755785703659  0.5591922402381897  1.0000
  Pt  Pt1       1.0  0.8910556435585022  0.6482300162315369  0.0911327823996543  1.0000
  Pt  Pt2       1.0  0.2519506514072418  0.4399517774581909  0.1281894147396087  1.0000
  Pt  Pt3       1.0  0.36863991618156433  0.9105350375175476  0.6116582751274108  1.0000
