data_image0
_chemical_formula_structural       AuNiPt3Te
_chemical_formula_sum              "Au1 Ni1 Pt3 Te1"
_cell_length_a       4.988343524340669
_cell_length_b       5.20036754122146
_cell_length_c       5.632482528686523
_cell_angle_alpha    115.49491104679079
_cell_angle_beta     117.5543033487846
_cell_angle_gamma    89.09903028696638

_space_group_name_H-M_alt    "P 1"
_space_group_IT_number       1

loop_
  _space_group_symop_operation_xyz
  'x, y, z'

loop_
  _atom_site_type_symbol
  _atom_site_label
  _atom_site_symmetry_multiplicity
  _atom_site_fract_x
  _atom_site_fract_y
  _atom_site_fract_z
  _atom_site_occupancy
  Au  Au1       1.0  0.4710826277732849  0.8362987637519836  0.7556512355804443  1.0000
  Ni  Ni1       1.0  0.5649942755699158  0.8440147042274475  0.9813816547393799  1.0000
  Pt  Pt1       1.0  0.4813424348831177  0.20366652309894562  0.4875524938106537  1.0000
  Pt  Pt2       1.0  0.8881980776786804  0.32918161153793335  0.6680924892425537  1.0000
  Pt  Pt3       1.0  0.17232348024845123  0.7099637985229492  0.3706388473510742  1.0000
  Te  Te1       1.0  0.9209742546081543  0.48183539509773254  0.006952551193535328  1.0000
