data_image0
_chemical_formula_structural       Au2Pt4
_chemical_formula_sum              "Au2 Pt4"
_cell_length_a       4.172879233149104
_cell_length_b       4.301015896135683
_cell_length_c       7.5386223793029785
_cell_angle_alpha    113.29235895462482
_cell_angle_beta     89.41251127194037
_cell_angle_gamma    89.03929443806474

_space_group_name_H-M_alt    "P 1"
_space_group_IT_number       1

loop_
  _space_group_symop_operation_xyz
  'x, y, z'

loop_
  _atom_site_type_symbol
  _atom_site_label
  _atom_site_symmetry_multiplicity
  _atom_site_fract_x
  _atom_site_fract_y
  _atom_site_fract_z
  _atom_site_occupancy
  Au  Au1       1.0  0.13428311049938202  0.8784513473510742  0.3223629891872406  1.0000
  Au  Au2       1.0  0.6364496946334839  0.7898074388504028  0.18021894991397858  1.0000
  Pt  Pt1       1.0  0.1265154480934143  0.8892146944999695  0.00955592468380928  1.0000
  Pt  Pt2       1.0  0.6447508335113525  0.12472549080848694  0.678290069103241  1.0000
  Pt  Pt3       1.0  0.09789151698350906  0.40974563360214233  0.8281134963035583  1.0000
  Pt  Pt4       1.0  0.6025387048721313  0.7682715058326721  0.8161570429801941  1.0000
