data_image0
_chemical_formula_structural       Au2Pt4
_chemical_formula_sum              "Au2 Pt4"
_cell_length_a       3.684266645338329
_cell_length_b       4.722164274638766
_cell_length_c       6.441173076629639
_cell_angle_alpha    118.0421969903705
_cell_angle_beta     90.35362938147084
_cell_angle_gamma    90.75598101989756

_space_group_name_H-M_alt    "P 1"
_space_group_IT_number       1

loop_
  _space_group_symop_operation_xyz
  'x, y, z'

loop_
  _atom_site_type_symbol
  _atom_site_label
  _atom_site_symmetry_multiplicity
  _atom_site_fract_x
  _atom_site_fract_y
  _atom_site_fract_z
  _atom_site_occupancy
  Au  Au1       1.0  0.16229233145713806  0.5513929724693298  0.7210634946823119  1.0000
  Au  Au2       1.0  0.6628945469856262  0.5797674059867859  0.22399644553661344  1.0000
  Pt  Pt1       1.0  0.15186691284179688  0.1530645340681076  0.22108705341815946  1.0000
  Pt  Pt2       1.0  0.16575618088245392  0.5202353000640869  0.21396407485008237  1.0000
  Pt  Pt3       1.0  0.6547622084617615  0.9590831398963928  0.22081382572650907  1.0000
  Pt  Pt4       1.0  0.659123420715332  0.008429703302681446  0.8118816614151  1.0000
