data_image0
_chemical_formula_structural       Ge5HHoIrPb2Zn2
_chemical_formula_sum              "Ge5 H1 Ho1 Ir1 Pb2 Zn2"
_cell_length_a       5.616575466119937
_cell_length_b       6.697387118528712
_cell_length_c       7.467956066131592
_cell_angle_alpha    110.99660665583791
_cell_angle_beta     89.81946527462367
_cell_angle_gamma    91.27290451966984

_space_group_name_H-M_alt    "P 1"
_space_group_IT_number       1

loop_
  _space_group_symop_operation_xyz
  'x, y, z'

loop_
  _atom_site_type_symbol
  _atom_site_label
  _atom_site_symmetry_multiplicity
  _atom_site_fract_x
  _atom_site_fract_y
  _atom_site_fract_z
  _atom_site_occupancy
  Ge  Ge1       1.0  0.6286941766738892  0.5134363174438477  0.09689631313085555  1.0000
  Ge  Ge2       1.0  0.1304510533809662  0.8530927896499634  0.7080336213111876  1.0000
  Ge  Ge3       1.0  0.628936767578125  0.7459582090377808  0.6037952899932861  1.0000
  Ge  Ge4       1.0  0.1330968290567398  0.597436785697937  0.7015485167503356  1.0000
  Ge  Ge5       1.0  0.13312707841396332  0.26131296157836914  0.016045013442635536  1.0000
  H   H1        1.0  0.6351070404052734  0.5024958848953247  0.38210985064506525  1.0000
  Ho  Ho1       1.0  0.1354338526725769  0.02058371715247631  0.8250470757484435  1.0000
  Ir  Ir1       1.0  0.1329299956560135  0.22215135395526886  0.9765585064887999  1.0000
  Pb  Pb1       1.0  0.6348773241043091  0.04584241285920143  0.4104577600955962  1.0000
  Pb  Pb2       1.0  0.6271232962608337  0.34943196177482605  0.6232702136039734  1.0000
  Zn  Zn1       1.0  0.13216832280158997  0.3420201539993286  0.36055934429168696  1.0000
  Zn  Zn2       1.0  0.13074618577957153  0.2861851453781128  0.1340322196483612  1.0000
