data_image0
_chemical_formula_structural       Ge6H2PbTbZn2
_chemical_formula_sum              "Ge6 H2 Pb1 Tb1 Zn2"
_cell_length_a       6.326141951270547
_cell_length_b       6.146446013066076
_cell_length_c       6.6032586097717285
_cell_angle_alpha    108.45954016200255
_cell_angle_beta     108.29484235165955
_cell_angle_gamma    117.50024145770284

_space_group_name_H-M_alt    "P 1"
_space_group_IT_number       1

loop_
  _space_group_symop_operation_xyz
  'x, y, z'

loop_
  _atom_site_type_symbol
  _atom_site_label
  _atom_site_symmetry_multiplicity
  _atom_site_fract_x
  _atom_site_fract_y
  _atom_site_fract_z
  _atom_site_occupancy
  Ge  Ge1       1.0  0.6511449813842773  0.1355828046798706  0.7398125529289246  1.0000
  Ge  Ge2       1.0  0.16761714220046997  0.5592896342277527  0.8011789917945862  1.0000
  Ge  Ge3       1.0  0.9023306965827942  0.32394689321517944  0.9468632340431213  1.0000
  Ge  Ge4       1.0  0.8276991844177246  0.34789347648620605  0.04814969748258591  1.0000
  Ge  Ge5       1.0  0.9105074405670166  0.30350160598754883  0.025892794132232666  1.0000
  Ge  Ge6       1.0  0.5328760743141174  0.44839587807655334  0.4869012236595154  1.0000
  H   H1        1.0  0.40522274374961853  0.6142535209655762  0.9787623286247253  1.0000
  H   H2        1.0  0.6153226494789124  0.2412957102060318  0.657665491104126  1.0000
  Pb  Pb1       1.0  0.613085925579071  0.14973396062850952  0.5966434478759766  1.0000
  Tb  Tb1       1.0  0.14015594124794006  0.5040367245674133  0.5159314274787903  1.0000
  Zn  Zn1       1.0  0.12992863357067108  0.9627906680107117  0.39653661847114563  1.0000
  Zn  Zn2       1.0  0.1512584239244461  0.19698554277420044  0.5032334923744202  1.0000
