data_image0
_chemical_formula_structural       Ge4IrRh7
_chemical_formula_sum              "Ge4 Ir1 Rh7"
_cell_length_a       7.4981788179155915
_cell_length_b       7.590371306471399
_cell_length_c       7.335329532623291
_cell_angle_alpha    109.48652810668776
_cell_angle_beta     112.2877052190427
_cell_angle_gamma    115.49214962136351

_space_group_name_H-M_alt    "P 1"
_space_group_IT_number       1

loop_
  _space_group_symop_operation_xyz
  'x, y, z'

loop_
  _atom_site_type_symbol
  _atom_site_label
  _atom_site_symmetry_multiplicity
  _atom_site_fract_x
  _atom_site_fract_y
  _atom_site_fract_z
  _atom_site_occupancy
  Ge  Ge1       1.0  0.7934747338294983  0.2151039093732834  0.24850822985172277  1.0000
  Ge  Ge2       1.0  0.8371317386627197  0.3377433121204376  0.3376406133174896  1.0000
  Ge  Ge3       1.0  0.4818582832813263  0.5572481155395508  0.9647565484046935  1.0000
  Ge  Ge4       1.0  0.3171180188655853  0.31666988134384155  0.11417018622159963  1.0000
  Ir  Ir1       1.0  0.23318025469779968  0.16232825815677643  0.20197513699531555  1.0000
  Rh  Rh1       1.0  0.9481744170188904  0.6657382845878601  0.7277403473854066  1.0000
  Rh  Rh2       1.0  0.19008862972259521  0.8420893549919128  0.6870546340942384  1.0000
  Rh  Rh3       1.0  0.36333727836608887  0.5173293948173523  0.20870248973369604  1.0000
  Rh  Rh4       1.0  0.3264611065387726  0.4332786202430725  0.35975313186645513  1.0000
  Rh  Rh5       1.0  0.8365269303321838  0.434653103351593  0.7734907269477844  1.0000
  Rh  Rh6       1.0  0.32215043902397156  0.25257083773612976  0.3383726179599762  1.0000
  Rh  Rh7       1.0  0.8321574330329895  0.42154771089553833  0.7909963726997375  1.0000
