data_image0
_chemical_formula_structural       Ge3HHo4InPPdZr
_chemical_formula_sum              "Ge3 H1 Ho4 In1 P1 Pd1 Zr1"
_cell_length_a       6.2249564248265195
_cell_length_b       7.033566329434418
_cell_length_c       7.44306755065918
_cell_angle_alpha    123.90059371429643
_cell_angle_beta     89.46279193309003
_cell_angle_gamma    90.6130159582229

_space_group_name_H-M_alt    "P 1"
_space_group_IT_number       1

loop_
  _space_group_symop_operation_xyz
  'x, y, z'

loop_
  _atom_site_type_symbol
  _atom_site_label
  _atom_site_symmetry_multiplicity
  _atom_site_fract_x
  _atom_site_fract_y
  _atom_site_fract_z
  _atom_site_occupancy
  Ge  Ge1       1.0  0.9758033752441405  0.6904007196426392  0.26350963115692133  1.0000
  Ge  Ge2       1.0  0.9725235104560851  0.8467811942100526  0.8486524224281311  1.0000
  Ge  Ge3       1.0  0.44824397563934326  0.39198473095893865  0.8258392810821533  1.0000
  H   H1        1.0  0.950830042362213  0.2135395258665085  0.5907382369041443  1.0000
  Ho  Ho1       1.0  0.24210950732231137  0.5784068703651428  0.09932337701320648  1.0000
  Ho  Ho2       1.0  0.6771049499511719  0.7129926681518556  0.5426325798034668  1.0000
  Ho  Ho3       1.0  0.45793443918228144  0.41730394959449774  0.8910614252090454  1.0000
  Ho  Ho4       1.0  0.9854778647422789  0.6111653447151184  0.3294340968132019  1.0000
  In  In1       1.0  0.5417641997337341  0.900994896888733  0.069559246301651  1.0000
  P   P1        1.0  0.44788920879364014  0.8630576133728028  0.2622580826282501  1.0000
  Pd  Pd1       1.0  0.9744093418121337  0.4505589604377747  0.99647456407547  1.0000
  Zr  Zr1       1.0  0.48019099235534674  0.7069569230079652  0.747395932674408  1.0000
