data_image0
_chemical_formula_structural       Ge6Rh5S
_chemical_formula_sum              "Ge6 Rh5 S1"
_cell_length_a       5.220896520914441
_cell_length_b       5.865496711246237
_cell_length_c       6.007573127746582
_cell_angle_alpha    117.27349350984531
_cell_angle_beta     98.43507598848863
_cell_angle_gamma    101.83359835251052

_space_group_name_H-M_alt    "P 1"
_space_group_IT_number       1

loop_
  _space_group_symop_operation_xyz
  'x, y, z'

loop_
  _atom_site_type_symbol
  _atom_site_label
  _atom_site_symmetry_multiplicity
  _atom_site_fract_x
  _atom_site_fract_y
  _atom_site_fract_z
  _atom_site_occupancy
  Ge  Ge1       1.0  0.8607077598571777  0.16140255331993103  0.4498591721057892  1.0000
  Ge  Ge2       1.0  0.3605911433696747  0.7899344563484192  0.8821605443954468  1.0000
  Ge  Ge3       1.0  0.864227831363678  0.9827014207839966  0.1614234447479249  1.0000
  Ge  Ge4       1.0  0.3574371933937073  0.7583345174789429  0.26499029994010925  1.0000
  Ge  Ge5       1.0  0.8777927160263062  0.7516345381736755  0.014811782166361809  1.0000
  Ge  Ge6       1.0  0.6098375916481018  0.6314699649810791  0.3179614245891571  1.0000
  Rh  Rh1       1.0  0.10998521745204926  0.7811163067817688  0.5876749157905579  1.0000
  Rh  Rh2       1.0  0.8635998964309692  0.02619892917573452  0.4267771542072296  1.0000
  Rh  Rh3       1.0  0.3602685034275055  0.0504331961274147  0.7438471913337708  1.0000
  Rh  Rh4       1.0  0.594770610332489  0.10159792751073837  0.7377759218215942  1.0000
  Rh  Rh5       1.0  0.863315999507904  0.35256972908973694  0.7686994671821594  1.0000
  S   S1        1.0  0.35964250564575195  0.7274793386459351  0.899555504322052  1.0000
