data_image0
_chemical_formula_structural       CoGe4HHo4P2
_chemical_formula_sum              "Co1 Ge4 H1 Ho4 P2"
_cell_length_a       5.56005156951767
_cell_length_b       6.1954952213480246
_cell_length_c       6.6350274085998535
_cell_angle_alpha    69.06648615071683
_cell_angle_beta     68.74287741195157
_cell_angle_gamma    70.37839787699792

_space_group_name_H-M_alt    "P 1"
_space_group_IT_number       1

loop_
  _space_group_symop_operation_xyz
  'x, y, z'

loop_
  _atom_site_type_symbol
  _atom_site_label
  _atom_site_symmetry_multiplicity
  _atom_site_fract_x
  _atom_site_fract_y
  _atom_site_fract_z
  _atom_site_occupancy
  Co  Co1       1.0  0.2761434018611908  0.7585681080818176  0.19449184834957123  1.0000
  Ge  Ge1       1.0  0.23865456879138947  0.6422716975212097  0.863624632358551  1.0000
  Ge  Ge2       1.0  0.6917524933815002  0.39994359016418457  0.3052281439304352  1.0000
  Ge  Ge3       1.0  0.9858277440071106  0.7939866781234741  0.9441454410552979  1.0000
  Ge  Ge4       1.0  0.024189896881580353  0.6795732975006104  0.18877729773521426  1.0000
  H   H1        1.0  0.5167439579963684  0.6104803681373596  0.5464119911193848  1.0000
  Ho  Ho1       1.0  0.2736355662345886  0.7327492237091064  0.7142893671989441  1.0000
  Ho  Ho2       1.0  0.02889738790690899  0.7337608933448792  0.21333740651607513  1.0000
  Ho  Ho3       1.0  0.9283665418624878  0.6076160073280334  0.07751987874507904  1.0000
  Ho  Ho4       1.0  0.4932114779949188  0.9525718688964844  0.9034435749053955  1.0000
  P   P1        1.0  0.277860552072525  0.4205774962902069  0.20822006464004517  1.0000
  P   P2        1.0  0.7070679068565369  0.0343649722635746  0.327046662569046  1.0000
