data_image0
_chemical_formula_structural       HHf3KSb
_chemical_formula_sum              "H1 Hf3 K1 Sb1"
_cell_length_a       5.637887297948068
_cell_length_b       5.697471489097942
_cell_length_c       7.586811542510986
_cell_angle_alpha    90.88650927517708
_cell_angle_beta     90.36401649049753
_cell_angle_gamma    101.74809132796926

_space_group_name_H-M_alt    "P 1"
_space_group_IT_number       1

loop_
  _space_group_symop_operation_xyz
  'x, y, z'

loop_
  _atom_site_type_symbol
  _atom_site_label
  _atom_site_symmetry_multiplicity
  _atom_site_fract_x
  _atom_site_fract_y
  _atom_site_fract_z
  _atom_site_occupancy
  H   H1        1.0  0.19417668879032135  0.6501960158348083  0.1284482330083847  1.0000
  Hf  Hf1       1.0  0.20061177015304565  0.1363370716571808  0.6394251585006714  1.0000
  Hf  Hf2       1.0  0.6993377804756165  0.9509044885635376  0.618798553943634  1.0000
  Hf  Hf3       1.0  0.6914576888084412  0.37800484895706177  0.9680134057998657  1.0000
  K   K1        1.0  0.20104989409446716  0.19330625236034393  0.037854328751564026  1.0000
  Sb  Sb1       1.0  0.19839301705360413  0.8122247457504272  0.5728092193603516  1.0000
