data_image0
_chemical_formula_structural       CaHfKPbScZr
_chemical_formula_sum              "Ca1 Hf1 K1 Pb1 Sc1 Zr1"
_cell_length_a       4.994937590922141
_cell_length_b       5.815581436116835
_cell_length_c       6.853869438171387
_cell_angle_alpha    118.58169861258776
_cell_angle_beta     90.45366265074507
_cell_angle_gamma    89.02615696661267

_space_group_name_H-M_alt    "P 1"
_space_group_IT_number       1

loop_
  _space_group_symop_operation_xyz
  'x, y, z'

loop_
  _atom_site_type_symbol
  _atom_site_label
  _atom_site_symmetry_multiplicity
  _atom_site_fract_x
  _atom_site_fract_y
  _atom_site_fract_z
  _atom_site_occupancy
  Ca  Ca1       1.0  0.6388823986053467  0.009691945277154446  0.691170334815979  1.0000
  Hf  Hf1       1.0  0.1362752616405487  0.5206026434898376  0.1803304851055145  1.0000
  K   K1        1.0  0.14831291139125824  0.8788473606109619  0.34061890840530396  1.0000
  Pb  Pb1       1.0  0.6298863887786865  0.3113350570201874  0.6344754695892334  1.0000
  Sc  Sc1       1.0  0.14306099712848663  0.938679039478302  0.4583393931388854  1.0000
  Zr  Zr1       1.0  0.6793156862258911  0.7026256322860718  0.32129573822021484  1.0000
