data_image0
_chemical_formula_structural       Hf2K3Ni
_chemical_formula_sum              "Hf2 K3 Ni1"
_cell_length_a       6.417296965968351
_cell_length_b       6.99124284880945
_cell_length_c       8.13879680633545
_cell_angle_alpha    116.50255234612226
_cell_angle_beta     89.52825244412195
_cell_angle_gamma    96.68282224961227

_space_group_name_H-M_alt    "P 1"
_space_group_IT_number       1

loop_
  _space_group_symop_operation_xyz
  'x, y, z'

loop_
  _atom_site_type_symbol
  _atom_site_label
  _atom_site_symmetry_multiplicity
  _atom_site_fract_x
  _atom_site_fract_y
  _atom_site_fract_z
  _atom_site_occupancy
  Hf  Hf1       1.0  0.7823658585548401  0.11637084931135178  0.6431849002838135  1.0000
  Hf  Hf2       1.0  0.2791661024093628  0.3455173075199127  0.8804230093955994  1.0000
  K   K1        1.0  0.7841296195983887  0.6659538149833679  0.08305802941322327  1.0000
  K   K2        1.0  0.28318190574645996  0.9987323880195619  0.11786644905805593  1.0000
  K   K3        1.0  0.2822411358356476  0.8282621502876282  0.14459176361560822  1.0000
  Ni  Ni1       1.0  0.7827200889587402  0.10982870310544968  0.8640684485435486  1.0000
