data_image0
_chemical_formula_structural       K6
_chemical_formula_sum              "K6"
_cell_length_a       5.895622518498506
_cell_length_b       4.661067169270907
_cell_length_c       8.741329193115234
_cell_angle_alpha    95.40437836885782
_cell_angle_beta     89.36615864527485
_cell_angle_gamma    131.7708184135141

_space_group_name_H-M_alt    "P 1"
_space_group_IT_number       1

loop_
  _space_group_symop_operation_xyz
  'x, y, z'

loop_
  _atom_site_type_symbol
  _atom_site_label
  _atom_site_symmetry_multiplicity
  _atom_site_fract_x
  _atom_site_fract_y
  _atom_site_fract_z
  _atom_site_occupancy
  K   K1        1.0  0.09370660781860343  0.8380760550498961  0.518777072429657  1.0000
  K   K2        1.0  0.34016063809394825  0.8767169713973998  0.18073546886444092  1.0000
  K   K3        1.0  0.6135617494583129  0.985134184360504  0.9236657023429871  1.0000
  K   K4        1.0  0.05976403877139084  0.9568085074424743  0.94356769323349  1.0000
  K   K5        1.0  0.8079994916915892  0.7533309459686278  0.00623255362734198  1.0000
  K   K6        1.0  0.5632970333099365  0.5356085300445557  0.041766613721847534  1.0000
