data_image0
_chemical_formula_structural       AlS4V4
_chemical_formula_sum              "Al1 S4 V4"
_cell_length_a       4.1396450216664755
_cell_length_b       5.873575142674091
_cell_length_c       6.482545852661133
_cell_angle_alpha    118.38380024163028
_cell_angle_beta     86.82464105248985
_cell_angle_gamma    88.81930639693071

_space_group_name_H-M_alt    "P 1"
_space_group_IT_number       1

loop_
  _space_group_symop_operation_xyz
  'x, y, z'

loop_
  _atom_site_type_symbol
  _atom_site_label
  _atom_site_symmetry_multiplicity
  _atom_site_fract_x
  _atom_site_fract_y
  _atom_site_fract_z
  _atom_site_occupancy
  Al  Al1       1.0  0.4234826862812042  0.7035927176475525  0.22076474130153656  1.0000
  S   S1        1.0  0.423715740442276  0.40804344415664673  0.48545047640800476  1.0000
  S   S2        1.0  0.922170102596283  0.36131107807159424  0.960379958152771  1.0000
  S   S3        1.0  0.9340681433677673  0.9145617485046387  0.23908832669258118  1.0000
  S   S4        1.0  0.41138574481010437  0.903980553150177  0.009329212829470634  1.0000
  V   V1        1.0  0.41872647404670715  0.9485495686531067  0.7585248947143555  1.0000
  V   V2        1.0  0.9131129384040833  0.4071365296840668  0.45007941126823425  1.0000
  V   V3        1.0  0.41989225149154663  0.908270537853241  0.29575926065444946  1.0000
  V   V4        1.0  0.906125009059906  0.7215818762779236  0.10870209336280823  1.0000
