data_image0
_chemical_formula_structural       Al2NiS4V2
_chemical_formula_sum              "Al2 Ni1 S4 V2"
_cell_length_a       4.293192931295303
_cell_length_b       6.594129809517406
_cell_length_c       6.872633457183838
_cell_angle_alpha    119.14891925754213
_cell_angle_beta     101.21464551582163
_cell_angle_gamma    83.73697946218957

_space_group_name_H-M_alt    "P 1"
_space_group_IT_number       1

loop_
  _space_group_symop_operation_xyz
  'x, y, z'

loop_
  _atom_site_type_symbol
  _atom_site_label
  _atom_site_symmetry_multiplicity
  _atom_site_fract_x
  _atom_site_fract_y
  _atom_site_fract_z
  _atom_site_occupancy
  Al  Al1       1.0  0.23678642511367798  0.39093950390815735  0.017153998836874962  1.0000
  Al  Al2       1.0  0.2481737732887268  0.19034281373023987  0.9284924864768982  1.0000
  Ni  Ni1       1.0  0.9635434746742249  0.4648149311542511  0.03167254850268364  1.0000
  S   S1        1.0  0.7000541090965271  0.47818946838378906  0.5839971899986267  1.0000
  S   S2        1.0  0.473982572555542  0.9125789999961853  0.4815027415752411  1.0000
  S   S3        1.0  0.4751273989677429  0.17828474938869476  0.6540673971176147  1.0000
  S   S4        1.0  0.0025412740651518106  0.8265772461891174  0.8040052652359009  1.0000
  V   V1        1.0  0.004811049439013004  0.13517224788665771  0.5665180683135986  1.0000
  V   V2        1.0  0.45360398292541504  0.8694878220558167  0.16862107813358307  1.0000
