data_image0
_chemical_formula_structural       Al2S4V3
_chemical_formula_sum              "Al2 S4 V3"
_cell_length_a       4.087343665539711
_cell_length_b       6.304524932157739
_cell_length_c       6.596350193023682
_cell_angle_alpha    117.5239171344518
_cell_angle_beta     86.6828176000551
_cell_angle_gamma    89.44747386281342

_space_group_name_H-M_alt    "P 1"
_space_group_IT_number       1

loop_
  _space_group_symop_operation_xyz
  'x, y, z'

loop_
  _atom_site_type_symbol
  _atom_site_label
  _atom_site_symmetry_multiplicity
  _atom_site_fract_x
  _atom_site_fract_y
  _atom_site_fract_z
  _atom_site_occupancy
  Al  Al1       1.0  0.5510961413383484  0.9533482789993286  0.18972539901733398  1.0000
  Al  Al2       1.0  0.29665836691856384  0.2623317241668701  0.31279104948043823  1.0000
  S   S1        1.0  0.3035297691822052  0.2569546699523926  0.549717128276825  1.0000
  S   S2        1.0  0.8126454949378967  0.9061154723167419  0.33843013644218445  1.0000
  S   S3        1.0  0.3041577935218811  0.4458654522895813  0.06681982427835464  1.0000
  S   S4        1.0  0.8001177906990051  0.9714252352714539  0.8379844427108765  1.0000
  V   V1        1.0  0.8004589080810547  0.42396634817123413  0.5148429870605469  1.0000
  V   V2        1.0  0.29695960879325867  0.9413433074951172  0.11857262253761298  1.0000
  V   V3        1.0  0.2962702512741089  0.7063879370689392  0.44035619497299194  1.0000
