data_image0
_chemical_formula_structural       Fe4Y2
_chemical_formula_sum              "Fe4 Y2"
_cell_length_a       4.121914827147209
_cell_length_b       5.5634001282983245
_cell_length_c       5.5435028076171875
_cell_angle_alpha    78.22688210672324
_cell_angle_beta     68.0400110939353
_cell_angle_gamma    67.99651058964146

_space_group_name_H-M_alt    "P 1"
_space_group_IT_number       1

loop_
  _space_group_symop_operation_xyz
  'x, y, z'

loop_
  _atom_site_type_symbol
  _atom_site_label
  _atom_site_symmetry_multiplicity
  _atom_site_fract_x
  _atom_site_fract_y
  _atom_site_fract_z
  _atom_site_occupancy
  Fe  Fe1       1.0  0.4135429263114929  0.5246232748031616  0.29018622636795044  1.0000
  Fe  Fe2       1.0  0.5244091153144836  0.7596062421798706  0.867125391960144  1.0000
  Fe  Fe3       1.0  0.9111917018890381  0.35361072421073914  0.46963250637054443  1.0000
  Fe  Fe4       1.0  0.005042433738708496  0.9315739274024963  0.7073187828063965  1.0000
  Y   Y1        1.0  0.2152256965637207  0.3559476137161255  0.8754531741142273  1.0000
  Y   Y2        1.0  0.7063391208648682  0.9351862072944641  0.304630160331726  1.0000
