data_image0
_chemical_formula_structural       Fe4Y2
_chemical_formula_sum              "Fe4 Y2"
_cell_length_a       4.078015330901095
_cell_length_b       5.441651070429751
_cell_length_c       5.424288272857666
_cell_angle_alpha    80.5420434807509
_cell_angle_beta     68.16950166411375
_cell_angle_gamma    68.54497437390042

_space_group_name_H-M_alt    "P 1"
_space_group_IT_number       1

loop_
  _space_group_symop_operation_xyz
  'x, y, z'

loop_
  _atom_site_type_symbol
  _atom_site_label
  _atom_site_symmetry_multiplicity
  _atom_site_fract_x
  _atom_site_fract_y
  _atom_site_fract_z
  _atom_site_occupancy
  Fe  Fe1       1.0  0.1260734349489212  0.049193792045116425  0.6347211599349976  1.0000
  Fe  Fe2       1.0  0.4904949963092804  0.6529538631439209  0.24047866463661194  1.0000
  Fe  Fe3       1.0  0.6278200149536133  0.8623241186141968  0.7931838631629944  1.0000
  Fe  Fe4       1.0  0.013271201401948929  0.46661102771759033  0.3877621591091156  1.0000
  Y   Y1        1.0  0.8063451647758484  0.05067383497953415  0.23414863646030426  1.0000
  Y   Y2        1.0  0.31448793411254883  0.4688478410243988  0.7969633936882019  1.0000
