data_image0
_chemical_formula_structural       BiErFe2GeY
_chemical_formula_sum              "Bi1 Er1 Fe2 Ge1 Y1"
_cell_length_a       4.35511125797467
_cell_length_b       4.383460084667943
_cell_length_c       7.931981563568115
_cell_angle_alpha    74.34702621327328
_cell_angle_beta     74.01469623506996
_cell_angle_gamma    60.26505689749999

_space_group_name_H-M_alt    "P 1"
_space_group_IT_number       1

loop_
  _space_group_symop_operation_xyz
  'x, y, z'

loop_
  _atom_site_type_symbol
  _atom_site_label
  _atom_site_symmetry_multiplicity
  _atom_site_fract_x
  _atom_site_fract_y
  _atom_site_fract_z
  _atom_site_occupancy
  Bi  Bi1       1.0  0.9913330674171448  0.7013593912124634  0.32652804255485535  1.0000
  Er  Er1       1.0  0.7537463307380676  0.4650440812110901  0.030758650973439203  1.0000
  Fe  Fe1       1.0  0.6038429737091064  0.32104137539863586  0.4761157035827636  1.0000
  Fe  Fe2       1.0  0.366752564907074  0.07377615571022034  0.1921682357788086  1.0000
  Ge  Ge1       1.0  0.4813010096549988  0.20102520287036896  0.8349711298942565  1.0000
  Y   Y1        1.0  0.22359369695186615  0.9295963048934937  0.63105309009552  1.0000
