data_image0
_chemical_formula_structural       IMoSeSi4U3
_chemical_formula_sum              "I1 Mo1 Se1 Si4 U3"
_cell_length_a       5.191306577369908
_cell_length_b       3.4900261949867097
_cell_length_c       7.37094783782959
_cell_angle_alpha    100.93912849901032
_cell_angle_beta     91.91950253974026
_cell_angle_gamma    162.14207170545464

_space_group_name_H-M_alt    "P 1"
_space_group_IT_number       1

loop_
  _space_group_symop_operation_xyz
  'x, y, z'

loop_
  _atom_site_type_symbol
  _atom_site_label
  _atom_site_symmetry_multiplicity
  _atom_site_fract_x
  _atom_site_fract_y
  _atom_site_fract_z
  _atom_site_occupancy
  I   I1        1.0  0.7808971405029299  0.01618530228734038  0.5353224873542786  1.0000
  Mo  Mo1       1.0  0.22529347240924824  0.036909569054841794  0.5366578102111816  1.0000
  Se  Se1       1.0  0.2270125150680542  0.995383083820343  0.24458888173103333  1.0000
  Si  Si1       1.0  0.7461088895797726  0.49406775832176164  0.7554008960723877  1.0000
  Si  Si2       1.0  0.29301398992538463  0.8803060650825502  0.4561198055744171  1.0000
  Si  Si3       1.0  0.5892226099967958  0.880193054676056  0.4643668830394745  1.0000
  Si  Si4       1.0  0.5838658809661864  0.7185887694358825  0.4753507971763611  1.0000
  U   U1        1.0  0.1282996684312826  0.5500922799110421  0.7987912893295289  1.0000
  U   U2        1.0  0.26935741305351263  0.12324652820825584  0.872080385684967  1.0000
  U   U3        1.0  0.7667734622955322  0.5103114247322083  0.7314999103546143  1.0000
