data_image0
_chemical_formula_structural       CoGaMo3PtSi2U2
_chemical_formula_sum              "Co1 Ga1 Mo3 Pt1 Si2 U2"
_cell_length_a       4.7940794634449695
_cell_length_b       4.90870711677975
_cell_length_c       9.758123397827148
_cell_angle_alpha    90.0196104998326
_cell_angle_beta     90.21124754028875
_cell_angle_gamma    107.71343600537628

_space_group_name_H-M_alt    "P 1"
_space_group_IT_number       1

loop_
  _space_group_symop_operation_xyz
  'x, y, z'

loop_
  _atom_site_type_symbol
  _atom_site_label
  _atom_site_symmetry_multiplicity
  _atom_site_fract_x
  _atom_site_fract_y
  _atom_site_fract_z
  _atom_site_occupancy
  Co  Co1       1.0  0.17097055912017822  0.5274292230606079  0.26298558712005615  1.0000
  Ga  Ga1       1.0  0.9052540063858032  0.9875136017799377  0.03731051832437515  1.0000
  Mo  Mo1       1.0  0.8866020441055298  0.7398214936256409  0.12323340028524399  1.0000
  Mo  Mo2       1.0  0.45737332105636597  0.6405501961708069  0.40421369671821594  1.0000
  Mo  Mo3       1.0  0.8873843550682068  0.45363137125968933  0.6945195198059082  1.0000
  Pt  Pt1       1.0  0.4485906958580017  0.5918000936508179  0.4797271490097046  1.0000
  Si  Si1       1.0  0.47962826490402216  0.5095622539520264  0.6332113146781921  1.0000
  Si  Si2       1.0  0.39497697353363037  0.8081592917442322  0.73919677734375  1.0000
  U   U1        1.0  0.21471042931079865  0.11527379602193832  0.20423796772956848  1.0000
  U   U2        1.0  0.9622259736061095  0.8023119568824768  0.33518561720848083  1.0000
