data_image0
_chemical_formula_structural       Mo3Si3U4
_chemical_formula_sum              "Mo3 Si3 U4"
_cell_length_a       5.553255874001031
_cell_length_b       5.6879645410997375
_cell_length_c       5.729635715484619
_cell_angle_alpha    116.95204497108725
_cell_angle_beta     104.00898673904939
_cell_angle_gamma    107.14731473029909

_space_group_name_H-M_alt    "P 1"
_space_group_IT_number       1

loop_
  _space_group_symop_operation_xyz
  'x, y, z'

loop_
  _atom_site_type_symbol
  _atom_site_label
  _atom_site_symmetry_multiplicity
  _atom_site_fract_x
  _atom_site_fract_y
  _atom_site_fract_z
  _atom_site_occupancy
  Mo  Mo1       1.0  0.4494844973087311  0.45882460474967957  0.6394957900047302  1.0000
  Mo  Mo2       1.0  0.2092040330171585  0.19424451887607574  0.8668723106384277  1.0000
  Mo  Mo3       1.0  0.6914995908737183  0.5438531041145325  0.753745436668396  1.0000
  Si  Si1       1.0  0.2551478445529938  0.44995710253715515  0.4403211176395416  1.0000
  Si  Si2       1.0  0.19611819088459015  0.0257994644343853  0.5668431520462036  1.0000
  Si  Si3       1.0  0.7004084587097168  0.8671795129776001  0.5252969264984132  1.0000
  U   U1        1.0  0.16299158334732056  0.17898163199424744  0.4391056001186371  1.0000
  U   U2        1.0  0.7616395950317383  0.325348436832428  0.42466920614242554  1.0000
  U   U3        1.0  0.8914468884468079  0.9044855833053589  0.8118332028388977  1.0000
  U   U4        1.0  0.8817471861839294  0.8870145678520203  0.550957977771759  1.0000
