data_image0
_chemical_formula_structural       Mo6Si4
_chemical_formula_sum              "Mo6 Si4"
_cell_length_a       4.535190045744356
_cell_length_b       6.368929676002513
_cell_length_c       5.760571479797363
_cell_angle_alpha    124.91801085910772
_cell_angle_beta     90.58919192475675
_cell_angle_gamma    90.80592582992615

_space_group_name_H-M_alt    "P 1"
_space_group_IT_number       1

loop_
  _space_group_symop_operation_xyz
  'x, y, z'

loop_
  _atom_site_type_symbol
  _atom_site_label
  _atom_site_symmetry_multiplicity
  _atom_site_fract_x
  _atom_site_fract_y
  _atom_site_fract_z
  _atom_site_occupancy
  Mo  Mo1       1.0  0.9985496401786804  0.7564055919647217  0.9452009797096252  1.0000
  Mo  Mo2       1.0  0.009417060762643814  0.4364197254180908  0.3051365911960602  1.0000
  Mo  Mo3       1.0  0.4763753414154053  0.18911446630954742  0.8041765093803406  1.0000
  Mo  Mo4       1.0  0.501588761806488  0.8775524497032166  0.10356530547142029  1.0000
  Mo  Mo5       1.0  0.008692210540175438  0.17402997612953186  0.34709402918815613  1.0000
  Mo  Mo6       1.0  0.5086754560470581  0.8145220875740051  0.179432675242424  1.0000
  Si  Si1       1.0  0.9979666471481323  0.7538483142852783  0.5578112602233887  1.0000
  Si  Si2       1.0  0.4881386160850525  0.4531436860561371  0.8271395564079285  1.0000
  Si  Si3       1.0  0.001964464783668518  0.5069444179534912  0.03186033293604851  1.0000
  Si  Si4       1.0  0.002277836436405778  0.20469696819782257  0.15939705073833466  1.0000
