data_image0
_chemical_formula_structural       Si2U7Zn
_chemical_formula_sum              "Si2 U7 Zn1"
_cell_length_a       5.0446627925528675
_cell_length_b       5.458603436987777
_cell_length_c       6.473160743713379
_cell_angle_alpha    91.6902013021371
_cell_angle_beta     91.24004187301054
_cell_angle_gamma    116.7275306845177

_space_group_name_H-M_alt    "P 1"
_space_group_IT_number       1

loop_
  _space_group_symop_operation_xyz
  'x, y, z'

loop_
  _atom_site_type_symbol
  _atom_site_label
  _atom_site_symmetry_multiplicity
  _atom_site_fract_x
  _atom_site_fract_y
  _atom_site_fract_z
  _atom_site_occupancy
  Si  Si1       1.0  0.23060332238674164  0.06631486862897873  0.8112197518348694  1.0000
  Si  Si2       1.0  0.1065000519156456  0.2665022611618042  0.6744701862335205  1.0000
  U   U1        1.0  0.7706782817840576  0.8298226594924927  0.1674463152885437  1.0000
  U   U2        1.0  0.7661782503128052  0.8709396719932556  0.08521029353141785  1.0000
  U   U3        1.0  0.28862473368644714  0.17940253019332886  0.262451708316803  1.0000
  U   U4        1.0  0.23444285988807678  0.9940512180328369  0.362089604139328  1.0000
  U   U5        1.0  0.2261093109846115  0.11570712924003601  0.6498345732688904  1.0000
  U   U6        1.0  0.2877088189125061  0.9817391633987427  0.3864082396030426  1.0000
  U   U7        1.0  0.7423783540725708  0.5116798877716064  0.33750003576278687  1.0000
  Zn  Zn1       1.0  0.7362001538276672  0.9788947105407715  0.3953024744987488  1.0000
