data_image0
_chemical_formula_structural       GeMo2Si4U3
_chemical_formula_sum              "Ge1 Mo2 Si4 U3"
_cell_length_a       5.9668521749473316
_cell_length_b       6.139450300013859
_cell_length_c       7.8742499351501465
_cell_angle_alpha    110.6847159415071
_cell_angle_beta     98.68380304111022
_cell_angle_gamma    105.90112315782677

_space_group_name_H-M_alt    "P 1"
_space_group_IT_number       1

loop_
  _space_group_symop_operation_xyz
  'x, y, z'

loop_
  _atom_site_type_symbol
  _atom_site_label
  _atom_site_symmetry_multiplicity
  _atom_site_fract_x
  _atom_site_fract_y
  _atom_site_fract_z
  _atom_site_occupancy
  Ge  Ge1       1.0  0.014428067952394487  0.399066686630249  0.4677050113677978  1.0000
  Mo  Mo1       1.0  0.5160523056983948  0.8756887316703797  0.17750488221645355  1.0000
  Mo  Mo2       1.0  0.014367888681590559  0.009272696450352669  0.36711007356643677  1.0000
  Si  Si1       1.0  0.5175987482070923  0.48565578460693365  0.7179349660873413  1.0000
  Si  Si2       1.0  0.01653505675494671  0.7530465722084045  0.6717827320098877  1.0000
  Si  Si3       1.0  0.5342918634414673  0.9754516482353212  0.7269381880760193  1.0000
  Si  Si4       1.0  0.5131261944770813  0.4524721503257752  0.5628292560577393  1.0000
  U   U1        1.0  0.014297201298177261  0.4398640990257264  0.6311488747596741  1.0000
  U   U2        1.0  0.014602947048842909  0.3099434971809387  0.7976774573326111  1.0000
  U   U3        1.0  0.515207052230835  0.36167967319488525  0.8215940594673156  1.0000
