data_image0
_chemical_formula_structural       Na4Ni4O2
_chemical_formula_sum              "Na4 Ni4 O2"
_cell_length_a       4.507571450409933
_cell_length_b       4.486410167253461
_cell_length_c       6.296708106994629
_cell_angle_alpha    73.6597587038351
_cell_angle_beta     69.45405161230788
_cell_angle_gamma    57.45994349475899

_space_group_name_H-M_alt    "P 1"
_space_group_IT_number       1

loop_
  _space_group_symop_operation_xyz
  'x, y, z'

loop_
  _atom_site_type_symbol
  _atom_site_label
  _atom_site_symmetry_multiplicity
  _atom_site_fract_x
  _atom_site_fract_y
  _atom_site_fract_z
  _atom_site_occupancy
  Na  Na1       1.0  0.041697233915329035  0.855554699897766  0.07318877428770065  1.0000
  Na  Na2       1.0  0.5320686101913452  0.5549410581588745  0.6418694853782654  1.0000
  Na  Na3       1.0  0.9584908485412598  0.43116003274917597  0.5096827745437622  1.0000
  Na  Na4       1.0  0.04144664853811264  0.1911938637495041  0.29413679242134094  1.0000
  Ni  Ni1       1.0  0.5374731421470642  0.6569082736968994  0.5154044032096863  1.0000
  Ni  Ni2       1.0  0.03754169121384621  0.17059111595153809  0.6873541474342346  1.0000
  Ni  Ni3       1.0  0.5175970792770386  0.8133600950241088  0.5459315776824951  1.0000
  Ni  Ni4       1.0  0.5302653312683105  0.2674059569835663  0.3377220332622528  1.0000
  O   O1        1.0  0.012779415585100705  0.9279296398162841  0.18409208953380585  1.0000
  O   O2        1.0  0.544100284576416  0.18007686734199524  0.37538909912109375  1.0000
