data_image0
_chemical_formula_structural       Na4Ni3O3
_chemical_formula_sum              "Na4 Ni3 O3"
_cell_length_a       4.7327463156237535
_cell_length_b       4.172214305206213
_cell_length_c       7.139761447906494
_cell_angle_alpha    82.05967226666378
_cell_angle_beta     72.80280650519781
_cell_angle_gamma    56.74760659603361

_space_group_name_H-M_alt    "P 1"
_space_group_IT_number       1

loop_
  _space_group_symop_operation_xyz
  'x, y, z'

loop_
  _atom_site_type_symbol
  _atom_site_label
  _atom_site_symmetry_multiplicity
  _atom_site_fract_x
  _atom_site_fract_y
  _atom_site_fract_z
  _atom_site_occupancy
  Na  Na1       1.0  0.3532988429069519  0.1833549439907074  0.6713594198226929  1.0000
  Na  Na2       1.0  0.3548034727573395  0.1609175205230713  0.05496324971318245  1.0000
  Na  Na3       1.0  0.34728795289993286  0.660337507724762  0.8290963172912598  1.0000
  Na  Na4       1.0  0.8557925820350647  0.5545603036880493  0.11997521668672562  1.0000
  Ni  Ni1       1.0  0.8179681301116943  0.6472554802894592  0.4036811292171478  1.0000
  Ni  Ni2       1.0  0.330771952867508  0.4947257041931152  0.8395485281944275  1.0000
  Ni  Ni3       1.0  0.944145917892456  0.5481571555137634  0.04050462692975998  1.0000
  O   O1        1.0  0.6532385349273682  0.801706075668335  0.7938416004180908  1.0000
  O   O2        1.0  0.6325767040252686  0.7528848052024841  0.02494684047996998  1.0000
  O   O3        1.0  0.10250586271286011  0.5389943718910217  0.6033053398132324  1.0000
