data_image0
_chemical_formula_structural       InNNd2Pd4PrSTi
_chemical_formula_sum              "In1 N1 Nd2 Pd4 Pr1 S1 Ti1"
_cell_length_a       4.159053379736289
_cell_length_b       7.398620996889145
_cell_length_c       7.827218055725098
_cell_angle_alpha    99.79877301973262
_cell_angle_beta     89.99076000735482
_cell_angle_gamma    89.62017793897188

_space_group_name_H-M_alt    "P 1"
_space_group_IT_number       1

loop_
  _space_group_symop_operation_xyz
  'x, y, z'

loop_
  _atom_site_type_symbol
  _atom_site_label
  _atom_site_symmetry_multiplicity
  _atom_site_fract_x
  _atom_site_fract_y
  _atom_site_fract_z
  _atom_site_occupancy
  In  In1       1.0  0.599012017250061  0.17890386283397675  0.29738500714302063  1.0000
  N   N1        1.0  0.5927209854125977  0.31241700053215027  0.04958266392350197  1.0000
  Nd  Nd1       1.0  0.6009926199913025  0.6488597989082336  0.9700772166252136  1.0000
  Nd  Nd2       1.0  0.10676731914281845  0.8468718528747559  0.24987243115901947  1.0000
  Pd  Pd1       1.0  0.10896327346563339  0.979092538356781  0.18663322925567627  1.0000
  Pd  Pd2       1.0  0.08736561983823776  0.18556393682956696  0.5673861503601074  1.0000
  Pd  Pd3       1.0  0.6054510474205017  0.8576006889343262  0.05363734811544418  1.0000
  Pd  Pd4       1.0  0.10613153129816055  0.6769253015518188  0.18923519551753998  1.0000
  Pr  Pr1       1.0  0.6059295535087585  0.7927143573760986  0.3648410439491272  1.0000
  S   S1        1.0  0.5863944292068481  0.010131562128663063  0.6181463003158569  1.0000
  Ti  Ti1       1.0  0.5977882742881775  0.33712977170944214  0.4420444071292877  1.0000
