data_image0
_chemical_formula_structural       CsGaNNdPd3S2SiTi
_chemical_formula_sum              "Cs1 Ga1 N1 Nd1 Pd3 S2 Si1 Ti1"
_cell_length_a       4.168448059019069
_cell_length_b       7.117480943144334
_cell_length_c       8.437456130981445
_cell_angle_alpha    80.35624048728216
_cell_angle_beta     71.86788318637879
_cell_angle_gamma    70.85378961502278

_space_group_name_H-M_alt    "P 1"
_space_group_IT_number       1

loop_
  _space_group_symop_operation_xyz
  'x, y, z'

loop_
  _atom_site_type_symbol
  _atom_site_label
  _atom_site_symmetry_multiplicity
  _atom_site_fract_x
  _atom_site_fract_y
  _atom_site_fract_z
  _atom_site_occupancy
  Cs  Cs1       1.0  0.6999852657318115  0.8201658725738525  0.13571582734584806  1.0000
  Ga  Ga1       1.0  0.7137812972068787  0.2797471284866333  0.7777156233787537  1.0000
  N   N1        1.0  0.27196934819221497  0.41305357217788696  0.8724687099456787  1.0000
  Nd  Nd1       1.0  0.24430020153522494  0.5627908706665039  0.44888219237327576  1.0000
  Pd  Pd1       1.0  0.21991932392120364  0.23460449278354645  0.6814411282539368  1.0000
  Pd  Pd2       1.0  0.7106835842132568  0.02940753474831581  0.6551341414451598  1.0000
  Pd  Pd3       1.0  0.7367333173751831  0.3021157383918762  0.8894578814506531  1.0000
  S   S1        1.0  0.21466501057147983  0.7516173720359802  0.2898104786872864  1.0000
  S   S2        1.0  0.2649705111980438  0.6964730024337769  0.3721512258052826  1.0000
  Si  Si1       1.0  0.45169287919998174  0.5507690906524658  0.9946011304855347  1.0000
  Ti  Ti1       1.0  0.8118228316307069  0.8469218611717224  0.749244213104248  1.0000
