data_image0
_chemical_formula_structural       Cd2In2Pd7
_chemical_formula_sum              "Cd2 In2 Pd7"
_cell_length_a       6.106546512591189
_cell_length_b       6.442722380610639
_cell_length_c       7.06107234954834
_cell_angle_alpha    70.46590317574488
_cell_angle_beta     64.13346887750689
_cell_angle_gamma    63.90050670417432

_space_group_name_H-M_alt    "P 1"
_space_group_IT_number       1

loop_
  _space_group_symop_operation_xyz
  'x, y, z'

loop_
  _atom_site_type_symbol
  _atom_site_label
  _atom_site_symmetry_multiplicity
  _atom_site_fract_x
  _atom_site_fract_y
  _atom_site_fract_z
  _atom_site_occupancy
  Cd  Cd1       1.0  0.9559424519538879  0.5159145593643188  0.17317168414592743  1.0000
  Cd  Cd2       1.0  0.48111405968666077  0.5117339491844177  0.17696809768676758  1.0000
  In  In1       1.0  0.5024228096008301  0.9064589738845825  0.5701460838317871  1.0000
  In  In2       1.0  0.9592918157577515  0.8479196429252625  0.8374132513999939  1.0000
  Pd  Pd1       1.0  0.4935278296470642  0.9991471767425537  0.6784399151802063  1.0000
  Pd  Pd2       1.0  0.98545902967453  0.3309350609779358  0.7299314737319946  1.0000
  Pd  Pd3       1.0  0.47216853499412537  0.48757922649383545  0.9800810813903809  1.0000
  Pd  Pd4       1.0  0.5113303065299988  0.700566828250885  0.7351044416427612  1.0000
  Pd  Pd5       1.0  0.012299188412725925  0.10435332357883453  0.9942589998245239  1.0000
  Pd  Pd6       1.0  0.9668633937835693  0.8357734680175781  0.08464961498975754  1.0000
  Pd  Pd7       1.0  0.9743354916572571  0.947123646736145  0.6838374733924866  1.0000
