data_image0
_chemical_formula_structural       FIn3NPd5S
_chemical_formula_sum              "F1 In3 N1 Pd5 S1"
_cell_length_a       4.368385043521336
_cell_length_b       5.2745904082662864
_cell_length_c       9.377693176269531
_cell_angle_alpha    105.66987336050035
_cell_angle_beta     90.4873713053453
_cell_angle_gamma    90.32293636210623

_space_group_name_H-M_alt    "P 1"
_space_group_IT_number       1

loop_
  _space_group_symop_operation_xyz
  'x, y, z'

loop_
  _atom_site_type_symbol
  _atom_site_label
  _atom_site_symmetry_multiplicity
  _atom_site_fract_x
  _atom_site_fract_y
  _atom_site_fract_z
  _atom_site_occupancy
  F   F1        1.0  0.04870437830686569  0.568094789981842  0.928811252117157  1.0000
  In  In1       1.0  0.5413766503334044  0.12136768549680708  0.3730384111404419  1.0000
  In  In2       1.0  0.050676386803388596  0.13284946978092194  0.9675168991088867  1.0000
  In  In3       1.0  0.03843219578266144  0.12697038054466248  0.36285373568534846  1.0000
  N   N1        1.0  0.02766272984445095  0.616412878036499  0.0737842246890068  1.0000
  Pd  Pd1       1.0  0.5256779193878174  0.08908721059560776  0.8974767327308655  1.0000
  Pd  Pd2       1.0  0.025424852967262268  0.6366444826126099  0.480794757604599  1.0000
  Pd  Pd3       1.0  0.03237885981798172  0.08700808137655258  0.6417344808578491  1.0000
  Pd  Pd4       1.0  0.5085305571556091  0.4199242889881134  0.6195951700210571  1.0000
  Pd  Pd5       1.0  0.5132006406784058  0.12245760858058928  0.687603771686554  1.0000
  S   S1        1.0  0.5345103740692139  0.9276201128959656  0.8715693354606628  1.0000
