data_image0
_chemical_formula_structural       ClCsIn2LiNd2Pd3Zn
_chemical_formula_sum              "Cl1 Cs1 In2 Li1 Nd2 Pd3 Zn1"
_cell_length_a       4.475686808937972
_cell_length_b       6.411302740615726
_cell_length_c       10.571843147277832
_cell_angle_alpha    89.74644425151352
_cell_angle_beta     89.56097588251836
_cell_angle_gamma    96.08127947323878

_space_group_name_H-M_alt    "P 1"
_space_group_IT_number       1

loop_
  _space_group_symop_operation_xyz
  'x, y, z'

loop_
  _atom_site_type_symbol
  _atom_site_label
  _atom_site_symmetry_multiplicity
  _atom_site_fract_x
  _atom_site_fract_y
  _atom_site_fract_z
  _atom_site_occupancy
  Cl  Cl1       1.0  0.13988254964351654  0.470188170671463  0.6129418015480042  1.0000
  Cs  Cs1       1.0  0.1441708356142044  0.10005412995815277  0.7333871722221375  1.0000
  In  In1       1.0  0.15153908729553223  0.6907150149345398  0.23447045683860776  1.0000
  In  In2       1.0  0.16537465155124664  0.5039730668067932  0.33414867520332336  1.0000
  Li  Li1       1.0  0.6532987952232361  0.9687895178794861  0.6448565721511841  1.0000
  Nd  Nd1       1.0  0.6695605516433716  0.4894780218601227  0.42596238851547236  1.0000
  Nd  Nd2       1.0  0.6469332575798035  0.12200093269348145  0.22733946144580838  1.0000
  Pd  Pd1       1.0  0.14353060722351074  0.30349865555763245  0.8937537074089049  1.0000
  Pd  Pd2       1.0  0.6170594096183777  0.8441354632377625  0.8866418600082396  1.0000
  Pd  Pd3       1.0  0.2063034176826477  0.4701929986476898  0.2234678119421005  1.0000
  Zn  Zn1       1.0  0.640693724155426  0.318757563829422  0.42664641141891474  1.0000
