data_image0
_chemical_formula_structural       InNd2Pd8
_chemical_formula_sum              "In1 Nd2 Pd8"
_cell_length_a       4.688982496455493
_cell_length_b       6.218932590083999
_cell_length_c       8.062095642089844
_cell_angle_alpha    73.94326239167758
_cell_angle_beta     71.92835915004754
_cell_angle_gamma    68.27037883287763

_space_group_name_H-M_alt    "P 1"
_space_group_IT_number       1

loop_
  _space_group_symop_operation_xyz
  'x, y, z'

loop_
  _atom_site_type_symbol
  _atom_site_label
  _atom_site_symmetry_multiplicity
  _atom_site_fract_x
  _atom_site_fract_y
  _atom_site_fract_z
  _atom_site_occupancy
  In  In1       1.0  0.4734485447406769  0.5719060897827148  0.5040833353996277  1.0000
  Nd  Nd1       1.0  0.930709183216095  0.8022894859313965  0.695027768611908  1.0000
  Nd  Nd2       1.0  0.397865891456604  0.11472474038600923  0.6184641718864441  1.0000
  Pd  Pd1       1.0  0.9608826041221619  0.33231693506240845  0.018285835161805125  1.0000
  Pd  Pd2       1.0  0.45778536796569824  0.8441398739814759  0.4154159724712372  1.0000
  Pd  Pd3       1.0  0.970187783241272  0.8764063119888307  0.4393509030342102  1.0000
  Pd  Pd4       1.0  0.9481846690177917  0.3392074406147003  0.18401491641998288  1.0000
  Pd  Pd5       1.0  0.39921990036964417  0.14702516794204712  0.3018141984939575  1.0000
  Pd  Pd6       1.0  0.4667733907699585  0.8435450792312623  0.61488938331604  1.0000
  Pd  Pd7       1.0  0.9167848825454712  0.23420447111129764  0.7557945847511292  1.0000
  Pd  Pd8       1.0  0.41268250346183777  0.10669814795255662  0.5291711688041687  1.0000
