data_image0
_chemical_formula_structural       Al4CdClKLi
_chemical_formula_sum              "Al4 Cd1 Cl1 K1 Li1"
_cell_length_a       4.635148116563513
_cell_length_b       2.661388902180528
_cell_length_c       7.323541164398193
_cell_angle_alpha    82.14233876661227
_cell_angle_beta     86.50722501413584
_cell_angle_gamma    19.074913809942277

_space_group_name_H-M_alt    "P 1"
_space_group_IT_number       1

loop_
  _space_group_symop_operation_xyz
  'x, y, z'

loop_
  _atom_site_type_symbol
  _atom_site_label
  _atom_site_symmetry_multiplicity
  _atom_site_fract_x
  _atom_site_fract_y
  _atom_site_fract_z
  _atom_site_occupancy
  Al  Al1       1.0  0.5664864778518677  0.5323531627655029  0.5950967073440552  1.0000
  Al  Al2       1.0  0.01335151214152565  0.9307858347892762  0.705873727798462  1.0000
  Al  Al3       1.0  0.7454483509063721  0.37683010101318365  0.6711126565933228  1.0000
  Al  Al4       1.0  0.17963406443595883  0.3116587400436402  0.5593567490577698  1.0000
  Cd  Cd1       1.0  0.33208346366882313  0.8038217425346376  0.8916587233543397  1.0000
  Cl  Cl1       1.0  0.7290914654731749  0.9239081740379335  0.48273718357086187  1.0000
  K   K1        1.0  0.21163894236087796  0.39891535043716436  0.6456499695777892  1.0000
  Li  Li1       1.0  0.8485668301582336  0.426502674818039  0.07803229242563248  1.0000
