data_image0
_chemical_formula_structural       Al5Cd2Eu
_chemical_formula_sum              "Al5 Cd2 Eu1"
_cell_length_a       4.482985315515385
_cell_length_b       5.556993355880278
_cell_length_c       8.083630561828613
_cell_angle_alpha    89.76573240136985
_cell_angle_beta     90.41162677088431
_cell_angle_gamma    111.66880726050819

_space_group_name_H-M_alt    "P 1"
_space_group_IT_number       1

loop_
  _space_group_symop_operation_xyz
  'x, y, z'

loop_
  _atom_site_type_symbol
  _atom_site_label
  _atom_site_symmetry_multiplicity
  _atom_site_fract_x
  _atom_site_fract_y
  _atom_site_fract_z
  _atom_site_occupancy
  Al  Al1       1.0  0.06700657308101654  0.18846844136714935  0.6925968527793884  1.0000
  Al  Al2       1.0  0.39381644129753113  0.20217697322368622  0.7798017263412476  1.0000
  Al  Al3       1.0  0.08023954927921295  0.6855126023292542  0.13704295456409454  1.0000
  Al  Al4       1.0  0.7523579001426697  0.5006939172744751  0.017894482240080833  1.0000
  Al  Al5       1.0  0.3620283901691437  0.2788274586200714  0.5168172717094421  1.0000
  Cd  Cd1       1.0  0.2530279755592346  0.9891536235809326  0.9894183874130249  1.0000
  Cd  Cd2       1.0  0.07125548273324966  0.19482503831386566  0.9710593223571777  1.0000
  Eu  Eu1       1.0  0.9074824452400208  0.7448172569274902  0.4732460081577301  1.0000
