data_image0
_chemical_formula_structural       Al5Cd2Li
_chemical_formula_sum              "Al5 Cd2 Li1"
_cell_length_a       4.659635939119487
_cell_length_b       5.317365277920458
_cell_length_c       8.58370590209961
_cell_angle_alpha    89.52250900223997
_cell_angle_beta     89.42165282207165
_cell_angle_gamma    113.11695345154475

_space_group_name_H-M_alt    "P 1"
_space_group_IT_number       1

loop_
  _space_group_symop_operation_xyz
  'x, y, z'

loop_
  _atom_site_type_symbol
  _atom_site_label
  _atom_site_symmetry_multiplicity
  _atom_site_fract_x
  _atom_site_fract_y
  _atom_site_fract_z
  _atom_site_occupancy
  Al  Al1       1.0  0.5240240693092346  0.6539525389671326  0.15447640419006348  1.0000
  Al  Al2       1.0  0.16779696941375732  0.3228442966938019  0.0534248985350132  1.0000
  Al  Al3       1.0  0.5099940299987793  0.31206557154655457  0.17223572731018064  1.0000
  Al  Al4       1.0  0.8447309732437134  0.31484317779541016  0.7046161890029907  1.0000
  Al  Al5       1.0  0.48527380824089056  0.29308828711509705  0.20704343914985657  1.0000
  Cd  Cd1       1.0  0.7687448859214783  0.7000588774681091  0.5515484809875488  1.0000
  Cd  Cd2       1.0  0.2536792755126953  0.18148349225521088  0.5515883564949036  1.0000
  Li  Li1       1.0  0.26535269618034363  0.6772180199623108  0.8690525889396667  1.0000
