data_image0
_chemical_formula_structural       Al6CdK
_chemical_formula_sum              "Al6 Cd1 K1"
_cell_length_a       5.207357028300525
_cell_length_b       5.830883573972419
_cell_length_c       8.377245903015137
_cell_angle_alpha    90.00888098047783
_cell_angle_beta     88.90529585141614
_cell_angle_gamma    98.98022859070358

_space_group_name_H-M_alt    "P 1"
_space_group_IT_number       1

loop_
  _space_group_symop_operation_xyz
  'x, y, z'

loop_
  _atom_site_type_symbol
  _atom_site_label
  _atom_site_symmetry_multiplicity
  _atom_site_fract_x
  _atom_site_fract_y
  _atom_site_fract_z
  _atom_site_occupancy
  Al  Al1       1.0  0.5008026361465454  0.925544261932373  0.1467682123184204  1.0000
  Al  Al2       1.0  0.6697646379470825  0.7999534010887146  0.44099926948547363  1.0000
  Al  Al3       1.0  0.4843472242355346  0.28997957706451416  0.4391040503978729  1.0000
  Al  Al4       1.0  0.5084852576255798  0.9249266982078552  0.8185093402862549  1.0000
  Al  Al5       1.0  0.17485082149505615  0.2915675640106201  0.4307471811771393  1.0000
  Al  Al6       1.0  0.15313726663589478  0.3279924690723419  0.43402087688446045  1.0000
  Cd  Cd1       1.0  0.607491672039032  0.6145817637443542  0.16945865750312805  1.0000
  K   K1        1.0  0.9379994869232177  0.29692280292510986  0.3165927231311798  1.0000
