data_image0
_chemical_formula_structural       Cl4PScSn5
_chemical_formula_sum              "Cl4 P1 Sc1 Sn5"
_cell_length_a       6.1446353601855215
_cell_length_b       7.510203805694223
_cell_length_c       8.253339767456055
_cell_angle_alpha    97.09304919238103
_cell_angle_beta     89.87984677962537
_cell_angle_gamma    89.90777982244636

_space_group_name_H-M_alt    "P 1"
_space_group_IT_number       1

loop_
  _space_group_symop_operation_xyz
  'x, y, z'

loop_
  _atom_site_type_symbol
  _atom_site_label
  _atom_site_symmetry_multiplicity
  _atom_site_fract_x
  _atom_site_fract_y
  _atom_site_fract_z
  _atom_site_occupancy
  Cl  Cl1       1.0  0.40805089473724365  0.5500304102897644  0.8885654807090759  1.0000
  Cl  Cl2       1.0  0.42791295051574707  0.562616229057312  0.22199119627475739  1.0000
  Cl  Cl3       1.0  0.9957154393196107  0.12089368700981142  0.7313114404678345  1.0000
  Cl  Cl4       1.0  0.9175353646278382  0.6144981384277344  0.10944440960884093  1.0000
  P   P1        1.0  0.9428070187568666  0.7370660901069642  0.2337665557861328  1.0000
  Sc  Sc1       1.0  0.1224702298641205  0.3270953893661499  0.7227763533592224  1.0000
  Sn  Sn1       1.0  0.7816069722175598  0.05093703418970109  0.23150447010993958  1.0000
  Sn  Sn2       1.0  0.27439847588539124  0.04704985767602921  0.9353548288345337  1.0000
  Sn  Sn3       1.0  0.5840916633605957  0.8193799257278443  0.720533013343811  1.0000
  Sn  Sn4       1.0  0.10114254057407379  0.3421894013881684  0.8623180389404297  1.0000
  Sn  Sn5       1.0  0.7565662264823914  0.2314318418502808  0.3961731791496277  1.0000
