data_image0
_chemical_formula_structural       Cl5PScSn4
_chemical_formula_sum              "Cl5 P1 Sc1 Sn4"
_cell_length_a       5.973037187822156
_cell_length_b       7.574110077131243
_cell_length_c       9.83963394165039
_cell_angle_alpha    103.88148731832098
_cell_angle_beta     89.24003027756072
_cell_angle_gamma    111.4213655613495

_space_group_name_H-M_alt    "P 1"
_space_group_IT_number       1

loop_
  _space_group_symop_operation_xyz
  'x, y, z'

loop_
  _atom_site_type_symbol
  _atom_site_label
  _atom_site_symmetry_multiplicity
  _atom_site_fract_x
  _atom_site_fract_y
  _atom_site_fract_z
  _atom_site_occupancy
  Cl  Cl1       1.0  0.4408295154571533  0.6051315069198608  0.3228244185447693  1.0000
  Cl  Cl2       1.0  0.32549333572387695  0.09579840302467345  0.500259518623352  1.0000
  Cl  Cl3       1.0  0.45921003818511963  0.6311659216880798  0.002569162053987384  1.0000
  Cl  Cl4       1.0  0.566293478012085  0.4668403565883636  0.8184390664100647  1.0000
  Cl  Cl5       1.0  0.7433626651763916  0.0338737927377224  0.35602182149887085  1.0000
  P   P1        1.0  0.13485416769981376  0.9627423286437987  0.4086848497390747  1.0000
  Sc  Sc1       1.0  0.2560344040393829  0.8025189638137816  0.06749261915683744  1.0000
  Sn  Sn1       1.0  0.2588677108287811  0.8241713643074035  0.48450058698654175  1.0000
  Sn  Sn2       1.0  0.7671047449111938  0.25847649574279785  0.26109400391578674  1.0000
  Sn  Sn3       1.0  0.7748531103134155  0.13218118250370026  0.22594407200813293  1.0000
  Sn  Sn4       1.0  0.5100793242454529  0.4503792822360992  0.11319713294506073  1.0000
