data_image0
_chemical_formula_structural       Cl6PSn3Zn
_chemical_formula_sum              "Cl6 P1 Sn3 Zn1"
_cell_length_a       5.474609517039432
_cell_length_b       7.393973756287316
_cell_length_c       8.576497077941895
_cell_angle_alpha    97.57918232737806
_cell_angle_beta     89.98694834696127
_cell_angle_gamma    91.4490479143698

_space_group_name_H-M_alt    "P 1"
_space_group_IT_number       1

loop_
  _space_group_symop_operation_xyz
  'x, y, z'

loop_
  _atom_site_type_symbol
  _atom_site_label
  _atom_site_symmetry_multiplicity
  _atom_site_fract_x
  _atom_site_fract_y
  _atom_site_fract_z
  _atom_site_occupancy
  Cl  Cl1       1.0  0.5828822255134583  0.5062361359596252  0.8545286655426025  1.0000
  Cl  Cl2       1.0  0.08362091332674026  0.7616349458694457  0.853079617023468  1.0000
  Cl  Cl3       1.0  0.5873799920082092  0.620865762233734  0.8508784174919128  1.0000
  Cl  Cl4       1.0  0.3588765263557434  0.31452476978301996  0.9862936735153198  1.0000
  Cl  Cl5       1.0  0.4513946771621704  0.8878175020217894  0.5513812899589539  1.0000
  Cl  Cl6       1.0  0.9155749678611755  0.3415010273456573  0.13246272504329681  1.0000
  P   P1        1.0  0.12736184895038605  0.835522949695587  0.9007403254508972  1.0000
  Sn  Sn1       1.0  0.347182035446167  0.38275122642517084  0.22537969052791595  1.0000
  Sn  Sn2       1.0  0.8308191299438477  0.9214475750923156  0.41068857908248896  1.0000
  Sn  Sn3       1.0  0.8621426224708557  0.44288605451583857  0.6474270820617676  1.0000
  Zn  Zn1       1.0  0.11894434690475464  0.060034248977899544  0.2865569591522217  1.0000
