data_image0
_chemical_formula_structural       Cl7ReRhSn2
_chemical_formula_sum              "Cl7 Re1 Rh1 Sn2"
_cell_length_a       6.622519775773868
_cell_length_b       7.096655073508436
_cell_length_c       8.2491455078125
_cell_angle_alpha    99.64472312855864
_cell_angle_beta     100.3377029897748
_cell_angle_gamma    111.85494762544026

_space_group_name_H-M_alt    "P 1"
_space_group_IT_number       1

loop_
  _space_group_symop_operation_xyz
  'x, y, z'

loop_
  _atom_site_type_symbol
  _atom_site_label
  _atom_site_symmetry_multiplicity
  _atom_site_fract_x
  _atom_site_fract_y
  _atom_site_fract_z
  _atom_site_occupancy
  Cl  Cl1       1.0  0.19734673202037809  0.40605628490448  0.31272298097610474  1.0000
  Cl  Cl2       1.0  0.7304142713546752  0.1715863049030304  0.7806263566017151  1.0000
  Cl  Cl3       1.0  0.5236369967460632  0.660029411315918  0.8269190192222595  1.0000
  Cl  Cl4       1.0  0.5973169803619385  0.4057765007019043  0.3935352563858032  1.0000
  Cl  Cl5       1.0  0.05855881050229072  0.26188111305236816  0.3876712918281555  1.0000
  Cl  Cl6       1.0  0.3559825420379638  0.0991220697760582  0.5925771594047546  1.0000
  Cl  Cl7       1.0  0.9272664785385131  0.48602765798568726  0.3839578330516815  1.0000
  Re  Re1       1.0  0.7869816422462462  0.6240587830543518  0.07951068878173828  1.0000
  Rh  Rh1       1.0  0.18939137458801267  0.6550711989402771  0.1415008008480072  1.0000
  Sn  Sn1       1.0  0.9954884648323058  0.30640846490859985  0.6573824882507324  1.0000
  Sn  Sn2       1.0  0.4832372069358825  0.9048084616661072  0.8954823613166809  1.0000
