data_image0
_chemical_formula_structural       Cl5RhSn5
_chemical_formula_sum              "Cl5 Rh1 Sn5"
_cell_length_a       5.781402690626523
_cell_length_b       8.036076416008857
_cell_length_c       7.953588008880615
_cell_angle_alpha    120.36757263293312
_cell_angle_beta     90.38181840711563
_cell_angle_gamma    89.53182055431078

_space_group_name_H-M_alt    "P 1"
_space_group_IT_number       1

loop_
  _space_group_symop_operation_xyz
  'x, y, z'

loop_
  _atom_site_type_symbol
  _atom_site_label
  _atom_site_symmetry_multiplicity
  _atom_site_fract_x
  _atom_site_fract_y
  _atom_site_fract_z
  _atom_site_occupancy
  Cl  Cl1       1.0  0.5345275402069092  0.45648869872093195  0.8350869417190553  1.0000
  Cl  Cl2       1.0  0.7874808311462402  0.9277288913726806  0.9572941660881044  1.0000
  Cl  Cl3       1.0  0.8015863895416261  0.3985805511474609  0.25752824544906616  1.0000
  Cl  Cl4       1.0  0.5423815846443176  0.5320876240730286  0.4964310228824616  1.0000
  Cl  Cl5       1.0  0.2794654965400696  0.762965440750122  0.04423419758677477  1.0000
  Rh  Rh1       1.0  0.5849027633666992  0.6061911582946777  0.1945403963327408  1.0000
  Sn  Sn1       1.0  0.7685596346855164  0.6168601512908936  0.5289433002471924  1.0000
  Sn  Sn2       1.0  0.27487120032310486  0.6298620700836182  0.21420097351074222  1.0000
  Sn  Sn3       1.0  0.7792666554450989  0.924590229988098  0.9789420366287233  1.0000
  Sn  Sn4       1.0  0.27290794253349304  0.09479485452175139  0.4677899777889252  1.0000
  Sn  Sn5       1.0  0.28684201836586  0.11149217188358305  0.472964495420456  1.0000
