data_image0
_chemical_formula_structural       Cl4IrPtRhSn3Te
_chemical_formula_sum              "Cl4 Ir1 Pt1 Rh1 Sn3 Te1"
_cell_length_a       6.935757468215498
_cell_length_b       4.176961474278483
_cell_length_c       6.728745460510254
_cell_angle_alpha    130.76244113750343
_cell_angle_beta     109.43646962610326
_cell_angle_gamma    115.02877423818707

_space_group_name_H-M_alt    "P 1"
_space_group_IT_number       1

loop_
  _space_group_symop_operation_xyz
  'x, y, z'

loop_
  _atom_site_type_symbol
  _atom_site_label
  _atom_site_symmetry_multiplicity
  _atom_site_fract_x
  _atom_site_fract_y
  _atom_site_fract_z
  _atom_site_occupancy
  Cl  Cl1       1.0  0.9419203400611877  0.26764443516731257  0.48397731781005854  1.0000
  Cl  Cl2       1.0  0.5844258666038513  0.4022190272808075  0.5253573060035706  1.0000
  Cl  Cl3       1.0  0.7949004173278809  0.1031545028090477  0.0012825207086279977  1.0000
  Cl  Cl4       1.0  0.4954409897327423  0.8879227042198181  0.8955370187759399  1.0000
  Ir  Ir1       1.0  0.7397829294204712  0.3470984995365142  0.15695993602275848  1.0000
  Pt  Pt1       1.0  0.8341953754425049  0.4758845865726471  0.3717995285987854  1.0000
  Rh  Rh1       1.0  0.1864798218011856  0.00020181189756835952  0.17971444129943845  1.0000
  Sn  Sn1       1.0  0.1487367153167725  0.23616555333137515  0.8930091857910156  1.0000
  Sn  Sn2       1.0  0.1616648137569427  0.9997503757476804  0.5979242920875548  1.0000
  Sn  Sn3       1.0  0.789301872253418  0.149759903550148  0.590897262096405  1.0000
  Te  Te1       1.0  0.3921487033367157  0.8446664214134216  0.14718025922775269  1.0000
