data_image0
_chemical_formula_structural       GeI4LuOPtSbTi2VZn3
_chemical_formula_sum              "Ge1 I4 Lu1 O1 Pt1 Sb1 Ti2 V1 Zn3"
_cell_length_a       7.800639176893967
_cell_length_b       7.814999229448403
_cell_length_c       10.804121971130371
_cell_angle_alpha    84.7878183104383
_cell_angle_beta     79.85463284579419
_cell_angle_gamma    66.14530615123078

_space_group_name_H-M_alt    "P 1"
_space_group_IT_number       1

loop_
  _space_group_symop_operation_xyz
  'x, y, z'

loop_
  _atom_site_type_symbol
  _atom_site_label
  _atom_site_symmetry_multiplicity
  _atom_site_fract_x
  _atom_site_fract_y
  _atom_site_fract_z
  _atom_site_occupancy
  Ge  Ge1       1.0  0.10115813463926314  0.8617522120475769  0.713649332523346  1.0000
  I   I1        1.0  0.5942983627319335  0.652714729309082  0.6602650284767151  1.0000
  I   I2        1.0  0.08468578755855559  0.7707685828208923  0.8511020541191101  1.0000
  I   I3        1.0  0.3775167763233184  0.13414929807186127  0.11064562201499939  1.0000
  I   I4        1.0  0.617578625679016  0.3760128617286682  0.6094582080841064  1.0000
  Lu  Lu1       1.0  0.8728051185607909  0.0618283636868  0.12750899791717532  1.0000
  O   O1        1.0  0.3949568569660186  0.9554876089096069  0.638525664806366  1.0000
  Pt  Pt1       1.0  0.5819263458251952  0.9213763475418091  0.9600511789321899  1.0000
  Sb  Sb1       1.0  0.5856882333755492  0.38676717877388  0.9343850612640381  1.0000
  Ti  Ti1       1.0  0.9040191173553466  0.9590103626251221  0.06855843216180801  1.0000
  Ti  Ti2       1.0  0.36646205186843867  0.7114806175231934  0.7634257078170776  1.0000
  V   V1        1.0  0.1364338397979736  0.33328860998153687  0.2558770179748535  1.0000
  Zn  Zn1       1.0  0.5666127800941466  0.176053985953331  0.25982317328453064  1.0000
  Zn  Zn2       1.0  0.8824901580810546  0.9818512201309204  0.6178087592124939  1.0000
  Zn  Zn3       1.0  0.21759502589702603  0.23685164749622345  0.5545861124992371  1.0000
