data_image0
_chemical_formula_structural       CoCsGeI4La2SeTb2TiZn2
_chemical_formula_sum              "Co1 Cs1 Ge1 I4 La2 Se1 Tb2 Ti1 Zn2"
_cell_length_a       7.463035024609446
_cell_length_b       7.581832612906569
_cell_length_c       9.779836654663086
_cell_angle_alpha    90.7498091452653
_cell_angle_beta     91.5516358622615
_cell_angle_gamma    103.64624621731984

_space_group_name_H-M_alt    "P 1"
_space_group_IT_number       1

loop_
  _space_group_symop_operation_xyz
  'x, y, z'

loop_
  _atom_site_type_symbol
  _atom_site_label
  _atom_site_symmetry_multiplicity
  _atom_site_fract_x
  _atom_site_fract_y
  _atom_site_fract_z
  _atom_site_occupancy
  Co  Co1       1.0  0.862470269203186  0.769991099834442  0.7663297653198242  1.0000
  Cs  Cs1       1.0  0.5724188089370728  0.8325053453445433  0.6928696632385254  1.0000
  Ge  Ge1       1.0  0.1229060739278793  0.7513251900672911  0.8604313135147095  1.0000
  I   I1        1.0  0.5248080492019653  0.09174541383981703  0.2558746039867401  1.0000
  I   I2        1.0  0.023750076070427888  0.17990125715732572  0.33738046884536743  1.0000
  I   I3        1.0  0.031960535794496536  0.2706214189529419  0.5433453917503357  1.0000
  I   I4        1.0  0.6995869874954224  0.7254531979560851  0.26216232776641846  1.0000
  La  La1       1.0  0.6378659009933472  0.8569868803024291  0.6980828642845154  1.0000
  La  La2       1.0  0.04969704896211624  0.17344120144844055  0.5226215720176696  1.0000
  Se  Se1       1.0  0.5352383852005005  0.8044514060020446  0.004076330456882715  1.0000
  Tb  Tb1       1.0  0.2350589632987976  0.15396445989608765  0.7086812257766724  1.0000
  Tb  Tb2       1.0  0.5284716486930847  0.047586977481842034  0.7588039636611938  1.0000
  Ti  Ti1       1.0  0.5288257002830505  0.5610827207565308  0.0580175444483757  1.0000
  Zn  Zn1       1.0  0.028092518448829637  0.4112479388713836  0.07059324532747269  1.0000
  Zn  Zn2       1.0  0.5252466201782227  0.06968852132558823  0.1507236212491989  1.0000
