data_image0
_chemical_formula_structural       BiGe3I5PSeUZn3
_chemical_formula_sum              "Bi1 Ge3 I5 P1 Se1 U1 Zn3"
_cell_length_a       6.732251539230316
_cell_length_b       7.412979600913072
_cell_length_c       11.70539379119873
_cell_angle_alpha    90.34181956299574
_cell_angle_beta     90.749754774539
_cell_angle_gamma    105.7884939185459

_space_group_name_H-M_alt    "P 1"
_space_group_IT_number       1

loop_
  _space_group_symop_operation_xyz
  'x, y, z'

loop_
  _atom_site_type_symbol
  _atom_site_label
  _atom_site_symmetry_multiplicity
  _atom_site_fract_x
  _atom_site_fract_y
  _atom_site_fract_z
  _atom_site_occupancy
  Bi  Bi1       1.0  0.04902704805135727  0.9753605723381042  0.4380638897418976  1.0000
  Ge  Ge1       1.0  0.8470364212989807  0.7557369470596313  0.9508666396141052  1.0000
  Ge  Ge2       1.0  0.3595406413078308  0.9451248645782471  0.5039735436439514  1.0000
  Ge  Ge3       1.0  0.8269922137260437  0.4989890158176422  0.5959585309028625  1.0000
  I   I1        1.0  0.8553787469863892  0.043049223721027374  0.5975552797317505  1.0000
  I   I2        1.0  0.3389424979686737  0.27531617879867554  0.59035724401474  1.0000
  I   I3        1.0  0.2993645966053009  0.5419809222221375  0.2330138087272644  1.0000
  I   I4        1.0  0.8339069485664368  0.16134512424468994  0.8353286385536194  1.0000
  I   I5        1.0  0.34018710255622864  0.8288959860801697  0.3975251019001007  1.0000
  P   P1        1.0  0.3424530327320099  0.17136114835739136  0.6416962146759033  1.0000
  Se  Se1       1.0  0.3010411560535431  0.42953115701675415  0.21938970685005188  1.0000
  U   U1        1.0  0.3640528619289398  0.08640643209218979  0.4062362313270569  1.0000
  Zn  Zn1       1.0  0.34776201844215393  0.08902554959058762  0.4575628638267517  1.0000
  Zn  Zn2       1.0  0.8340520858764648  0.9491333961486816  0.27909591794013977  1.0000
  Zn  Zn3       1.0  0.8092601299285889  0.30945760011672974  0.6811734437942505  1.0000
