data_image0
_chemical_formula_structural       CdCoCuILa11
_chemical_formula_sum              "Cd1 Co1 Cu1 I1 La11"
_cell_length_a       6.416577980369106
_cell_length_b       6.575327536786855
_cell_length_c       11.502599716186523
_cell_angle_alpha    103.32734080150793
_cell_angle_beta     93.07104762077745
_cell_angle_gamma    88.21018661959728

_space_group_name_H-M_alt    "P 1"
_space_group_IT_number       1

loop_
  _space_group_symop_operation_xyz
  'x, y, z'

loop_
  _atom_site_type_symbol
  _atom_site_label
  _atom_site_symmetry_multiplicity
  _atom_site_fract_x
  _atom_site_fract_y
  _atom_site_fract_z
  _atom_site_occupancy
  Cd  Cd1       1.0  0.3077808618545532  0.7383975386619568  0.02128811553120613  1.0000
  Co  Co1       1.0  0.08310854434967041  0.447582334280014  0.5956395864486694  1.0000
  Cu  Cu1       1.0  0.531533420085907  0.15053893625736237  0.2687581479549408  1.0000
  I   I1        1.0  0.042925626039505005  0.7194561958312988  0.0802992582321167  1.0000
  La  La1       1.0  0.7832208275794983  0.03426757827401161  0.23939827084541324  1.0000
  La  La2       1.0  0.7700405716896057  0.5845913887023926  0.5603887438774109  1.0000
  La  La3       1.0  0.7899298071861267  0.3072890043258667  0.27860432863235474  1.0000
  La  La4       1.0  0.5198616981506348  0.522696316242218  0.8566938042640687  1.0000
  La  La5       1.0  0.29987213015556335  0.3485265374183655  0.8562767505645753  1.0000
  La  La6       1.0  0.8428801894187927  0.42139077186584467  0.49264141917228704  1.0000
  La  La7       1.0  0.5390247106552124  0.13216672837734222  0.8333097696304322  1.0000
  La  La8       1.0  0.7703372240066528  0.4316010177135467  0.3520820736885071  1.0000
  La  La9       1.0  0.31476056575775146  0.3667474389076233  0.6461611390113831  1.0000
  La  La10      1.0  0.7789595127105713  0.5412742495536804  0.5685433745384216  1.0000
  La  La11      1.0  0.28764092922210693  0.6256566643714905  0.5754769444465637  1.0000
