data_image0
_chemical_formula_structural       CsLa11Se2Zn
_chemical_formula_sum              "Cs1 La11 Se2 Zn1"
_cell_length_a       6.178891623056276
_cell_length_b       4.066687954190654
_cell_length_c       15.143774032592773
_cell_angle_alpha    105.6647242175448
_cell_angle_beta     96.42648870462986
_cell_angle_gamma    103.46973081531836

_space_group_name_H-M_alt    "P 1"
_space_group_IT_number       1

loop_
  _space_group_symop_operation_xyz
  'x, y, z'

loop_
  _atom_site_type_symbol
  _atom_site_label
  _atom_site_symmetry_multiplicity
  _atom_site_fract_x
  _atom_site_fract_y
  _atom_site_fract_z
  _atom_site_occupancy
  Cs  Cs1       1.0  0.21079480648040771  0.6510745286941528  0.7056792974472046  1.0000
  La  La1       1.0  0.4987814426422119  0.5218532681465149  0.48345714807510376  1.0000
  La  La2       1.0  0.42741358280181885  0.485102117061615  0.9915415048599243  1.0000
  La  La3       1.0  0.20323364436626434  0.26171648502349854  0.4694115221500397  1.0000
  La  La4       1.0  0.5554749369621277  0.389059841632843  0.31066399812698364  1.0000
  La  La5       1.0  0.792717456817627  0.7640635967254639  0.2188430279493332  1.0000
  La  La6       1.0  0.05434251204133034  0.4327640235424042  0.43017515540122986  1.0000
  La  La7       1.0  0.5647902488708496  0.40358033776283264  0.9693635702133179  1.0000
  La  La8       1.0  0.0076118516735732555  0.876168966293335  0.4056929647922516  1.0000
  La  La9       1.0  0.19315648078918457  0.10597121715545654  0.5072399973869324  1.0000
  La  La10      1.0  0.8742623925209045  0.4902488589286804  0.6655765771865845  1.0000
  La  La11      1.0  0.28367042541503906  0.12239813804626465  0.5315535068511963  1.0000
  Se  Se1       1.0  0.8509373664855957  0.5497381091117859  0.7830584049224854  1.0000
  Se  Se2       1.0  0.8240506052970886  0.6973331570625305  0.6050539016723633  1.0000
  Zn  Zn1       1.0  0.32349008321762085  0.9153636693954468  0.35512658953666687  1.0000
