data_image0
_chemical_formula_structural       Ge3I4LaP2PtRhSe2Zn
_chemical_formula_sum              "Ge3 I4 La1 P2 Pt1 Rh1 Se2 Zn1"
_cell_length_a       4.039339505790617
_cell_length_b       8.12687517818124
_cell_length_c       10.323835372924805
_cell_angle_alpha    90.24207820935555
_cell_angle_beta     91.08966385622891
_cell_angle_gamma    94.58680502290821

_space_group_name_H-M_alt    "P 1"
_space_group_IT_number       1

loop_
  _space_group_symop_operation_xyz
  'x, y, z'

loop_
  _atom_site_type_symbol
  _atom_site_label
  _atom_site_symmetry_multiplicity
  _atom_site_fract_x
  _atom_site_fract_y
  _atom_site_fract_z
  _atom_site_occupancy
  Ge  Ge1       1.0  0.15679724514484406  0.38382667303085327  0.4731157124042511  1.0000
  Ge  Ge2       1.0  0.6424696445465088  0.5653275847434998  0.3330523669719696  1.0000
  Ge  Ge3       1.0  0.13233280181884766  0.7653871178627014  0.9028705358505249  1.0000
  I   I1        1.0  0.12931424379348755  0.36010676622390747  0.5906542539596558  1.0000
  I   I2        1.0  0.14146122336387634  0.7748573422431946  0.3973250091075897  1.0000
  I   I3        1.0  0.17258064448833466  0.8925809264183044  0.7900947332382202  1.0000
  I   I4        1.0  0.6350884437561035  0.4940248429775238  0.018375366926193237  1.0000
  La  La1       1.0  0.6248910427093506  0.7494191527366638  0.417532742023468  1.0000
  P   P1        1.0  0.6411907076835632  0.8432702422142029  0.4581458568572998  1.0000
  P   P2        1.0  0.6734853386878967  0.6117976307868958  0.25017136335372925  1.0000
  Pt  Pt1       1.0  0.6757078170776367  0.8513913154602051  0.2881116569042206  1.0000
  Rh  Rh1       1.0  0.21047110855579376  0.09029266238212585  0.21919496357440943  1.0000
  Se  Se1       1.0  0.8755664229393005  0.38067200779914856  0.5933007597923279  1.0000
  Se  Se2       1.0  0.6569599509239197  0.5976685285568237  0.08327840268611908  1.0000
  Zn  Zn1       1.0  0.15477877855300903  0.5336184501647949  0.7993417978286743  1.0000
