data_image0
_chemical_formula_structural       LiPb5Pr
_chemical_formula_sum              "Li1 Pb5 Pr1"
_cell_length_a       5.181448757769202
_cell_length_b       5.415423246697951
_cell_length_c       6.561944484710693
_cell_angle_alpha    114.87899524598143
_cell_angle_beta     104.2298912808309
_cell_angle_gamma    96.85838846739246

_space_group_name_H-M_alt    "P 1"
_space_group_IT_number       1

loop_
  _space_group_symop_operation_xyz
  'x, y, z'

loop_
  _atom_site_type_symbol
  _atom_site_label
  _atom_site_symmetry_multiplicity
  _atom_site_fract_x
  _atom_site_fract_y
  _atom_site_fract_z
  _atom_site_occupancy
  Li  Li1       1.0  0.25830671191215515  0.22245684266090393  0.3196244537830353  1.0000
  Pb  Pb1       1.0  0.7616432309150696  0.2730656862258911  0.6944136619567871  1.0000
  Pb  Pb2       1.0  0.7637171149253845  0.41576364636421204  0.5635056495666504  1.0000
  Pb  Pb3       1.0  0.7597017288208008  0.6118965744972229  0.7380909919738771  1.0000
  Pb  Pb4       1.0  0.26727554202079773  0.19788749516010284  0.11566089093685152  1.0000
  Pb  Pb5       1.0  0.25529545545578003  0.14456413686275482  0.745263159275055  1.0000
  Pr  Pr1       1.0  0.2553479075431824  0.5677962899208069  0.3630702197551728  1.0000
