data_image0
_chemical_formula_structural       Pb3Sr4
_chemical_formula_sum              "Pb3 Sr4"
_cell_length_a       4.3924270776228145
_cell_length_b       3.722000535721891
_cell_length_c       17.94955062866211
_cell_angle_alpha    110.37512890610839
_cell_angle_beta     106.64707100912645
_cell_angle_gamma    91.25841947164403

_space_group_name_H-M_alt    "P 1"
_space_group_IT_number       1

loop_
  _space_group_symop_operation_xyz
  'x, y, z'

loop_
  _atom_site_type_symbol
  _atom_site_label
  _atom_site_symmetry_multiplicity
  _atom_site_fract_x
  _atom_site_fract_y
  _atom_site_fract_z
  _atom_site_occupancy
  Pb  Pb1       1.0  0.6533081531524658  0.6790633201599121  0.8408313989639282  1.0000
  Pb  Pb2       1.0  0.13025662302970886  0.09352423995733261  0.9498507380485535  1.0000
  Pb  Pb3       1.0  0.8307458758354187  0.9585026502609253  0.6032151579856873  1.0000
  Sr  Sr1       1.0  0.6224361062049866  0.1691518872976303  0.6357722282409668  1.0000
  Sr  Sr2       1.0  0.13265550136566162  0.7178122401237488  0.9163545966148376  1.0000
  Sr  Sr3       1.0  0.15850237011909485  0.2038247138261795  0.9440824389457703  1.0000
  Sr  Sr4       1.0  0.6189103722572327  0.8765707015991211  0.37108346819877625  1.0000
