data_image0
_chemical_formula_structural       Cl5HfKO6
_chemical_formula_sum              "Cl5 Hf1 K1 O6"
_cell_length_a       6.035349424497366
_cell_length_b       7.420722473833218
_cell_length_c       7.3222174644470215
_cell_angle_alpha    106.02569904032055
_cell_angle_beta     104.0678149042626
_cell_angle_gamma    112.85651494481284

_space_group_name_H-M_alt    "P 1"
_space_group_IT_number       1

loop_
  _space_group_symop_operation_xyz
  'x, y, z'

loop_
  _atom_site_type_symbol
  _atom_site_label
  _atom_site_symmetry_multiplicity
  _atom_site_fract_x
  _atom_site_fract_y
  _atom_site_fract_z
  _atom_site_occupancy
  Cl  Cl1       1.0  0.9431200623512268  0.34628939628601074  0.1112864688038826  1.0000
  Cl  Cl2       1.0  0.35640034079551697  0.0005657075671479106  0.2591572701931  1.0000
  Cl  Cl3       1.0  0.6696212887763977  0.982036828994751  0.749693751335144  1.0000
  Cl  Cl4       1.0  0.19356262683868408  0.39295151829719543  0.6304870247840881  1.0000
  Cl  Cl5       1.0  0.2071545571088791  0.4925941228866577  0.6129860281944275  1.0000
  Hf  Hf1       1.0  0.6844547390937805  0.8298818469047546  0.29140001535415644  1.0000
  K   K1        1.0  0.09718641638755798  0.7082624435424805  0.6473764777183533  1.0000
  O   O1        1.0  0.09422910958528519  0.5067610740661621  0.004071409814059734  1.0000
  O   O2        1.0  0.32006633281707764  0.0024412842467427254  0.45637181401252735  1.0000
  O   O3        1.0  0.7178802490234375  0.13618400692939758  0.6051046252250671  1.0000
  O   O4        1.0  0.24133387207984924  0.06972657889127731  0.6545690894126892  1.0000
  O   O5        1.0  0.10601180046796799  0.7029070854187012  0.19057866930961606  1.0000
  O   O6        1.0  0.5755767822265625  0.47128209471702576  0.023144293576478927  1.0000
