data_image0
_chemical_formula_structural       Cl7MgO4V
_chemical_formula_sum              "Cl7 Mg1 O4 V1"
_cell_length_a       7.4230111779476635
_cell_length_b       7.71685273967621
_cell_length_c       7.947202205657959
_cell_angle_alpha    65.53482907205917
_cell_angle_beta     63.62860009988442
_cell_angle_gamma    62.893391063317075

_space_group_name_H-M_alt    "P 1"
_space_group_IT_number       1

loop_
  _space_group_symop_operation_xyz
  'x, y, z'

loop_
  _atom_site_type_symbol
  _atom_site_label
  _atom_site_symmetry_multiplicity
  _atom_site_fract_x
  _atom_site_fract_y
  _atom_site_fract_z
  _atom_site_occupancy
  Cl  Cl1       1.0  0.3498077094554901  0.8143858313560486  0.9407194256782533  1.0000
  Cl  Cl2       1.0  0.8279520869255066  0.30783823132514954  0.9979800581932069  1.0000
  Cl  Cl3       1.0  0.28179362416267395  0.8060587644577026  0.0956629440188408  1.0000
  Cl  Cl4       1.0  0.04191434010863304  0.06462180614471436  0.8589832186698915  1.0000
  Cl  Cl5       1.0  0.2808844745159149  0.8091991543769836  0.10516235977411272  1.0000
  Cl  Cl6       1.0  0.6069266200065613  0.6609175205230713  0.5980637669563293  1.0000
  Cl  Cl7       1.0  0.539436936378479  0.5449261665344238  0.47631546854972845  1.0000
  Mg  Mg1       1.0  0.41718578338623047  0.3877274692058563  0.4600306451320649  1.0000
  O   O1        1.0  0.890941321849823  0.3165633976459503  0.10703131556510927  1.0000
  O   O2        1.0  0.415456622838974  0.8294553160667419  0.9580408930778505  1.0000
  O   O3        1.0  0.6825356483459473  0.4169018864631653  0.42409622669219976  1.0000
  O   O4        1.0  0.4438561201095581  0.5050275921821594  0.07961318641901016  1.0000
  V   V1        1.0  0.13033421337604523  0.17823469638824463  0.7972996830940248  1.0000
