data_image0
_chemical_formula_structural       Cl5KO6Pt
_chemical_formula_sum              "Cl5 K1 O6 Pt1"
_cell_length_a       6.9079395500097345
_cell_length_b       7.1993857791267075
_cell_length_c       7.0030198097229
_cell_angle_alpha    106.63486463006363
_cell_angle_beta     106.53178623145915
_cell_angle_gamma    113.85311837618404

_space_group_name_H-M_alt    "P 1"
_space_group_IT_number       1

loop_
  _space_group_symop_operation_xyz
  'x, y, z'

loop_
  _atom_site_type_symbol
  _atom_site_label
  _atom_site_symmetry_multiplicity
  _atom_site_fract_x
  _atom_site_fract_y
  _atom_site_fract_z
  _atom_site_occupancy
  Cl  Cl1       1.0  0.8970566391944885  0.9941065311431884  0.01602730900049197  1.0000
  Cl  Cl2       1.0  0.8818070292472839  0.5452287793159485  0.524747908115387  1.0000
  Cl  Cl3       1.0  0.42205551266670227  0.18924085795879364  0.8118833303451538  1.0000
  Cl  Cl4       1.0  0.10964763164520264  0.6404424905776978  0.6140266060829161  1.0000
  Cl  Cl5       1.0  0.18042032420635223  0.3595867156982422  0.02078094519674775  1.0000
  K   K1        1.0  0.032352570444345474  0.5148610472679138  0.3310837149620056  1.0000
  O   O1        1.0  0.843675971031189  0.31054621934890747  0.5207754969596863  1.0000
  O   O2        1.0  0.28369542956352234  0.7664227485656738  0.9020663499832153  1.0000
  O   O3        1.0  0.8376362919807434  0.17479971051216125  0.021166345104575157  1.0000
  O   O4        1.0  0.4748738408088684  0.1410815417766571  0.5157308578491211  1.0000
  O   O5        1.0  0.4540676474571228  0.6772293448448181  0.1785051822662353  1.0000
  O   O6        1.0  0.10096058249473572  0.8113935589790344  0.5179744362831115  1.0000
  Pt  Pt1       1.0  0.5257081389427185  0.02443748340010643  0.25004610419273376  1.0000
