data_image0
_chemical_formula_structural       Cl2Cr5O6
_chemical_formula_sum              "Cl2 Cr5 O6"
_cell_length_a       5.049648234405701
_cell_length_b       7.238653436560815
_cell_length_c       7.7323102951049805
_cell_angle_alpha    120.71871791456414
_cell_angle_beta     93.80103725341336
_cell_angle_gamma    90.16616881708013

_space_group_name_H-M_alt    "P 1"
_space_group_IT_number       1

loop_
  _space_group_symop_operation_xyz
  'x, y, z'

loop_
  _atom_site_type_symbol
  _atom_site_label
  _atom_site_symmetry_multiplicity
  _atom_site_fract_x
  _atom_site_fract_y
  _atom_site_fract_z
  _atom_site_occupancy
  Cl  Cl1       1.0  0.5356756448745728  0.3300287425518036  0.6711204648017883  1.0000
  Cl  Cl2       1.0  0.5536484718322754  0.9835287928581238  0.23809725046157845  1.0000
  Cr  Cr1       1.0  0.5513577461242676  0.4044884145259857  0.21675948798656464  1.0000
  Cr  Cr2       1.0  0.6223932504653931  0.5907807946205139  0.468033105134964  1.0000
  Cr  Cr3       1.0  0.5720289945602417  0.08882176131010056  0.7500167489051819  1.0000
  Cr  Cr4       1.0  0.06072869524359703  0.030655991286039352  0.8086290955543518  1.0000
  Cr  Cr5       1.0  0.05328613519668579  0.8572386503219604  0.2298660576343537  1.0000
  O   O1        1.0  0.12244059890508652  0.0712355524301529  0.471005916595459  1.0000
  O   O2        1.0  0.5649985671043396  0.5785959362983704  0.22123321890830994  1.0000
  O   O3        1.0  0.0028951168060302734  0.48901042342185974  0.20108149945735931  1.0000
  O   O4        1.0  0.047034356743097305  0.835493803024292  0.13954396545886993  1.0000
  O   O5        1.0  0.5146730542182922  0.06702455133199692  0.8894984722137451  1.0000
  O   O6        1.0  0.3850284218788147  0.44612640142440796  0.6145490407943726  1.0000
