data_image0
_chemical_formula_structural       Cl4CrKO6Zr
_chemical_formula_sum              "Cl4 Cr1 K1 O6 Zr1"
_cell_length_a       6.814668058986207
_cell_length_b       7.152785832443941
_cell_length_c       7.177750110626221
_cell_angle_alpha    104.3719469630169
_cell_angle_beta     105.31375646935578
_cell_angle_gamma    114.01279599188872

_space_group_name_H-M_alt    "P 1"
_space_group_IT_number       1

loop_
  _space_group_symop_operation_xyz
  'x, y, z'

loop_
  _atom_site_type_symbol
  _atom_site_label
  _atom_site_symmetry_multiplicity
  _atom_site_fract_x
  _atom_site_fract_y
  _atom_site_fract_z
  _atom_site_occupancy
  Cl  Cl1       1.0  0.009979378432035446  0.7961328625679016  0.9864801168441771  1.0000
  Cl  Cl2       1.0  0.38280737400054937  0.1405351608991623  0.9832109212875365  1.0000
  Cl  Cl3       1.0  0.027207795530557567  0.9977296590805053  0.34117153286933893  1.0000
  Cl  Cl4       1.0  0.8387820720672609  0.2395349144935608  0.7058544754981994  1.0000
  Cr  Cr1       1.0  0.6308049559593201  0.655056893825531  0.06558071076869965  1.0000
  K   K1        1.0  0.3024316430091858  0.7547756433486938  0.5713006854057312  1.0000
  O   O1        1.0  0.19634561240673068  0.8221086263656616  0.8964321017265319  1.0000
  O   O2        1.0  0.7494648694992067  0.4708110988140106  0.9019604325294494  1.0000
  O   O3        1.0  0.1632605344057083  0.4862942099571228  0.3038837611675262  1.0000
  O   O4        1.0  0.5376369953155518  0.8050687313079834  0.4734874069690704  1.0000
  O   O5        1.0  0.8950135707855226  0.2534736096858978  0.39863660931587214  1.0000
  O   O6        1.0  0.1705092489719391  0.21509654819965363  0.20638923346996305  1.0000
  Zr  Zr1       1.0  0.5060427188873291  0.3052101731300354  0.4832740128040313  1.0000
