data_image0
_chemical_formula_structural       ClCr5O6Te
_chemical_formula_sum              "Cl1 Cr5 O6 Te1"
_cell_length_a       6.969659154304401
_cell_length_b       7.085226383534077
_cell_length_c       7.396082401275635
_cell_angle_alpha    122.74177896350992
_cell_angle_beta     115.67618377372634
_cell_angle_gamma    90.73324318621239

_space_group_name_H-M_alt    "P 1"
_space_group_IT_number       1

loop_
  _space_group_symop_operation_xyz
  'x, y, z'

loop_
  _atom_site_type_symbol
  _atom_site_label
  _atom_site_symmetry_multiplicity
  _atom_site_fract_x
  _atom_site_fract_y
  _atom_site_fract_z
  _atom_site_occupancy
  Cl  Cl1       1.0  0.7944689989089966  0.8766218423843383  0.22853827476501454  1.0000
  Cr  Cr1       1.0  0.46640896797180176  0.3809630870819092  0.30617269873619074  1.0000
  Cr  Cr2       1.0  0.7360920310020447  0.13225381076335907  0.516516923904419  1.0000
  Cr  Cr3       1.0  0.9466568827629089  0.2858907878398895  0.014524851925671102  1.0000
  Cr  Cr4       1.0  0.23503074049949646  0.0910901129245758  0.5320181250572205  1.0000
  Cr  Cr5       1.0  0.9704537391662598  0.36436423659324646  0.7911199331283569  1.0000
  O   O1        1.0  0.11818397790193556  0.4653955399990081  0.3206153213977813  1.0000
  O   O2        1.0  0.9710244536399841  0.4118210077285766  0.7664960026741027  1.0000
  O   O3        1.0  0.614460289478302  0.9685740470886229  0.454813539981842  1.0000
  O   O4        1.0  0.7221542000770569  0.5001248121261597  0.5211429595947265  1.0000
  O   O5        1.0  0.6749570369720459  0.8483716249465941  0.7403029203414916  1.0000
  O   O6        1.0  0.4667033553123474  0.8517188429832457  0.7635398507118226  1.0000
  Te  Te1       1.0  0.9599676132202148  0.3515419363975525  0.01746348664164543  1.0000
