data_image0
_chemical_formula_structural       Ga2GeI2PtSb
_chemical_formula_sum              "Ga2 Ge1 I2 Pt1 Sb1"
_cell_length_a       5.212416530183681
_cell_length_b       6.029245633673685
_cell_length_c       6.529893398284912
_cell_angle_alpha    90.95561967170224
_cell_angle_beta     89.38644606008002
_cell_angle_gamma    87.87556526533226

_space_group_name_H-M_alt    "P 1"
_space_group_IT_number       1

loop_
  _space_group_symop_operation_xyz
  'x, y, z'

loop_
  _atom_site_type_symbol
  _atom_site_label
  _atom_site_symmetry_multiplicity
  _atom_site_fract_x
  _atom_site_fract_y
  _atom_site_fract_z
  _atom_site_occupancy
  Ga  Ga1       1.0  0.13290514051914215  0.577305793762207  0.7593104243278503  1.0000
  Ga  Ga2       1.0  0.6680887937545776  0.8526791334152222  0.019910359755158424  1.0000
  Ge  Ge1       1.0  0.14110176265239716  0.4781348109245301  0.22145360708236694  1.0000
  I   I1        1.0  0.6522495150566101  0.4612112641334534  0.9018692374229432  1.0000
  I   I2        1.0  0.14409102499485016  0.07715810835361481  0.5455235838890076  1.0000
  Pt  Pt1       1.0  0.6469305157661438  0.32352370023727417  0.6553903818130493  1.0000
  Sb  Sb1       1.0  0.6738153100013733  0.7853016257286072  0.9281045794487  1.0000
