data_image0
_chemical_formula_structural       Ga3Nb4
_chemical_formula_sum              "Ga3 Nb4"
_cell_length_a       5.043739857914309
_cell_length_b       5.358151930951376
_cell_length_c       6.132900238037109
_cell_angle_alpha    100.60389178577108
_cell_angle_beta     106.32015683116937
_cell_angle_gamma    89.03812131175444

_space_group_name_H-M_alt    "P 1"
_space_group_IT_number       1

loop_
  _space_group_symop_operation_xyz
  'x, y, z'

loop_
  _atom_site_type_symbol
  _atom_site_label
  _atom_site_symmetry_multiplicity
  _atom_site_fract_x
  _atom_site_fract_y
  _atom_site_fract_z
  _atom_site_occupancy
  Ga  Ga1       1.0  0.6991720199584961  0.7862537503242493  0.8284583687782288  1.0000
  Ga  Ga2       1.0  0.2047291100025177  0.7282113432884216  0.3273707330226898  1.0000
  Ga  Ga3       1.0  0.21893511712551117  0.41920703649520874  0.33366069197654724  1.0000
  Nb  Nb1       1.0  0.46510425209999084  0.22447192668914795  0.4427445232868195  1.0000
  Nb  Nb2       1.0  0.7201921343803406  0.605634868144989  0.8117512464523315  1.0000
  Nb  Nb3       1.0  0.2017894834280014  0.7295293211936951  0.3010863661766052  1.0000
  Nb  Nb4       1.0  0.7202848196029663  0.9986757040023804  0.2688046395778656  1.0000
