data_image0
_chemical_formula_structural       C2ClHg3KS3Th2
_chemical_formula_sum              "C2 Cl1 Hg3 K1 S3 Th2"
_cell_length_a       6.7298210909623615
_cell_length_b       6.906510838169466
_cell_length_c       8.259124755859375
_cell_angle_alpha    105.30270451490455
_cell_angle_beta     99.87010605694795
_cell_angle_gamma    111.38288642933557

_space_group_name_H-M_alt    "P 1"
_space_group_IT_number       1

loop_
  _space_group_symop_operation_xyz
  'x, y, z'

loop_
  _atom_site_type_symbol
  _atom_site_label
  _atom_site_symmetry_multiplicity
  _atom_site_fract_x
  _atom_site_fract_y
  _atom_site_fract_z
  _atom_site_occupancy
  C   C1        1.0  0.5082069039344788  0.6785079836845398  0.08392975479364392  1.0000
  C   C2        1.0  0.23964032530784599  0.9539038538932799  0.7328033447265625  1.0000
  Cl  Cl1       1.0  0.9371744990348816  0.21473893523216245  0.5556328296661377  1.0000
  Hg  Hg1       1.0  0.827460527420044  0.6237214207649231  0.26002591848373413  1.0000
  Hg  Hg2       1.0  0.2668273448944091  0.9562311768531798  0.1063125878572464  1.0000
  Hg  Hg3       1.0  0.2673996090888977  0.6030488610267639  0.6092417240142822  1.0000
  K   K1        1.0  0.8729585409164429  0.9901002645492553  0.37001553177833557  1.0000
  S   S1        1.0  0.22284726798534393  0.27405691146850586  0.30430838465690613  1.0000
  S   S2        1.0  0.03570103272795674  0.451518565416336  0.7934314608573914  1.0000
  S   S3        1.0  0.42324087023735046  0.6392455697059631  0.2709723114967346  1.0000
  Th  Th1       1.0  0.5411349534988403  0.21155035495758054  0.4880739748477936  1.0000
  Th  Th2       1.0  0.8435983061790466  0.4367439150810241  0.9920089840888977  1.0000
