data_image0
_chemical_formula_structural       CHg4NPtS2Th3
_chemical_formula_sum              "C1 Hg4 N1 Pt1 S2 Th3"
_cell_length_a       7.644607503405405
_cell_length_b       7.729522466629659
_cell_length_c       7.856897354125977
_cell_angle_alpha    106.64226642355867
_cell_angle_beta     105.64951682941496
_cell_angle_gamma    111.36075225794514

_space_group_name_H-M_alt    "P 1"
_space_group_IT_number       1

loop_
  _space_group_symop_operation_xyz
  'x, y, z'

loop_
  _atom_site_type_symbol
  _atom_site_label
  _atom_site_symmetry_multiplicity
  _atom_site_fract_x
  _atom_site_fract_y
  _atom_site_fract_z
  _atom_site_occupancy
  C   C1        1.0  0.9996770620346069  0.11349111050367354  0.5981364846229554  1.0000
  Hg  Hg1       1.0  0.9930340647697449  0.2913336157798767  0.09313213080167772  1.0000
  Hg  Hg2       1.0  0.7264196872711182  0.15968528389930725  0.44292393326759344  1.0000
  Hg  Hg3       1.0  0.5118250846862792  0.8084239959716796  0.8151078820228578  1.0000
  Hg  Hg4       1.0  0.004243924282491177  0.4672251939773559  0.31820490956306463  1.0000
  N   N1        1.0  0.7071180939674377  0.9190372228622435  0.5733520388603209  1.0000
  Pt  Pt1       1.0  0.014495337381958955  0.10538035631179808  0.09386553615331651  1.0000
  S   S1        1.0  0.5147436857223511  0.5867356061935425  0.8126786947250367  1.0000
  S   S2        1.0  0.7469567656517029  0.5151513814926147  0.12946829199790955  1.0000
  Th  Th1       1.0  0.4933691918849945  0.32018449902534485  0.10342624038457869  1.0000
  Th  Th2       1.0  0.25222465395927424  0.4684885740280151  0.6343777775764466  1.0000
  Th  Th3       1.0  0.9928188323974609  0.8548778891563414  0.8133686780929567  1.0000
