data_image0
_chemical_formula_structural       CHg3NRhSTh5
_chemical_formula_sum              "C1 Hg3 N1 Rh1 S1 Th5"
_cell_length_a       6.446452418928427
_cell_length_b       6.8587743015066405
_cell_length_c       9.06908893585205
_cell_angle_alpha    91.89797418296891
_cell_angle_beta     90.52916954733433
_cell_angle_gamma    109.79756358902841

_space_group_name_H-M_alt    "P 1"
_space_group_IT_number       1

loop_
  _space_group_symop_operation_xyz
  'x, y, z'

loop_
  _atom_site_type_symbol
  _atom_site_label
  _atom_site_symmetry_multiplicity
  _atom_site_fract_x
  _atom_site_fract_y
  _atom_site_fract_z
  _atom_site_occupancy
  C   C1        1.0  0.3764042258262634  0.4057588279247284  0.7767794132232666  1.0000
  Hg  Hg1       1.0  0.37187066674232483  0.2019123136997223  0.37783893942832947  1.0000
  Hg  Hg2       1.0  0.3595745861530304  0.9129863381385803  0.9003154635429382  1.0000
  Hg  Hg3       1.0  0.8875190019607544  0.9248651266098022  0.2811692953109741  1.0000
  N   N1        1.0  0.3939037024974823  0.9071062803268433  0.7760144472122192  1.0000
  Rh  Rh1       1.0  0.8741851449012756  0.9086954593658447  0.6296107172966003  1.0000
  S   S1        1.0  0.3686555027961731  0.6213712692260742  0.6746156811714172  1.0000
  Th  Th1       1.0  0.3766714036464691  0.41087424755096436  0.1459350436925888  1.0000
  Th  Th2       1.0  0.8775720000267029  0.8942064046859741  0.9478259682655334  1.0000
  Th  Th3       1.0  0.1596583127975464  0.4144885838031769  0.15652409195899963  1.0000
  Th  Th4       1.0  0.8812814354896545  0.14998525381088257  0.4931843876838684  1.0000
  Th  Th5       1.0  0.8616172075271606  0.4206329584121704  0.16089755296707153  1.0000
