data_image0
_chemical_formula_structural       C3Cl2HHg2S3Th
_chemical_formula_sum              "C3 Cl2 H1 Hg2 S3 Th1"
_cell_length_a       6.774927759098768
_cell_length_b       6.803963049867381
_cell_length_c       7.580878734588623
_cell_angle_alpha    69.31276331179062
_cell_angle_beta     68.79098857693288
_cell_angle_gamma    64.42859090098085

_space_group_name_H-M_alt    "P 1"
_space_group_IT_number       1

loop_
  _space_group_symop_operation_xyz
  'x, y, z'

loop_
  _atom_site_type_symbol
  _atom_site_label
  _atom_site_symmetry_multiplicity
  _atom_site_fract_x
  _atom_site_fract_y
  _atom_site_fract_z
  _atom_site_occupancy
  C   C1        1.0  0.23815301060676577  0.7726821899414062  0.8470469117164613  1.0000
  C   C2        1.0  0.24282585084438327  0.41933491826057434  0.6314604282379152  1.0000
  C   C3        1.0  0.4275245368480683  0.6259008646011353  0.9841629266738893  1.0000
  Cl  Cl1       1.0  0.45060732960700994  0.11854557693004608  0.8431938886642457  1.0000
  Cl  Cl2       1.0  0.08644144237041473  0.9023625254631042  0.53676837682724  1.0000
  H   H1        1.0  0.1279822587966919  0.12688075006008148  0.013006828725337984  1.0000
  Hg  Hg1       1.0  0.9371703863143922  0.6019089818000793  0.2563410997390747  1.0000
  Hg  Hg2       1.0  0.4370794892311097  0.6303755044937134  0.11935270577669145  1.0000
  S   S1        1.0  0.20641429722309115  0.09613595902919769  0.29689821600914  1.0000
  S   S2        1.0  0.5632292032241821  0.9011732339859009  0.47308549284935003  1.0000
  S   S3        1.0  0.9324082732200624  0.618303656578064  0.1830883175134659  1.0000
  Th  Th1       1.0  0.42853313684463507  0.10780574381351471  0.24560053646564484  1.0000
