data_image0
_chemical_formula_structural       CHg4KNS2Th3
_chemical_formula_sum              "C1 Hg4 K1 N1 S2 Th3"
_cell_length_a       6.170854110017666
_cell_length_b       6.476130646340484
_cell_length_c       8.887068748474121
_cell_angle_alpha    102.19624064280437
_cell_angle_beta     89.16902290548349
_cell_angle_gamma    89.1109451510876

_space_group_name_H-M_alt    "P 1"
_space_group_IT_number       1

loop_
  _space_group_symop_operation_xyz
  'x, y, z'

loop_
  _atom_site_type_symbol
  _atom_site_label
  _atom_site_symmetry_multiplicity
  _atom_site_fract_x
  _atom_site_fract_y
  _atom_site_fract_z
  _atom_site_occupancy
  C   C1        1.0  0.2684585452079773  0.37864792346954346  0.3787649869918823  1.0000
  Hg  Hg1       1.0  0.9744023084640503  0.3673307001590729  0.12463250756263733  1.0000
  Hg  Hg2       1.0  0.46799609065055847  0.8490674495697021  0.12425351142883304  1.0000
  Hg  Hg3       1.0  0.47475147247314453  0.13195568323135376  0.8887442350387573  1.0000
  Hg  Hg4       1.0  0.05813479796051979  0.6143261790275574  0.8985915184020996  1.0000
  K   K1        1.0  0.9566460251808167  0.3528611361980438  0.6273371577262878  1.0000
  N   N1        1.0  0.48587721586227417  0.8738430738449097  0.42009931802749634  1.0000
  S   S1        1.0  0.5052255392074585  0.3583114445209503  0.6475299000740051  1.0000
  S   S2        1.0  0.9887195825576782  0.8551833033561707  0.6318235397338867  1.0000
  Th  Th1       1.0  0.9825445413589478  0.34658581018447876  0.2613968253135681  1.0000
  Th  Th2       1.0  0.4634660482406616  0.36921176314353943  0.6233502626419067  1.0000
  Th  Th3       1.0  0.9676867723464966  0.10653190314769745  0.1280878484249115  1.0000
