data_image0
_chemical_formula_structural       C2ClHg2S6Sc
_chemical_formula_sum              "C2 Cl1 Hg2 S6 Sc1"
_cell_length_a       6.920556285388615
_cell_length_b       7.07544675267763
_cell_length_c       7.290964603424072
_cell_angle_alpha    112.50757044791582
_cell_angle_beta     113.0309572396611
_cell_angle_gamma    99.18049600015514

_space_group_name_H-M_alt    "P 1"
_space_group_IT_number       1

loop_
  _space_group_symop_operation_xyz
  'x, y, z'

loop_
  _atom_site_type_symbol
  _atom_site_label
  _atom_site_symmetry_multiplicity
  _atom_site_fract_x
  _atom_site_fract_y
  _atom_site_fract_z
  _atom_site_occupancy
  C   C1        1.0  0.6270213723182678  0.5343589782714844  0.6368713974952697  1.0000
  C   C2        1.0  0.05113275721669197  0.3471332788467407  0.8176325559616088  1.0000
  Cl  Cl1       1.0  0.6221919059753418  0.3311197757720947  0.3463804721832275  1.0000
  Hg  Hg1       1.0  0.8901483416557312  0.6338911056518555  0.6678748726844786  1.0000
  Hg  Hg2       1.0  0.1361391544342041  0.44720458984375  0.49874830245971674  1.0000
  S   S1        1.0  0.45656558871269226  0.9932336807250977  0.659678816795349  1.0000
  S   S2        1.0  0.6868578791618347  0.9245579242706299  0.13496746122837067  1.0000
  S   S3        1.0  0.18746231496334076  0.7071180939674377  0.04636173322796821  1.0000
  S   S4        1.0  0.9775133728981018  0.007582079153507948  0.2453065514564514  1.0000
  S   S5        1.0  0.9237719774246216  0.51047682762146  0.16439512372016904  1.0000
  S   S6        1.0  0.17185741662979126  0.3403162360191345  0.8803954124450682  1.0000
  Sc  Sc1       1.0  0.380003958940506  0.9967825412750244  0.1538014858961105  1.0000
