data_image0
_chemical_formula_structural       Cu2O7S2Sb2Sr4Tl
_chemical_formula_sum              "Cu2 O7 S2 Sb2 Sr4 Tl1"
_cell_length_a       8.771746770973067
_cell_length_b       8.768395473012495
_cell_length_c       8.72120189666748
_cell_angle_alpha    61.251979599727704
_cell_angle_beta     61.18040507994503
_cell_angle_gamma    61.508485221889316

_space_group_name_H-M_alt    "P 1"
_space_group_IT_number       1

loop_
  _space_group_symop_operation_xyz
  'x, y, z'

loop_
  _atom_site_type_symbol
  _atom_site_label
  _atom_site_symmetry_multiplicity
  _atom_site_fract_x
  _atom_site_fract_y
  _atom_site_fract_z
  _atom_site_occupancy
  Cu  Cu1       1.0  0.6696285009384155  0.25124412775039673  0.8811288475990295  1.0000
  Cu  Cu2       1.0  0.8034161329269409  0.9347758293151855  0.13275964558124542  1.0000
  O   O1        1.0  0.45110803842544556  0.9643545746803284  0.4543006122112274  1.0000
  O   O2        1.0  0.8601821064949036  0.8244377374649048  0.837292492389679  1.0000
  O   O3        1.0  0.3202666640281677  0.9310175776481628  0.1328761875629425  1.0000
  O   O4        1.0  0.025686971843242645  0.24573186039924622  0.4021689295768738  1.0000
  O   O5        1.0  0.5780279040336609  0.1297944188117981  0.11476819962263107  1.0000
  O   O6        1.0  0.6040627956390381  0.7869474291801453  0.3325529396533966  1.0000
  O   O7        1.0  0.8352357745170593  0.9620571732521057  0.7698348760604858  1.0000
  S   S1        1.0  0.8262263536453247  0.16775336861610413  0.612634003162384  1.0000
  S   S2        1.0  0.6043087244033813  0.6741726398468018  0.2836066782474518  1.0000
  Sb  Sb1       1.0  0.8265860080718994  0.44055595993995667  0.1684611737728119  1.0000
  Sb  Sb2       1.0  0.3094247579574585  0.5810126066207886  0.6160644292831421  1.0000
  Sr  Sr1       1.0  0.5427694320678711  0.7809346318244934  0.9515546560287476  1.0000
  Sr  Sr2       1.0  0.3219744861125946  0.6249719262123108  0.2261492908000946  1.0000
  Sr  Sr3       1.0  0.5446622967720032  0.2512284517288208  0.5377759337425232  1.0000
  Sr  Sr4       1.0  0.8367084264755249  0.026705292984843254  0.20426601171493527  1.0000
  Tl  Tl1       1.0  0.7325410842895508  0.5654469132423401  0.3263825476169586  1.0000
