data_image0
_chemical_formula_structural       ClCuO4Sb2Sr8Tl2
_chemical_formula_sum              "Cl1 Cu1 O4 Sb2 Sr8 Tl2"
_cell_length_a       9.256684697645516
_cell_length_b       9.608690450474068
_cell_length_c       8.952762603759766
_cell_angle_alpha    61.43327438761823
_cell_angle_beta     60.56125338903651
_cell_angle_gamma    62.13766625932435

_space_group_name_H-M_alt    "P 1"
_space_group_IT_number       1

loop_
  _space_group_symop_operation_xyz
  'x, y, z'

loop_
  _atom_site_type_symbol
  _atom_site_label
  _atom_site_symmetry_multiplicity
  _atom_site_fract_x
  _atom_site_fract_y
  _atom_site_fract_z
  _atom_site_occupancy
  Cl  Cl1       1.0  0.8362118005752563  0.3004436492919922  0.7412928342819214  1.0000
  Cu  Cu1       1.0  0.6796988844871521  0.4287124574184418  0.9366768598556519  1.0000
  O   O1        1.0  0.39344918727874756  0.9160663485527039  0.24365828931331635  1.0000
  O   O2        1.0  0.7596780061721802  0.26392698287963867  0.2450336515903473  1.0000
  O   O3        1.0  0.2041587382555008  0.4088863134384155  0.4038132131099701  1.0000
  O   O4        1.0  0.20467481017112732  0.3443010747432709  0.043092723935842514  1.0000
  Sb  Sb1       1.0  0.3234339654445648  0.9350454211235046  0.047279052436351776  1.0000
  Sb  Sb2       1.0  0.5815393924713135  0.5129432082176208  0.42690274119377136  1.0000
  Sr  Sr1       1.0  0.6230936646461487  0.679523229598999  0.6690074801445007  1.0000
  Sr  Sr2       1.0  0.30134502053260803  0.20929014682769775  0.005929106846451759  1.0000
  Sr  Sr3       1.0  0.620408296585083  0.26049232482910156  0.643613338470459  1.0000
  Sr  Sr4       1.0  0.629228949546814  0.7764014601707458  0.1929216980934143  1.0000
  Sr  Sr5       1.0  0.13290856778621674  0.3759676218032837  0.7187314033508301  1.0000
  Sr  Sr6       1.0  0.8750252723693848  0.9465278387069702  0.42379292845726013  1.0000
  Sr  Sr7       1.0  0.10484408587217331  0.9244957566261292  0.5724053382873535  1.0000
  Sr  Sr8       1.0  0.12380287051200867  0.7675974369049072  0.5219168663024902  1.0000
  Tl  Tl1       1.0  0.7873581051826477  0.2014980912208557  0.474060595035553  1.0000
  Tl  Tl2       1.0  0.048042766749858856  0.8002418279647827  0.7456898093223572  1.0000
