data_image0
_chemical_formula_structural       Cu6O7Sb2Sr3
_chemical_formula_sum              "Cu6 O7 Sb2 Sr3"
_cell_length_a       7.923161106870696
_cell_length_b       7.952958766785608
_cell_length_c       7.979217529296875
_cell_angle_alpha    60.12077200844931
_cell_angle_beta     58.8721634277584
_cell_angle_gamma    59.42216074856982

_space_group_name_H-M_alt    "P 1"
_space_group_IT_number       1

loop_
  _space_group_symop_operation_xyz
  'x, y, z'

loop_
  _atom_site_type_symbol
  _atom_site_label
  _atom_site_symmetry_multiplicity
  _atom_site_fract_x
  _atom_site_fract_y
  _atom_site_fract_z
  _atom_site_occupancy
  Cu  Cu1       1.0  0.9308959245681763  0.4198265969753265  0.2652820348739624  1.0000
  Cu  Cu2       1.0  0.5829054713249207  0.0800291895866394  0.8369001746177673  1.0000
  Cu  Cu3       1.0  0.08376262336969376  0.580966591835022  0.8450838923454285  1.0000
  Cu  Cu4       1.0  0.22717323899269104  0.2943613827228546  0.3283981382846832  1.0000
  Cu  Cu5       1.0  0.22614729404449463  0.2085691839456558  0.8394907116889954  1.0000
  Cu  Cu6       1.0  0.6154536008834839  0.8132416605949401  0.6956029534339906  1.0000
  O   O1        1.0  0.3899635076522827  0.7562314271926879  0.4428074657917024  1.0000
  O   O2        1.0  0.31966716051101685  0.6401172876358032  0.535704493522644  1.0000
  O   O3        1.0  0.17252838611602783  0.28658056259155273  0.8669942617416382  1.0000
  O   O4        1.0  0.9303402900695801  0.43575784564018244  0.6449300646781922  1.0000
  O   O5        1.0  0.9198298454284668  0.8737392425537108  0.44635674357414257  1.0000
  O   O6        1.0  0.37498852610588074  0.2784789502620697  0.0013371706008911133  1.0000
  O   O7        1.0  0.9549949169158936  0.45208936929702753  0.016799593344330788  1.0000
  Sb  Sb1       1.0  0.7372812628746033  0.5802599787712097  0.8258114457130433  1.0000
  Sb  Sb2       1.0  0.0830625519156456  0.07788782566785812  0.33245277404785156  1.0000
  Sr  Sr1       1.0  0.5482929944992065  0.0805472880601883  0.37857523560523987  1.0000
  Sr  Sr2       1.0  0.06286175549030304  0.08263199776411057  0.7658461928367615  1.0000
  Sr  Sr3       1.0  0.5200634598731995  0.028655093163251873  0.18356062471866608  1.0000
