data_image0
_chemical_formula_structural       CuO6SSr7Te2Tl
_chemical_formula_sum              "Cu1 O6 S1 Sr7 Te2 Tl1"
_cell_length_a       7.165250004839004
_cell_length_b       7.189715588217513
_cell_length_c       7.467288017272949
_cell_angle_alpha    93.54118702487929
_cell_angle_beta     104.68918329620044
_cell_angle_gamma    115.02664597951203

_space_group_name_H-M_alt    "P 1"
_space_group_IT_number       1

loop_
  _space_group_symop_operation_xyz
  'x, y, z'

loop_
  _atom_site_type_symbol
  _atom_site_label
  _atom_site_symmetry_multiplicity
  _atom_site_fract_x
  _atom_site_fract_y
  _atom_site_fract_z
  _atom_site_occupancy
  Cu  Cu1       1.0  0.5231537818908691  0.45903784036636347  0.1633900552988052  1.0000
  O   O1        1.0  0.06738423556089398  0.18389655649662015  0.5122944116592407  1.0000
  O   O2        1.0  0.4629438817501067  0.760039448738098  0.7965595126152039  1.0000
  O   O3        1.0  0.39701533317565907  0.804657220840454  0.24833714962005612  1.0000
  O   O4        1.0  0.8891068100929259  0.956376552581787  0.8433228731155396  1.0000
  O   O5        1.0  0.796287715435028  0.5503748059272766  0.8249890208244324  1.0000
  O   O6        1.0  0.2011162191629409  0.9355062246322631  0.4245651960372924  1.0000
  S   S1        1.0  0.574165940284729  0.45207941532135004  0.23812171816825864  1.0000
  Sr  Sr1       1.0  0.8272513151168822  0.2985948920249939  0.11788633465766907  1.0000
  Sr  Sr2       1.0  0.6264242529869078  0.4861569702625274  0.5586299896240234  1.0000
  Sr  Sr3       1.0  0.3782618939876556  0.3296511173248291  0.7754590511322021  1.0000
  Sr  Sr4       1.0  0.6616617441177367  0.10027634352445601  0.5846841931343079  1.0000
  Sr  Sr5       1.0  0.17739197611808774  0.5638532042503357  0.3619632422924042  1.0000
  Sr  Sr6       1.0  0.8552551269531249  0.8068605065345763  0.20873551070690152  1.0000
  Sr  Sr7       1.0  0.3794560134410857  0.9492732882499694  0.2856166362762451  1.0000
  Te  Te1       1.0  0.681395649909973  0.0746086835861206  0.7491967678070068  1.0000
  Te  Te2       1.0  0.99405038356781  0.2780109941959381  0.8117868900299072  1.0000
  Tl  Tl1       1.0  0.14585186541080475  0.5922175645828247  0.7373506426811218  1.0000
