data_image0
_chemical_formula_structural       CuO9SSr5Tl2
_chemical_formula_sum              "Cu1 O9 S1 Sr5 Tl2"
_cell_length_a       7.394896940970325
_cell_length_b       7.220862835161606
_cell_length_c       7.039993762969971
_cell_angle_alpha    106.7156323068895
_cell_angle_beta     109.85295750803219
_cell_angle_gamma    109.81216709706035

_space_group_name_H-M_alt    "P 1"
_space_group_IT_number       1

loop_
  _space_group_symop_operation_xyz
  'x, y, z'

loop_
  _atom_site_type_symbol
  _atom_site_label
  _atom_site_symmetry_multiplicity
  _atom_site_fract_x
  _atom_site_fract_y
  _atom_site_fract_z
  _atom_site_occupancy
  Cu  Cu1       1.0  0.8755975961685181  0.7862869501113892  0.6196377277374268  1.0000
  O   O1        1.0  0.8470020294189453  0.2758525609970093  0.25042298436164856  1.0000
  O   O2        1.0  0.6063867807388306  0.10625319182872772  0.984845757484436  1.0000
  O   O3        1.0  0.5102957487106323  0.42018330097198486  0.5023174285888672  1.0000
  O   O4        1.0  0.08619862794876099  0.6138036847114563  0.8799959421157837  1.0000
  O   O5        1.0  0.32658690214157104  0.042925864458084106  0.26242679357528687  1.0000
  O   O6        1.0  0.8815703988075256  0.3969869911670685  0.9846985340118408  1.0000
  O   O7        1.0  0.9341761469841003  0.33274054527282715  0.6685518026351929  1.0000
  O   O8        1.0  0.5607329607009888  0.3737604022026062  0.46067896485328674  1.0000
  O   O9        1.0  0.8583819270133972  0.9044941067695618  0.4924429953098297  1.0000
  S   S1        1.0  0.19067271053791046  0.15732291340827942  0.5822536945343018  1.0000
  Sr  Sr1       1.0  0.611365795135498  0.6037350296974182  0.9811886548995972  1.0000
  Sr  Sr2       1.0  0.6353191137313843  0.7221247553825378  0.7400198578834534  1.0000
  Sr  Sr3       1.0  0.1761082112789154  0.5389952063560486  0.6870388984680176  1.0000
  Sr  Sr4       1.0  0.14055101573467255  0.5773326754570007  0.356686532497406  1.0000
  Sr  Sr5       1.0  0.11473779380321503  0.9982390999794006  0.9939098358154297  1.0000
  Tl  Tl1       1.0  0.6216249465942383  0.02869701012969017  0.7434136271476746  1.0000
  Tl  Tl2       1.0  0.18600262701511383  0.8863419890403748  0.63156658411026  1.0000
