data_image0
_chemical_formula_structural       ClCu5O7SSbSr2Tl
_chemical_formula_sum              "Cl1 Cu5 O7 S1 Sb1 Sr2 Tl1"
_cell_length_a       7.675491737161434
_cell_length_b       7.544937041339831
_cell_length_c       7.573713302612305
_cell_angle_alpha    57.046592182285686
_cell_angle_beta     58.22745782287742
_cell_angle_gamma    58.066639291465606

_space_group_name_H-M_alt    "P 1"
_space_group_IT_number       1

loop_
  _space_group_symop_operation_xyz
  'x, y, z'

loop_
  _atom_site_type_symbol
  _atom_site_label
  _atom_site_symmetry_multiplicity
  _atom_site_fract_x
  _atom_site_fract_y
  _atom_site_fract_z
  _atom_site_occupancy
  Cl  Cl1       1.0  0.03264771029353142  0.23170700669288635  0.4237251281738282  1.0000
  Cu  Cu1       1.0  0.6556057929992676  0.11811590194702148  0.6323000192642212  1.0000
  Cu  Cu2       1.0  0.41780453920364374  0.9598340392112733  0.6824249625205994  1.0000
  Cu  Cu3       1.0  0.41320332884788513  0.5343177914619446  0.6853047609329224  1.0000
  Cu  Cu4       1.0  0.9045311808586121  0.9533926248550416  0.6424649357795715  1.0000
  Cu  Cu5       1.0  0.11906403303146362  0.5173775553703308  0.5288591384887695  1.0000
  O   O1        1.0  0.32011350989341736  0.7384616136550903  0.901396155357361  1.0000
  O   O2        1.0  0.6498972177505493  0.9782287478446962  0.8710910081863404  1.0000
  O   O3        1.0  0.5034399628639221  0.22793811559677124  0.17265982925891876  1.0000
  O   O4        1.0  0.6290348172187805  0.19219925999641418  0.974672555923462  1.0000
  O   O5        1.0  0.27547720074653625  0.22051844000816345  0.6022731065750122  1.0000
  O   O6        1.0  0.226963609457016  0.4154893457889557  0.10496348142623903  1.0000
  O   O7        1.0  0.21953952312469482  0.6201632022857666  0.08998461067676544  1.0000
  S   S1        1.0  0.3151509463787079  0.22446615993976593  0.3395543098449707  1.0000
  Sb  Sb1       1.0  0.4338086247444153  0.4040983021259308  0.12360627949237825  1.0000
  Sr  Sr1       1.0  0.7822676301002502  0.708083987236023  0.9202324748039247  1.0000
  Sr  Sr2       1.0  0.7947965860366821  0.25525540113449097  0.7074666619300842  1.0000
  Tl  Tl1       1.0  0.4449999928474426  0.6122367978096008  0.5833513736724854  1.0000
