data_image0
_chemical_formula_structural       BCoSb3Tb4
_chemical_formula_sum              "B1 Co1 Sb3 Tb4"
_cell_length_a       5.239615163130446
_cell_length_b       5.880046313606158
_cell_length_c       9.785232543945312
_cell_angle_alpha    91.94550040648087
_cell_angle_beta     89.94861754915243
_cell_angle_gamma    63.04972873240416

_space_group_name_H-M_alt    "P 1"
_space_group_IT_number       1

loop_
  _space_group_symop_operation_xyz
  'x, y, z'

loop_
  _atom_site_type_symbol
  _atom_site_label
  _atom_site_symmetry_multiplicity
  _atom_site_fract_x
  _atom_site_fract_y
  _atom_site_fract_z
  _atom_site_occupancy
  B   B1        1.0  0.9642127752304077  0.07275097072124481  0.9729585647583008  1.0000
  Co  Co1       1.0  0.6917822360992432  0.8038300275802612  0.7745401263237  1.0000
  Sb  Sb1       1.0  0.335524320602417  0.7793374061584473  0.9491564631462097  1.0000
  Sb  Sb2       1.0  0.005697326734662056  0.26844871044158936  0.36960941553115845  1.0000
  Sb  Sb3       1.0  0.34773895144462585  0.7786867022514343  0.26997411251068115  1.0000
  Tb  Tb1       1.0  0.4701058566570282  0.4474817216396332  0.4398515522480011  1.0000
  Tb  Tb2       1.0  0.022208891808986664  0.5602576732635498  0.26120176911354065  1.0000
  Tb  Tb3       1.0  0.6853777766227722  0.2962775230407715  0.5821016430854797  1.0000
  Tb  Tb4       1.0  0.6720856428146362  0.9875823855400085  0.564853310585022  1.0000
