data_image0
_chemical_formula_structural       BiClCoLaTb5
_chemical_formula_sum              "Bi1 Cl1 Co1 La1 Tb5"
_cell_length_a       4.715254467974822
_cell_length_b       4.848169164565418
_cell_length_c       10.87212085723877
_cell_angle_alpha    90.36534015046837
_cell_angle_beta     88.93652627870843
_cell_angle_gamma    113.39928860726238

_space_group_name_H-M_alt    "P 1"
_space_group_IT_number       1

loop_
  _space_group_symop_operation_xyz
  'x, y, z'

loop_
  _atom_site_type_symbol
  _atom_site_label
  _atom_site_symmetry_multiplicity
  _atom_site_fract_x
  _atom_site_fract_y
  _atom_site_fract_z
  _atom_site_occupancy
  Bi  Bi1       1.0  0.8771146535873413  0.13809753954410553  0.5498204827308655  1.0000
  Cl  Cl1       1.0  0.2855003774166107  0.2866438627243042  0.4743931293487549  1.0000
  Co  Co1       1.0  0.22303327918052673  0.280073344707489  0.9829093217849731  1.0000
  La  La1       1.0  0.6082896590232849  0.6502866148948669  0.880967915058136  1.0000
  Tb  Tb1       1.0  0.5569266080856323  0.6354897618293762  0.7696658968925476  1.0000
  Tb  Tb2       1.0  0.5613652467727661  0.7819904685020447  0.04518935829401016  1.0000
  Tb  Tb3       1.0  0.8482128381729126  0.27879512310028076  0.34710517525672907  1.0000
  Tb  Tb4       1.0  0.08250829577445984  0.6432756185531616  0.7571064233779907  1.0000
  Tb  Tb5       1.0  0.5390257239341736  0.6370867490768433  0.03658440709114075  1.0000
