data_image0
_chemical_formula_structural       BClCoSbTb5
_chemical_formula_sum              "B1 Cl1 Co1 Sb1 Tb5"
_cell_length_a       4.4119586943132445
_cell_length_b       5.723203283621587
_cell_length_c       9.628474235534668
_cell_angle_alpha    100.84339916953323
_cell_angle_beta     102.29415809484053
_cell_angle_gamma    89.31443156975497

_space_group_name_H-M_alt    "P 1"
_space_group_IT_number       1

loop_
  _space_group_symop_operation_xyz
  'x, y, z'

loop_
  _atom_site_type_symbol
  _atom_site_label
  _atom_site_symmetry_multiplicity
  _atom_site_fract_x
  _atom_site_fract_y
  _atom_site_fract_z
  _atom_site_occupancy
  B   B1        1.0  0.2347450703382492  0.36023494601249695  0.716935932636261  1.0000
  Cl  Cl1       1.0  0.34124305844306946  0.30989378690719604  0.7617654800415039  1.0000
  Co  Co1       1.0  0.27695658802986145  0.8303492665290834  0.2983553409576416  1.0000
  Sb  Sb1       1.0  0.3340674042701721  0.7796560525894166  0.4879855215549469  1.0000
  Tb  Tb1       1.0  0.8471179604530334  0.981331765651703  0.8366280198097229  1.0000
  Tb  Tb2       1.0  0.8953593373298645  0.5414775013923645  0.7153699398040771  1.0000
  Tb  Tb3       1.0  0.345586895942688  0.30015164613723755  0.07715379446744919  1.0000
  Tb  Tb4       1.0  0.783554196357727  0.3373386859893799  0.1627606451511383  1.0000
  Tb  Tb5       1.0  0.7477747797966003  0.11419453471899034  0.46283578872680664  1.0000
