data_image0
_chemical_formula_structural       ErIMoNiPbRuZr
_chemical_formula_sum              "Er1 I1 Mo1 Ni1 Pb1 Ru1 Zr1"
_cell_length_a       5.049593298242297
_cell_length_b       5.717341604931927
_cell_length_c       6.93889856338501
_cell_angle_alpha    114.3842323565152
_cell_angle_beta     109.95243641069669
_cell_angle_gamma    87.38141977005643

_space_group_name_H-M_alt    "P 1"
_space_group_IT_number       1

loop_
  _space_group_symop_operation_xyz
  'x, y, z'

loop_
  _atom_site_type_symbol
  _atom_site_label
  _atom_site_symmetry_multiplicity
  _atom_site_fract_x
  _atom_site_fract_y
  _atom_site_fract_z
  _atom_site_occupancy
  Er  Er1       1.0  0.773108720779419  0.5022433400154114  0.47144415974617004  1.0000
  I   I1        1.0  0.2570352256298065  0.6973634362220764  0.18370991945266724  1.0000
  Mo  Mo1       1.0  0.7622050046920776  0.7352721691131592  0.34376993775367737  1.0000
  Ni  Ni1       1.0  0.25828680396080017  0.6944085955619812  0.707510232925415  1.0000
  Pb  Pb1       1.0  0.7757407426834106  0.9567975997924805  0.10655098408460617  1.0000
  Ru  Ru1       1.0  0.2658665180206299  0.3593197464942932  0.09111203253269196  1.0000
  Zr  Zr1       1.0  0.7764931917190552  0.2814883589744568  0.7203500270843506  1.0000
