data_image0
_chemical_formula_structural       ClNi3ZnZr2
_chemical_formula_sum              "Cl1 Ni3 Zn1 Zr2"
_cell_length_a       5.442037526893812
_cell_length_b       5.0677845629280025
_cell_length_c       5.614928245544434
_cell_angle_alpha    60.7530973922375
_cell_angle_beta     64.6073177284327
_cell_angle_gamma    59.618745622381404

_space_group_name_H-M_alt    "P 1"
_space_group_IT_number       1

loop_
  _space_group_symop_operation_xyz
  'x, y, z'

loop_
  _atom_site_type_symbol
  _atom_site_label
  _atom_site_symmetry_multiplicity
  _atom_site_fract_x
  _atom_site_fract_y
  _atom_site_fract_z
  _atom_site_occupancy
  Cl  Cl1       1.0  0.5555523037910461  0.41357851028442383  0.15664370357990265  1.0000
  Ni  Ni1       1.0  0.571940004825592  0.7959277629852295  0.7496321797370911  1.0000
  Ni  Ni2       1.0  0.048235781490802765  0.5280140042304993  0.12716186046600342  1.0000
  Ni  Ni3       1.0  0.5644745230674744  0.05202716961503029  0.33429563045501715  1.0000
  Zn  Zn1       1.0  0.07433441281318665  0.12725214660167694  0.9793687462806702  1.0000
  Zr  Zr1       1.0  0.06083220988512039  0.4005284309387207  0.62494957447052  1.0000
  Zr  Zr2       1.0  0.5625366568565369  0.23653331398963928  0.5908495187759399  1.0000
