data_image0
_chemical_formula_structural       Co2GaIn4NiPb4Zr
_chemical_formula_sum              "Co2 Ga1 In4 Ni1 Pb4 Zr1"
_cell_length_a       5.7256163241170395
_cell_length_b       8.317394863490394
_cell_length_c       8.726733207702637
_cell_angle_alpha    120.87236671385352
_cell_angle_beta     89.61383302141057
_cell_angle_gamma    89.69251910155369

_space_group_name_H-M_alt    "P 1"
_space_group_IT_number       1

loop_
  _space_group_symop_operation_xyz
  'x, y, z'

loop_
  _atom_site_type_symbol
  _atom_site_label
  _atom_site_symmetry_multiplicity
  _atom_site_fract_x
  _atom_site_fract_y
  _atom_site_fract_z
  _atom_site_occupancy
  Co  Co1       1.0  0.7436448931694031  0.17975215613842013  0.39106953144073486  1.0000
  Co  Co2       1.0  0.24457481503486633  0.04144431278109551  0.4651142358779907  1.0000
  Ga  Ga1       1.0  0.2458229660987854  0.05640709027647973  0.20757530629634857  1.0000
  In  In1       1.0  0.48218637704849243  0.7562463879585267  0.564892053604126  1.0000
  In  In2       1.0  0.24589012563228607  0.08365224301815034  0.16834188997745514  1.0000
  In  In3       1.0  0.745976984500885  0.004103453829884529  0.11624924838542938  1.0000
  In  In4       1.0  0.9621286392211914  0.8982770442962648  0.9159975051879883  1.0000
  Ni  Ni1       1.0  0.7366394400596619  0.41471529006958013  0.2430027723312378  1.0000
  Pb  Pb1       1.0  0.7438177466392517  0.6862996816635133  0.8645461201667786  1.0000
  Pb  Pb2       1.0  0.24159015715122223  0.8461146950721742  0.07062207162380223  1.0000
  Pb  Pb3       1.0  0.741422712802887  0.8532609939575196  0.9878900647163391  1.0000
  Pb  Pb4       1.0  0.7459127902984619  0.15868212282657623  0.21578577160835266  1.0000
  Zr  Zr1       1.0  0.25190111994743347  0.39963427186012274  0.5006294250488281  1.0000
