data_image0
_chemical_formula_structural       CoIn2Ni3NpPb5Zn
_chemical_formula_sum              "Co1 In2 Ni3 Np1 Pb5 Zn1"
_cell_length_a       5.730278983709851
_cell_length_b       7.936734084172559
_cell_length_c       10.421162605285645
_cell_angle_alpha    109.06771947933163
_cell_angle_beta     89.65249401139414
_cell_angle_gamma    90.21724292718316

_space_group_name_H-M_alt    "P 1"
_space_group_IT_number       1

loop_
  _space_group_symop_operation_xyz
  'x, y, z'

loop_
  _atom_site_type_symbol
  _atom_site_label
  _atom_site_symmetry_multiplicity
  _atom_site_fract_x
  _atom_site_fract_y
  _atom_site_fract_z
  _atom_site_occupancy
  Co  Co1       1.0  0.584389865398407  0.11575281620025636  0.796073853969574  1.0000
  In  In1       1.0  0.0819879025220871  0.8886644244194032  0.8344354033470154  1.0000
  In  In2       1.0  0.0835684984922409  0.9256566166877748  0.2287435233592987  1.0000
  Ni  Ni1       1.0  0.5800244808197021  0.585646390914917  0.008898902684450172  1.0000
  Ni  Ni2       1.0  0.08348813652992249  0.633038341999054  0.7841809391975403  1.0000
  Ni  Ni3       1.0  0.08085844665765762  0.8359360694885255  0.7519567608833313  1.0000
  Np  Np1       1.0  0.573977828025818  0.8919175863265992  0.1994771659374237  1.0000
  Pb  Pb1       1.0  0.08153673261404037  0.7451066374778749  0.23003345727920532  1.0000
  Pb  Pb2       1.0  0.5841074585914612  0.4731970429420472  0.9860958456993103  1.0000
  Pb  Pb3       1.0  0.5790994763374329  0.7008563280105592  0.14339427649974826  1.0000
  Pb  Pb4       1.0  0.0821758359670639  0.5653761625289917  0.41563764214515686  1.0000
  Pb  Pb5       1.0  0.5819330811500549  0.5787174701690674  0.5233790874481201  1.0000
  Zn  Zn1       1.0  0.08321913331747055  0.2977897822856903  0.4627816379070282  1.0000
