data_image0
_chemical_formula_structural       CoFGaIn4LiNi3Zn2
_chemical_formula_sum              "Co1 F1 Ga1 In4 Li1 Ni3 Zn2"
_cell_length_a       5.350168725390657
_cell_length_b       5.028054872650129
_cell_length_c       9.115524291992188
_cell_angle_alpha    89.99987815699909
_cell_angle_beta     90.22176317948718
_cell_angle_gamma    96.74569602049493

_space_group_name_H-M_alt    "P 1"
_space_group_IT_number       1

loop_
  _space_group_symop_operation_xyz
  'x, y, z'

loop_
  _atom_site_type_symbol
  _atom_site_label
  _atom_site_symmetry_multiplicity
  _atom_site_fract_x
  _atom_site_fract_y
  _atom_site_fract_z
  _atom_site_occupancy
  Co  Co1       1.0  0.2410319447517395  0.8941445350646973  0.0699053406715393  1.0000
  F   F1        1.0  0.757888913154602  0.13510973751544952  0.5046437382698059  1.0000
  Ga  Ga1       1.0  0.24052977561950684  0.09191257506608963  0.11119747906923293  1.0000
  In  In1       1.0  0.9005415439605713  0.6386315822601318  0.8668913841247559  1.0000
  In  In2       1.0  0.7387153506278992  0.5772489309310913  0.2556362748146057  1.0000
  In  In3       1.0  0.9183657765388489  0.9165361523628235  0.6492760181427002  1.0000
  In  In4       1.0  0.7379649877548218  0.5642491579055786  0.6617091298103333  1.0000
  Li  Li1       1.0  0.24030344188213348  0.8377936482429504  0.6704548001289368  1.0000
  Ni  Ni1       1.0  0.4467678368091583  0.10464923083782196  0.8087416291236877  1.0000
  Ni  Ni2       1.0  0.22539390623569489  0.14955921471118927  0.35290881991386414  1.0000
  Ni  Ni3       1.0  0.3932161331176758  0.012330434285104275  0.6407854557037354  1.0000
  Zn  Zn1       1.0  0.3979639410972595  0.005249066278338432  0.3740276098251343  1.0000
  Zn  Zn2       1.0  0.740735650062561  0.48578810691833496  0.7763913869857788  1.0000
