data_image0
_chemical_formula_structural       In5Ni2Sm6
_chemical_formula_sum              "In5 Ni2 Sm6"
_cell_length_a       5.177469301119855
_cell_length_b       5.888495990628857
_cell_length_c       6.405637741088867
_cell_angle_alpha    84.76525587061478
_cell_angle_beta     86.11818613144379
_cell_angle_gamma    88.3539661573292

_space_group_name_H-M_alt    "P 1"
_space_group_IT_number       1

loop_
  _space_group_symop_operation_xyz
  'x, y, z'

loop_
  _atom_site_type_symbol
  _atom_site_label
  _atom_site_symmetry_multiplicity
  _atom_site_fract_x
  _atom_site_fract_y
  _atom_site_fract_z
  _atom_site_occupancy
  In  In1       1.0  0.9063017368316649  0.5500935912132263  0.7676345109939576  1.0000
  In  In2       1.0  0.40235221385955805  0.18803048133850098  0.19564977288246158  1.0000
  In  In3       1.0  0.40227666497230524  0.16356706619262695  0.739698350429535  1.0000
  In  In4       1.0  0.9004609584808348  0.18559569120407104  0.9022363424301149  1.0000
  In  In5       1.0  0.8977860212326049  0.5881021022796631  0.050599142909049995  1.0000
  Ni  Ni1       1.0  0.39743161201477045  0.8211874961853027  0.08879186213016511  1.0000
  Ni  Ni2       1.0  0.2637293040752411  0.44239088892936707  0.24014139175415042  1.0000
  Sm  Sm1       1.0  0.4049974679946899  0.394995778799057  0.35733422636985784  1.0000
  Sm  Sm2       1.0  0.8991873264312743  0.36011871695518494  0.5562719106674194  1.0000
  Sm  Sm3       1.0  0.8914308547973632  0.6645762920379639  0.11514859646558763  1.0000
  Sm  Sm4       1.0  0.8991867303848265  0.23900285363197327  0.3092021346092224  1.0000
  Sm  Sm5       1.0  0.39045345783233637  0.8067494630813599  0.42338714003562933  1.0000
  Sm  Sm6       1.0  0.40107026696205134  0.26511722803115845  0.2708079218864441  1.0000
