data_image0
_chemical_formula_structural       CoGaHIn5Ni4Zn
_chemical_formula_sum              "Co1 Ga1 H1 In5 Ni4 Zn1"
_cell_length_a       5.557748035529492
_cell_length_b       6.755626918661554
_cell_length_c       7.0799689292907715
_cell_angle_alpha    60.60126718167177
_cell_angle_beta     65.38936115258419
_cell_angle_gamma    65.66969789207224

_space_group_name_H-M_alt    "P 1"
_space_group_IT_number       1

loop_
  _space_group_symop_operation_xyz
  'x, y, z'

loop_
  _atom_site_type_symbol
  _atom_site_label
  _atom_site_symmetry_multiplicity
  _atom_site_fract_x
  _atom_site_fract_y
  _atom_site_fract_z
  _atom_site_occupancy
  Co  Co1       1.0  0.9012396931648254  0.4850092828273773  0.8691688179969788  1.0000
  Ga  Ga1       1.0  0.40456947684288025  0.954998254776001  0.9222901463508606  1.0000
  H   H1        1.0  0.4291013479232788  0.2953524589538574  0.028107861056923866  1.0000
  In  In1       1.0  0.40094825625419617  0.20802606642246246  0.4432186484336853  1.0000
  In  In2       1.0  0.40396156907081604  0.3134690523147583  0.2636703550815582  1.0000
  In  In3       1.0  0.9039997458457947  0.5936072468757629  0.8555173873901367  1.0000
  In  In4       1.0  0.4033902883529663  0.8907058238983154  0.04576050490140915  1.0000
  In  In5       1.0  0.8983634114265442  0.7426629066467285  0.4140150845050812  1.0000
  Ni  Ni1       1.0  0.4101349413394928  0.5975385308265686  0.9173033237457275  1.0000
  Ni  Ni2       1.0  0.9248256683349609  0.8552556037902832  0.18589207530021667  1.0000
  Ni  Ni3       1.0  0.4105655550956726  0.8080551624298096  0.11322157084941864  1.0000
  Ni  Ni4       1.0  0.9098642468452454  0.6216660141944885  0.7946854829788208  1.0000
  Zn  Zn1       1.0  0.9002436995506287  0.8030280470848083  0.43919360637664795  1.0000
