data_image0
_chemical_formula_structural       CrIn4Ni2Sm6
_chemical_formula_sum              "Cr1 In4 Ni2 Sm6"
_cell_length_a       5.3627703067571275
_cell_length_b       7.225569225177388
_cell_length_c       8.203048706054688
_cell_angle_alpha    91.25977132817377
_cell_angle_beta     90.62189167841801
_cell_angle_gamma    90.31822481199656

_space_group_name_H-M_alt    "P 1"
_space_group_IT_number       1

loop_
  _space_group_symop_operation_xyz
  'x, y, z'

loop_
  _atom_site_type_symbol
  _atom_site_label
  _atom_site_symmetry_multiplicity
  _atom_site_fract_x
  _atom_site_fract_y
  _atom_site_fract_z
  _atom_site_occupancy
  Cr  Cr1       1.0  0.3212898373603821  0.6649776697158813  0.18780264258384705  1.0000
  In  In1       1.0  0.8183690905570984  0.5002765655517578  0.6239644885063171  1.0000
  In  In2       1.0  0.8285775184631348  0.9873168468475342  0.922646701335907  1.0000
  In  In3       1.0  0.3124832212924957  0.14724843204021454  0.08272787183523178  1.0000
  In  In4       1.0  0.8142415881156921  0.5821035504341125  0.13908198475837708  1.0000
  Ni  Ni1       1.0  0.8198061585426331  0.8164159655570984  0.2276494950056076  1.0000
  Ni  Ni2       1.0  0.3167838156223297  0.9368048310279846  0.5931059718132019  1.0000
  Sm  Sm1       1.0  0.8321229815483093  0.8971320986747742  0.7138938307762146  1.0000
  Sm  Sm2       1.0  0.3319028615951538  0.44076475501060486  0.783301830291748  1.0000
  Sm  Sm3       1.0  0.32501840591430664  0.8309999704360962  0.04660414531826973  1.0000
  Sm  Sm4       1.0  0.814146101474762  0.7315443158149719  0.11039122939109802  1.0000
  Sm  Sm5       1.0  0.3271639049053192  0.9235674142837524  0.06720944494009018  1.0000
  Sm  Sm6       1.0  0.8277208805084229  0.8130362629890442  0.1798512488603592  1.0000
