data_image0
_chemical_formula_structural       Nb7
_chemical_formula_sum              "Nb7"
_cell_length_a       5.728524817372043
_cell_length_b       5.1928982579835194
_cell_length_c       6.233717918395996
_cell_angle_alpha    95.9914537837146
_cell_angle_beta     101.44881363371337
_cell_angle_gamma    124.91641081904602

_space_group_name_H-M_alt    "P 1"
_space_group_IT_number       1

loop_
  _space_group_symop_operation_xyz
  'x, y, z'

loop_
  _atom_site_type_symbol
  _atom_site_label
  _atom_site_symmetry_multiplicity
  _atom_site_fract_x
  _atom_site_fract_y
  _atom_site_fract_z
  _atom_site_occupancy
  Nb  Nb1       1.0  0.4263346791267395  0.2629970908164978  0.1302659809589386  1.0000
  Nb  Nb2       1.0  0.9611496925354004  0.15256363153457642  0.2572774589061737  1.0000
  Nb  Nb3       1.0  0.9435538649559021  0.5409144759178162  0.10654298216104507  1.0000
  Nb  Nb4       1.0  0.9773805141448975  0.8379829525947571  0.4979824125766753  1.0000
  Nb  Nb5       1.0  0.34346669912338257  0.7146314382553101  0.7337762713432312  1.0000
  Nb  Nb6       1.0  0.4097866415977478  0.647199809551239  0.6632823348045349  1.0000
  Nb  Nb7       1.0  0.6516429781913757  0.8527432680130005  0.4354434311389923  1.0000
