data_image0
_chemical_formula_structural       AsLa4PbZn
_chemical_formula_sum              "As1 La4 Pb1 Zn1"
_cell_length_a       4.2555906763291365
_cell_length_b       5.357846984135181
_cell_length_c       8.867400169372559
_cell_angle_alpha    107.17655163971895
_cell_angle_beta     106.73814478132533
_cell_angle_gamma    91.70027496366245

_space_group_name_H-M_alt    "P 1"
_space_group_IT_number       1

loop_
  _space_group_symop_operation_xyz
  'x, y, z'

loop_
  _atom_site_type_symbol
  _atom_site_label
  _atom_site_symmetry_multiplicity
  _atom_site_fract_x
  _atom_site_fract_y
  _atom_site_fract_z
  _atom_site_occupancy
  As  As1       1.0  0.7564425468444824  0.670990526676178  0.7352745532989502  1.0000
  La  La1       1.0  0.7434093356132507  0.198325976729393  0.056389834731817225  1.0000
  La  La2       1.0  0.2357041835784912  0.010578872635960579  0.18766279518604279  1.0000
  La  La3       1.0  0.22044789791107178  0.5832825899124146  0.36821651458740234  1.0000
  La  La4       1.0  0.5890660881996155  0.35537189245224  0.5609066486358643  1.0000
  Pb  Pb1       1.0  0.10460367798805237  0.6725680232048035  0.23835258185863495  1.0000
  Zn  Zn1       1.0  0.5053024888038635  0.7123097777366638  0.6959114074707031  1.0000
