data_image0
_chemical_formula_structural       Be4Ca2Hg3
_chemical_formula_sum              "Be4 Ca2 Hg3"
_cell_length_a       4.8879349506588765
_cell_length_b       6.206041902744409
_cell_length_c       6.216889381408691
_cell_angle_alpha    118.39166841089191
_cell_angle_beta     90.03158596127932
_cell_angle_gamma    90.11620803794501

_space_group_name_H-M_alt    "P 1"
_space_group_IT_number       1

loop_
  _space_group_symop_operation_xyz
  'x, y, z'

loop_
  _atom_site_type_symbol
  _atom_site_label
  _atom_site_symmetry_multiplicity
  _atom_site_fract_x
  _atom_site_fract_y
  _atom_site_fract_z
  _atom_site_occupancy
  Be  Be1       1.0  0.8598966002464294  0.3190177381038666  0.852821111679077  1.0000
  Be  Be2       1.0  0.09091963618993759  0.01982501894235611  0.6016458868980408  1.0000
  Be  Be3       1.0  0.3349291682243347  0.3160434663295746  0.850585401058197  1.0000
  Be  Be4       1.0  0.590297520160675  0.19699813425540924  0.0683395266532898  1.0000
  Ca  Ca1       1.0  0.08833079785108566  0.482561856508255  0.414293110370636  1.0000
  Ca  Ca2       1.0  0.08217913657426834  0.8951388597488403  0.07253054529428482  1.0000
  Hg  Hg1       1.0  0.5912936329841614  0.15638911724090576  0.45525380969047546  1.0000
  Hg  Hg2       1.0  0.5857269763946533  0.7817505598068237  0.736696720123291  1.0000
  Hg  Hg3       1.0  0.5873679518699646  0.6393237113952637  0.1989687830209732  1.0000
