data_image0
_chemical_formula_structural       BeCaClGeHfHgNaTe2
_chemical_formula_sum              "Be1 Ca1 Cl1 Ge1 Hf1 Hg1 Na1 Te2"
_cell_length_a       6.12700058778183
_cell_length_b       6.119541664136469
_cell_length_c       6.105771541595459
_cell_angle_alpha    96.63685536360018
_cell_angle_beta     96.41960997745068
_cell_angle_gamma    96.40404837741588

_space_group_name_H-M_alt    "P 1"
_space_group_IT_number       1

loop_
  _space_group_symop_operation_xyz
  'x, y, z'

loop_
  _atom_site_type_symbol
  _atom_site_label
  _atom_site_symmetry_multiplicity
  _atom_site_fract_x
  _atom_site_fract_y
  _atom_site_fract_z
  _atom_site_occupancy
  Be  Be1       1.0  0.22398704290390015  0.5813387632369995  0.3687990605831146  1.0000
  Ca  Ca1       1.0  0.5353060960769653  0.3629870116710663  0.09286048263311386  1.0000
  Cl  Cl1       1.0  0.06508029997348785  0.17906774580478668  0.9573987126350403  1.0000
  Ge  Ge1       1.0  0.8933828473091125  0.6398937702178955  0.37417200207710266  1.0000
  Hf  Hf1       1.0  0.5521875619888306  0.7831828594207764  0.5952228307723999  1.0000
  Hg  Hg1       1.0  0.046934694051742554  0.643176794052124  0.8261827230453491  1.0000
  Na  Na1       1.0  0.03514513373374939  0.1233237087726593  0.4415839910507202  1.0000
  Te  Te1       1.0  0.532810628414154  0.8653392791748047  0.13280723989009857  1.0000
  Te  Te2       1.0  0.5425863862037659  0.33239448070526123  0.6079050302505492  1.0000
