data_image0
_chemical_formula_structural       CClCuGeHf2HgTeZr
_chemical_formula_sum              "C1 Cl1 Cu1 Ge1 Hf2 Hg1 Te1 Zr1"
_cell_length_a       5.841539659482358
_cell_length_b       5.828557188587575
_cell_length_c       5.791879653930664
_cell_angle_alpha    92.75199474997963
_cell_angle_beta     92.04188911384848
_cell_angle_gamma    91.5735380372379

_space_group_name_H-M_alt    "P 1"
_space_group_IT_number       1

loop_
  _space_group_symop_operation_xyz
  'x, y, z'

loop_
  _atom_site_type_symbol
  _atom_site_label
  _atom_site_symmetry_multiplicity
  _atom_site_fract_x
  _atom_site_fract_y
  _atom_site_fract_z
  _atom_site_occupancy
  C   C1        1.0  0.829145610332489  0.03587150201201439  0.1370382159948349  1.0000
  Cl  Cl1       1.0  0.8756532669067383  0.46909937262535095  0.6739360690116882  1.0000
  Cu  Cu1       1.0  0.04502207785844803  0.08198999613523483  0.3435259759426117  1.0000
  Ge  Ge1       1.0  0.41611161828041077  0.17985281348228455  0.49130791425704956  1.0000
  Hf  Hf1       1.0  0.05590413883328438  0.08506783843040466  0.8515117168426514  1.0000
  Hf  Hf2       1.0  0.6580418348312378  0.7907561659812927  0.3484022319316864  1.0000
  Hg  Hg1       1.0  0.10660731047391891  0.5192199945449829  0.20873738825321195  1.0000
  Te  Te1       1.0  0.4000098705291748  0.7772672176361084  0.8591839671134949  1.0000
  Zr  Zr1       1.0  0.5698737502098083  0.2876395285129547  0.04888070374727249  1.0000
