data_image0
_chemical_formula_structural       AlBi5ClLi2
_chemical_formula_sum              "Al1 Bi5 Cl1 Li2"
_cell_length_a       5.939797348416826
_cell_length_b       6.257987431445403
_cell_length_c       6.865661144256592
_cell_angle_alpha    66.76060505199644
_cell_angle_beta     64.42779516506333
_cell_angle_gamma    61.90836787117983

_space_group_name_H-M_alt    "P 1"
_space_group_IT_number       1

loop_
  _space_group_symop_operation_xyz
  'x, y, z'

loop_
  _atom_site_type_symbol
  _atom_site_label
  _atom_site_symmetry_multiplicity
  _atom_site_fract_x
  _atom_site_fract_y
  _atom_site_fract_z
  _atom_site_occupancy
  Al  Al1       1.0  0.5043008923530579  0.5311642289161682  0.09471750259399414  1.0000
  Bi  Bi1       1.0  0.17143528163433075  0.2949247360229492  0.482765018939972  1.0000
  Bi  Bi2       1.0  0.5918589234352112  0.9863819479942322  0.772560179233551  1.0000
  Bi  Bi3       1.0  0.178606778383255  0.3038814663887024  0.23756846785545352  1.0000
  Bi  Bi4       1.0  0.8040978312492371  0.7125492095947266  0.5720105171203613  1.0000
  Bi  Bi5       1.0  0.41745811700820923  0.9788627028465271  0.26079413294792175  1.0000
  Cl  Cl1       1.0  0.7268402576446533  0.316864013671875  0.9972071051597596  1.0000
  Li  Li1       1.0  0.06619995087385178  0.9823169112205505  0.7156382203102112  1.0000
  Li  Li2       1.0  0.2646968960762024  0.6389138102531433  0.8654281497001648  1.0000
