data_image0
_chemical_formula_structural       Bi4Cl2Li2Tb
_chemical_formula_sum              "Bi4 Cl2 Li2 Tb1"
_cell_length_a       6.117715698259641
_cell_length_b       6.271958754895454
_cell_length_c       6.268743515014648
_cell_angle_alpha    61.35478498178588
_cell_angle_beta     61.39054933940112
_cell_angle_gamma    60.11673419672964

_space_group_name_H-M_alt    "P 1"
_space_group_IT_number       1

loop_
  _space_group_symop_operation_xyz
  'x, y, z'

loop_
  _atom_site_type_symbol
  _atom_site_label
  _atom_site_symmetry_multiplicity
  _atom_site_fract_x
  _atom_site_fract_y
  _atom_site_fract_z
  _atom_site_occupancy
  Bi  Bi1       1.0  0.22165639698505402  0.15396341681480408  0.6356080770492554  1.0000
  Bi  Bi2       1.0  0.3565886616706848  0.34237566590309143  0.8030968308448792  1.0000
  Bi  Bi3       1.0  0.8270928859710693  0.9996601343154907  0.4976665675640106  1.0000
  Bi  Bi4       1.0  0.200709268450737  0.7756168842315674  0.16555222868919373  1.0000
  Cl  Cl1       1.0  0.009821020066738129  0.08360374718904495  0.31599393486976624  1.0000
  Cl  Cl2       1.0  0.28293105959892273  0.05032827705144882  0.08026913553476334  1.0000
  Li  Li1       1.0  0.510932445526123  0.6209849715232849  0.8213077783584595  1.0000
  Li  Li2       1.0  0.018018795177340508  0.6131473183631897  0.8286006450653076  1.0000
  Tb  Tb1       1.0  0.35152968764305115  0.34381335973739624  0.2947676479816437  1.0000
