data_image0
_chemical_formula_structural       Bi3Cl3LiPTb
_chemical_formula_sum              "Bi3 Cl3 Li1 P1 Tb1"
_cell_length_a       6.845816015889289
_cell_length_b       7.112642371700652
_cell_length_c       7.062791347503662
_cell_angle_alpha    64.37115812438661
_cell_angle_beta     62.49089789657418
_cell_angle_gamma    62.09009344638847

_space_group_name_H-M_alt    "P 1"
_space_group_IT_number       1

loop_
  _space_group_symop_operation_xyz
  'x, y, z'

loop_
  _atom_site_type_symbol
  _atom_site_label
  _atom_site_symmetry_multiplicity
  _atom_site_fract_x
  _atom_site_fract_y
  _atom_site_fract_z
  _atom_site_occupancy
  Bi  Bi1       1.0  0.024549812078475952  0.7404983043670654  0.19981464743614197  1.0000
  Bi  Bi2       1.0  0.7722865343093872  0.19553442299365997  0.6063075661659241  1.0000
  Bi  Bi3       1.0  0.446271687746048  0.40780043601989746  0.01692703738808632  1.0000
  Cl  Cl1       1.0  0.7736333608627319  0.18181122839450836  0.18897858262062073  1.0000
  Cl  Cl2       1.0  0.26608213782310486  0.6806955337524414  0.09270916134119034  1.0000
  Cl  Cl3       1.0  0.8251049518585205  0.41256046295166016  0.5807353854179382  1.0000
  Li  Li1       1.0  0.25637954473495483  0.1762252300977707  0.6967897415161133  1.0000
  P   P1        1.0  0.24878047406673431  0.06287512183189392  0.694433331489563  1.0000
  Tb  Tb1       1.0  0.42158907651901245  0.4115275740623474  0.3488060235977173  1.0000
