data_image0
_chemical_formula_structural       Bi5Cl2Li2
_chemical_formula_sum              "Bi5 Cl2 Li2"
_cell_length_a       6.005589851185599
_cell_length_b       6.393528243401946
_cell_length_c       6.588131427764893
_cell_angle_alpha    65.09807135446255
_cell_angle_beta     64.00940630125723
_cell_angle_gamma    62.307412644143696

_space_group_name_H-M_alt    "P 1"
_space_group_IT_number       1

loop_
  _space_group_symop_operation_xyz
  'x, y, z'

loop_
  _atom_site_type_symbol
  _atom_site_label
  _atom_site_symmetry_multiplicity
  _atom_site_fract_x
  _atom_site_fract_y
  _atom_site_fract_z
  _atom_site_occupancy
  Bi  Bi1       1.0  0.03310740366578102  0.6459062695503235  0.23026941716670993  1.0000
  Bi  Bi2       1.0  0.7554978728294373  0.9406100511550903  0.03932354226708412  1.0000
  Bi  Bi3       1.0  0.4952748715877533  0.6429526805877686  0.2579124867916107  1.0000
  Bi  Bi4       1.0  0.05959158018231392  0.647142767906189  0.6755554676055908  1.0000
  Bi  Bi5       1.0  0.5562990307807922  0.15059658885002136  0.7418441176414489  1.0000
  Cl  Cl1       1.0  0.6903379559516907  0.37721869349479675  0.2457921355962753  1.0000
  Cl  Cl2       1.0  0.264360249042511  0.9355770945549011  0.5509108304977417  1.0000
  Li  Li1       1.0  0.07151482999324799  0.15113607048988342  0.012914827093482016  1.0000
  Li  Li2       1.0  0.058020442724227905  0.1493997424840927  0.4972453117370605  1.0000
