data_image0
_chemical_formula_structural       Bi6ClLi2
_chemical_formula_sum              "Bi6 Cl1 Li2"
_cell_length_a       5.666258701007148
_cell_length_b       6.023477304605308
_cell_length_c       6.349905490875244
_cell_angle_alpha    69.50989645165875
_cell_angle_beta     65.9726196460616
_cell_angle_gamma    64.3694809643283

_space_group_name_H-M_alt    "P 1"
_space_group_IT_number       1

loop_
  _space_group_symop_operation_xyz
  'x, y, z'

loop_
  _atom_site_type_symbol
  _atom_site_label
  _atom_site_symmetry_multiplicity
  _atom_site_fract_x
  _atom_site_fract_y
  _atom_site_fract_z
  _atom_site_occupancy
  Bi  Bi1       1.0  0.7384428977966309  0.6481532454490662  0.6681599020957948  1.0000
  Bi  Bi2       1.0  0.2802191376686096  0.1157323345541954  0.8485270738601686  1.0000
  Bi  Bi3       1.0  0.7694905996322632  0.4364994466304779  0.6689128279685975  1.0000
  Bi  Bi4       1.0  0.3147081434726715  0.32207876443862915  0.5210052728652954  1.0000
  Bi  Bi5       1.0  0.26905709505081177  0.029475344344973564  0.16658331453800204  1.0000
  Bi  Bi6       1.0  0.8068195581436157  0.1415323168039322  0.1753489971160889  1.0000
  Cl  Cl1       1.0  0.055230144411325455  0.6313257217407227  0.2169308662414551  1.0000
  Li  Li1       1.0  0.9031760692596436  0.8059205412864685  0.9031053185462953  1.0000
  Li  Li2       1.0  0.3433470129966736  0.6413742303848267  0.9678182005882264  1.0000
