data_image0
_chemical_formula_structural       Bi5Cl2Li2
_chemical_formula_sum              "Bi5 Cl2 Li2"
_cell_length_a       6.5329868639180635
_cell_length_b       6.938434979787683
_cell_length_c       7.306612968444824
_cell_angle_alpha    66.44501983677945
_cell_angle_beta     64.59176711501266
_cell_angle_gamma    62.201622740981904

_space_group_name_H-M_alt    "P 1"
_space_group_IT_number       1

loop_
  _space_group_symop_operation_xyz
  'x, y, z'

loop_
  _atom_site_type_symbol
  _atom_site_label
  _atom_site_symmetry_multiplicity
  _atom_site_fract_x
  _atom_site_fract_y
  _atom_site_fract_z
  _atom_site_occupancy
  Bi  Bi1       1.0  0.5536796450614929  0.1671471893787384  0.8354688882827759  1.0000
  Bi  Bi2       1.0  0.5094164609909058  0.6666845679283142  0.6805011630058289  1.0000
  Bi  Bi3       1.0  0.18185892701148987  0.305120587348938  0.03975607082247734  1.0000
  Bi  Bi4       1.0  0.7113144993782043  0.8047107458114624  0.5096710324287415  1.0000
  Bi  Bi5       1.0  0.8845712542533875  0.47470307350158697  0.6210805773735046  1.0000
  Cl  Cl1       1.0  0.29485777020454407  0.02359716035425663  0.6322469711303711  1.0000
  Cl  Cl2       1.0  0.5273638367652893  0.5278008580207825  0.2688908278942108  1.0000
  Li  Li1       1.0  0.8428236842155457  0.140786275267601  0.535645067691803  1.0000
  Li  Li2       1.0  0.15472009778022766  0.8134829998016357  0.778741180896759  1.0000
