data_image0
_chemical_formula_structural       I2PbV2Zn5
_chemical_formula_sum              "I2 Pb1 V2 Zn5"
_cell_length_a       5.632492266576105
_cell_length_b       5.612825021041835
_cell_length_c       9.73654842376709
_cell_angle_alpha    102.9986375177751
_cell_angle_beta     97.7361985485046
_cell_angle_gamma    100.22470638069001

_space_group_name_H-M_alt    "P 1"
_space_group_IT_number       1

loop_
  _space_group_symop_operation_xyz
  'x, y, z'

loop_
  _atom_site_type_symbol
  _atom_site_label
  _atom_site_symmetry_multiplicity
  _atom_site_fract_x
  _atom_site_fract_y
  _atom_site_fract_z
  _atom_site_occupancy
  I   I1        1.0  0.6782149076461792  0.7654798626899719  0.12547947466373444  1.0000
  I   I2        1.0  0.6775835752487183  0.42682069540023804  0.14165093004703522  1.0000
  Pb  Pb1       1.0  0.17995688319206238  0.5984076261520386  0.4495863616466522  1.0000
  V   V1        1.0  0.682174563407898  0.292390912771225  0.4466155171394348  1.0000
  V   V2        1.0  0.1775594800710678  0.9578048586845398  0.4000372290611267  1.0000
  Zn  Zn1       1.0  0.17936213314533234  0.5190109014511108  0.7113795280456543  1.0000
  Zn  Zn2       1.0  0.175930455327034  0.11436039209365845  0.49339213967323303  1.0000
  Zn  Zn3       1.0  0.1833954006433487  0.015562585555016994  0.9740541577339172  1.0000
  Zn  Zn4       1.0  0.6805026531219482  0.5923625230789185  0.4121450185775757  1.0000
  Zn  Zn5       1.0  0.18067774176597595  0.38446909189224243  0.9783246517181396  1.0000
