data_image0
_chemical_formula_structural       GaI3N2PbZn3
_chemical_formula_sum              "Ga1 I3 N2 Pb1 Zn3"
_cell_length_a       6.511938365399363
_cell_length_b       6.603839797613974
_cell_length_c       8.267617225646973
_cell_angle_alpha    104.02988776368473
_cell_angle_beta     102.03960262460222
_cell_angle_gamma    110.27785315305377

_space_group_name_H-M_alt    "P 1"
_space_group_IT_number       1

loop_
  _space_group_symop_operation_xyz
  'x, y, z'

loop_
  _atom_site_type_symbol
  _atom_site_label
  _atom_site_symmetry_multiplicity
  _atom_site_fract_x
  _atom_site_fract_y
  _atom_site_fract_z
  _atom_site_occupancy
  Ga  Ga1       1.0  0.9362637996673584  0.30543792247772217  0.005020779091864824  1.0000
  I   I1        1.0  0.32783859968185425  0.9648011922836304  0.19186234474182132  1.0000
  I   I2        1.0  0.8284142017364502  0.664838433265686  0.6672111749649048  1.0000
  I   I3        1.0  0.81316077709198  0.037727683782577515  0.05049046874046326  1.0000
  N   N1        1.0  0.3912123441696167  0.47510799765586853  0.7034757137298584  1.0000
  N   N2        1.0  0.15571188926696777  0.7891210317611694  0.8876880407333374  1.0000
  Pb  Pb1       1.0  0.8313007950782776  0.9718495607376099  0.21743658185005188  1.0000
  Zn  Zn1       1.0  0.33600836992263794  0.986320436000824  0.3777347207069397  1.0000
  Zn  Zn2       1.0  0.35987988114356995  0.46287593245506287  0.40292200446128845  1.0000
  Zn  Zn3       1.0  0.9164045453071594  0.32628515362739563  0.6480443477630615  1.0000
