data_image0
_chemical_formula_structural       FHIPb2SrZn4
_chemical_formula_sum              "F1 H1 I1 Pb2 Sr1 Zn4"
_cell_length_a       4.855478708048913
_cell_length_b       4.8473328350293166
_cell_length_c       10.171534538269043
_cell_angle_alpha    96.38019090272068
_cell_angle_beta     90.70456635896711
_cell_angle_gamma    104.72469105237536

_space_group_name_H-M_alt    "P 1"
_space_group_IT_number       1

loop_
  _space_group_symop_operation_xyz
  'x, y, z'

loop_
  _atom_site_type_symbol
  _atom_site_label
  _atom_site_symmetry_multiplicity
  _atom_site_fract_x
  _atom_site_fract_y
  _atom_site_fract_z
  _atom_site_occupancy
  F   F1        1.0  0.7024813294410706  0.617106556892395  0.21236747503280642  1.0000
  H   H1        1.0  0.708906888961792  0.11897962540388107  0.001270996523089707  1.0000
  I   I1        1.0  0.6966422200202942  0.8877220749855042  0.25973445177078247  1.0000
  Pb  Pb1       1.0  0.2023249864578247  0.21689851582050323  0.38778749108314514  1.0000
  Pb  Pb2       1.0  0.7019798159599304  0.6409577131271362  0.8764731287956239  1.0000
  Sr  Sr1       1.0  0.7013852596282959  0.5261114835739136  0.19582323729991913  1.0000
  Zn  Zn1       1.0  0.20244917273521423  0.46380946040153503  0.4244911074638367  1.0000
  Zn  Zn2       1.0  0.20119257271289825  0.07709464430809021  0.7006816864013672  1.0000
  Zn  Zn3       1.0  0.7017751336097717  0.6893227100372314  0.557395875453949  1.0000
  Zn  Zn4       1.0  0.2046513557434082  0.022444963455200195  0.17482303082942963  1.0000
