data_image0
_chemical_formula_structural       Nb10
_chemical_formula_sum              "Nb10"
_cell_length_a       4.232818225057728
_cell_length_b       4.112271948428519
_cell_length_c       8.545591354370117
_cell_angle_alpha    90.458980458382
_cell_angle_beta     90.1281581464176
_cell_angle_gamma    89.26344518253767

_space_group_name_H-M_alt    "P 1"
_space_group_IT_number       1

loop_
  _space_group_symop_operation_xyz
  'x, y, z'

loop_
  _atom_site_type_symbol
  _atom_site_label
  _atom_site_symmetry_multiplicity
  _atom_site_fract_x
  _atom_site_fract_y
  _atom_site_fract_z
  _atom_site_occupancy
  Nb  Nb1       1.0  0.4678272604942322  0.1720401793718338  0.3421049118041992  1.0000
  Nb  Nb2       1.0  0.4673510193824768  0.9601114392280579  0.09601036459207535  1.0000
  Nb  Nb3       1.0  0.46651867032051086  0.5612877011299133  0.1033787950873375  1.0000
  Nb  Nb4       1.0  0.9649201035499573  0.7085939645767212  0.5488856434822083  1.0000
  Nb  Nb5       1.0  0.967927098274231  0.9702621102333069  0.5859400033950806  1.0000
  Nb  Nb6       1.0  0.4657471477985382  0.8268823027610779  0.39477574825286865  1.0000
  Nb  Nb7       1.0  0.9685333371162415  0.24859920144081116  0.9557982683181763  1.0000
  Nb  Nb8       1.0  0.9672673940658569  0.5176617503166199  0.34527623653411865  1.0000
  Nb  Nb9       1.0  0.9670242667198181  0.86445552110672  0.11677829176187514  1.0000
  Nb  Nb10      1.0  0.4653620421886444  0.7279546856880188  0.9432346224784851  1.0000
