data_image0
_chemical_formula_structural       Nb10
_chemical_formula_sum              "Nb10"
_cell_length_a       5.28436498204272
_cell_length_b       4.193197591263546
_cell_length_c       9.914155960083008
_cell_angle_alpha    90.95254506690661
_cell_angle_beta     92.09205173127661
_cell_angle_gamma    145.20793567727455

_space_group_name_H-M_alt    "P 1"
_space_group_IT_number       1

loop_
  _space_group_symop_operation_xyz
  'x, y, z'

loop_
  _atom_site_type_symbol
  _atom_site_label
  _atom_site_symmetry_multiplicity
  _atom_site_fract_x
  _atom_site_fract_y
  _atom_site_fract_z
  _atom_site_occupancy
  Nb  Nb1       1.0  0.0612170472741127  0.5072746276855469  0.30917492508888245  1.0000
  Nb  Nb2       1.0  0.27482184767723083  0.9473485350608826  0.02659550867974758  1.0000
  Nb  Nb3       1.0  0.778939962387085  0.3940507173538208  0.8919929265975952  1.0000
  Nb  Nb4       1.0  0.8351214528083801  0.9373654127120972  0.6838130950927734  1.0000
  Nb  Nb5       1.0  0.6087560057640076  0.5380277037620544  0.7402189373970032  1.0000
  Nb  Nb6       1.0  0.2796792984008789  0.11512815952301025  0.8987897634506226  1.0000
  Nb  Nb7       1.0  0.1292605996131897  0.5402860641479492  0.9473448991775513  1.0000
  Nb  Nb8       1.0  0.7777502536773682  0.9652001857757568  0.9436335563659668  1.0000
  Nb  Nb9       1.0  0.5659850835800171  0.5058690905570984  0.8198179602622986  1.0000
  Nb  Nb10      1.0  0.5516841411590576  0.20749779045581818  0.0014163776068016887  1.0000
