data_image0
_chemical_formula_structural       HINNbNp2Zn4
_chemical_formula_sum              "H1 I1 N1 Nb1 Np2 Zn4"
_cell_length_a       5.517318455925499
_cell_length_b       5.789007249287463
_cell_length_c       8.151010513305664
_cell_angle_alpha    90.45066505065812
_cell_angle_beta     90.44972768154257
_cell_angle_gamma    90.16347854852943

_space_group_name_H-M_alt    "P 1"
_space_group_IT_number       1

loop_
  _space_group_symop_operation_xyz
  'x, y, z'

loop_
  _atom_site_type_symbol
  _atom_site_label
  _atom_site_symmetry_multiplicity
  _atom_site_fract_x
  _atom_site_fract_y
  _atom_site_fract_z
  _atom_site_occupancy
  H   H1        1.0  0.4200702607631683  0.31021493673324585  0.25846803188323975  1.0000
  I   I1        1.0  0.438357263803482  0.01635570451617241  0.5660098195075989  1.0000
  N   N1        1.0  0.7676806449890137  0.507468044757843  0.5815706253051758  1.0000
  Nb  Nb1       1.0  0.08603475242853165  0.06052016094326974  0.8766800761222839  1.0000
  Np  Np1       1.0  0.6096504330635071  0.22112426161766055  0.4267972409725189  1.0000
  Np  Np2       1.0  0.07304578274488449  0.021409474313259125  0.2553739845752716  1.0000
  Zn  Zn1       1.0  0.583061158657074  0.15601323544979095  0.8661648035049438  1.0000
  Zn  Zn2       1.0  0.5777148604393005  0.5807309746742249  0.23736509680747986  1.0000
  Zn  Zn3       1.0  0.09324634075164795  0.21238999068737033  0.08703470230102539  1.0000
  Zn  Zn4       1.0  0.08127488940954208  0.8070974349975587  0.8042775392532349  1.0000
