data_image0
_chemical_formula_structural       Al3Nd6SZn
_chemical_formula_sum              "Al3 Nd6 S1 Zn1"
_cell_length_a       6.394287390571358
_cell_length_b       6.839659195298759
_cell_length_c       7.207547664642334
_cell_angle_alpha    111.42462626505527
_cell_angle_beta     108.1632499641801
_cell_angle_gamma    105.88844932536024

_space_group_name_H-M_alt    "P 1"
_space_group_IT_number       1

loop_
  _space_group_symop_operation_xyz
  'x, y, z'

loop_
  _atom_site_type_symbol
  _atom_site_label
  _atom_site_symmetry_multiplicity
  _atom_site_fract_x
  _atom_site_fract_y
  _atom_site_fract_z
  _atom_site_occupancy
  Al  Al1       1.0  0.6105610132217407  0.14499838650226593  0.3577928841114044  1.0000
  Al  Al2       1.0  0.5379297733306885  0.04306677728891373  0.6913524866104126  1.0000
  Al  Al3       1.0  0.4326049983501435  0.4411008656024933  0.13264909386634824  1.0000
  Nd  Nd1       1.0  0.327167809009552  0.7910308837890625  0.8152144551277162  1.0000
  Nd  Nd2       1.0  0.35818126797676086  0.1383644938468933  0.29354652762413025  1.0000
  Nd  Nd3       1.0  0.9116045236587526  0.4252093732357025  0.019869007170200348  1.0000
  Nd  Nd4       1.0  0.8618749976158143  0.7836146354675293  0.4675086438655854  1.0000
  Nd  Nd5       1.0  0.8654330968856813  0.2818118631839752  0.24599121510982516  1.0000
  Nd  Nd6       1.0  0.17521753907203674  0.9387844800949097  0.0668625757098198  1.0000
  S   S1        1.0  0.884527623653412  0.780538022518158  0.6880956292152405  1.0000
  Zn  Zn1       1.0  0.605299174785614  0.6536574959754944  0.601523756980896  1.0000
