data_image0
_chemical_formula_structural       Al4Nd5SiZn
_chemical_formula_sum              "Al4 Nd5 Si1 Zn1"
_cell_length_a       5.439582895454363
_cell_length_b       6.850124841819046
_cell_length_c       6.935718536376953
_cell_angle_alpha    71.54784075931163
_cell_angle_beta     67.26980892519157
_cell_angle_gamma    67.56575642920885

_space_group_name_H-M_alt    "P 1"
_space_group_IT_number       1

loop_
  _space_group_symop_operation_xyz
  'x, y, z'

loop_
  _atom_site_type_symbol
  _atom_site_label
  _atom_site_symmetry_multiplicity
  _atom_site_fract_x
  _atom_site_fract_y
  _atom_site_fract_z
  _atom_site_occupancy
  Al  Al1       1.0  0.310185968875885  0.4600537121295929  0.5617466568946838  1.0000
  Al  Al2       1.0  0.9893492460250854  0.9048275947570801  0.25081029534339905  1.0000
  Al  Al3       1.0  0.9880130887031555  0.3692801296710968  0.3713015913963318  1.0000
  Al  Al4       1.0  0.07194440066814423  0.5703670382499695  0.8875804543495178  1.0000
  Nd  Nd1       1.0  0.8436182737350464  0.26895374059677124  0.11659761518239976  1.0000
  Nd  Nd2       1.0  0.7409514784812927  0.9360910058021545  0.5893000960350037  1.0000
  Nd  Nd3       1.0  0.23527158796787262  0.9741631746292114  0.9945060014724733  1.0000
  Nd  Nd4       1.0  0.23124635219573975  0.7780238389968872  0.9856767654418946  1.0000
  Nd  Nd5       1.0  0.6868419647216797  0.8365013003349304  0.9224560856819154  1.0000
  Si  Si1       1.0  0.6416852474212646  0.7474132776260376  0.31035929918289185  1.0000
  Zn  Zn1       1.0  0.3867107629776001  0.8448136448860168  0.20255683362483978  1.0000
