data_image0
_chemical_formula_structural       Al3Nd8
_chemical_formula_sum              "Al3 Nd8"
_cell_length_a       5.539842442037385
_cell_length_b       6.764403367804812
_cell_length_c       7.080400466918945
_cell_angle_alpha    107.65828277243504
_cell_angle_beta     89.34780890088557
_cell_angle_gamma    88.45577966415512

_space_group_name_H-M_alt    "P 1"
_space_group_IT_number       1

loop_
  _space_group_symop_operation_xyz
  'x, y, z'

loop_
  _atom_site_type_symbol
  _atom_site_label
  _atom_site_symmetry_multiplicity
  _atom_site_fract_x
  _atom_site_fract_y
  _atom_site_fract_z
  _atom_site_occupancy
  Al  Al1       1.0  0.19077326357364655  0.5370327830314636  0.8289499282836914  1.0000
  Al  Al2       1.0  0.3134582042694092  0.27519041299819946  0.6912286877632141  1.0000
  Al  Al3       1.0  0.060555148869752884  0.5494347810745239  0.6577361822128296  1.0000
  Nd  Nd1       1.0  0.8221992254257202  0.7815818190574646  0.18592968583106997  1.0000
  Nd  Nd2       1.0  0.8131946325302124  0.7745940685272217  0.6651856303215027  1.0000
  Nd  Nd3       1.0  0.8227325081825256  0.2650969624519348  0.46856045722961426  1.0000
  Nd  Nd4       1.0  0.3268856704235077  0.7662736177444458  0.6698473691940308  1.0000
  Nd  Nd5       1.0  0.828126847743988  0.5285114049911499  0.2126113325357437  1.0000
  Nd  Nd6       1.0  0.8060835599899292  0.7700186371803284  0.9119969010353088  1.0000
  Nd  Nd7       1.0  0.32771408557891846  0.04667780548334122  0.37424901127815247  1.0000
  Nd  Nd8       1.0  0.32858994603157043  0.057816147804260254  0.7125299572944641  1.0000
