data_image0
_chemical_formula_structural       Al3Nd8
_chemical_formula_sum              "Al3 Nd8"
_cell_length_a       6.053463899883357
_cell_length_b       6.662479784435557
_cell_length_c       7.32023286819458
_cell_angle_alpha    114.33090315391188
_cell_angle_beta     111.1840977536966
_cell_angle_gamma    90.58587418114057

_space_group_name_H-M_alt    "P 1"
_space_group_IT_number       1

loop_
  _space_group_symop_operation_xyz
  'x, y, z'

loop_
  _atom_site_type_symbol
  _atom_site_label
  _atom_site_symmetry_multiplicity
  _atom_site_fract_x
  _atom_site_fract_y
  _atom_site_fract_z
  _atom_site_occupancy
  Al  Al1       1.0  0.6852229237556458  0.36892297863960266  0.9215875267982483  1.0000
  Al  Al2       1.0  0.01767542026937008  0.4908899664878845  0.10240567475557327  1.0000
  Al  Al3       1.0  0.15906304121017456  0.5974989533424377  0.605583906173706  1.0000
  Nd  Nd1       1.0  0.5179176926612854  0.8103867769241333  0.011250134557485641  1.0000
  Nd  Nd2       1.0  0.8055300116539001  0.5853464007377625  0.7187512516975403  1.0000
  Nd  Nd3       1.0  0.2541739046573639  0.8742523789405823  0.5524681210517883  1.0000
  Nd  Nd4       1.0  0.7538349032402039  0.8259366750717163  0.5888248085975647  1.0000
  Nd  Nd5       1.0  0.3501652181148529  0.30136755108833313  0.31929343938827515  1.0000
  Nd  Nd6       1.0  0.04194727540016174  0.05798003450036049  0.41186022758483887  1.0000
  Nd  Nd7       1.0  0.05612371489405632  0.5607021450996399  0.36817610263824463  1.0000
  Nd  Nd8       1.0  0.678947389125824  0.03322071209549904  0.5657400488853455  1.0000
