data_image0
_chemical_formula_structural       Al3BNd7
_chemical_formula_sum              "Al3 B1 Nd7"
_cell_length_a       6.460977411545876
_cell_length_b       7.046808230525474
_cell_length_c       7.197189807891846
_cell_angle_alpha    112.7696335767795
_cell_angle_beta     105.9812758462347
_cell_angle_gamma    107.18299013505911

_space_group_name_H-M_alt    "P 1"
_space_group_IT_number       1

loop_
  _space_group_symop_operation_xyz
  'x, y, z'

loop_
  _atom_site_type_symbol
  _atom_site_label
  _atom_site_symmetry_multiplicity
  _atom_site_fract_x
  _atom_site_fract_y
  _atom_site_fract_z
  _atom_site_occupancy
  Al  Al1       1.0  0.6189186573028564  0.4323214292526245  0.5600743889808655  1.0000
  Al  Al2       1.0  0.9721367955207825  0.4254814088344574  0.8573603630065918  1.0000
  Al  Al3       1.0  0.420766681432724  0.9297443628311157  0.04204678535461432  1.0000
  B   B1        1.0  0.6219167709350586  0.44815000891685486  0.6832718253135681  1.0000
  Nd  Nd1       1.0  0.7338837385177612  0.4372672140598297  0.1657102108001709  1.0000
  Nd  Nd2       1.0  0.7457500100135803  0.6591249704360962  0.09172746539115906  1.0000
  Nd  Nd3       1.0  0.25289201736450195  0.6736955046653748  0.794876217842102  1.0000
  Nd  Nd4       1.0  0.48147761821746826  0.09817447513341904  0.06911205500364304  1.0000
  Nd  Nd5       1.0  0.9813332557678223  0.07975167036056519  0.07500580698251724  1.0000
  Nd  Nd6       1.0  0.25118929147720337  0.08275828510522842  0.3054122030735016  1.0000
  Nd  Nd7       1.0  0.2625730633735657  0.65676349401474  0.2693427801132202  1.0000
