data_image0
_chemical_formula_structural       Al4Nd7
_chemical_formula_sum              "Al4 Nd7"
_cell_length_a       5.48593383567893
_cell_length_b       7.038694589683432
_cell_length_c       7.435337543487549
_cell_angle_alpha    120.61897565019314
_cell_angle_beta     103.45896937464882
_cell_angle_gamma    87.31499822572765

_space_group_name_H-M_alt    "P 1"
_space_group_IT_number       1

loop_
  _space_group_symop_operation_xyz
  'x, y, z'

loop_
  _atom_site_type_symbol
  _atom_site_label
  _atom_site_symmetry_multiplicity
  _atom_site_fract_x
  _atom_site_fract_y
  _atom_site_fract_z
  _atom_site_occupancy
  Al  Al1       1.0  0.47804692387580866  0.4861949682235717  0.35374966263771057  1.0000
  Al  Al2       1.0  0.7256155610084534  0.7907934188842772  0.22184476256370544  1.0000
  Al  Al3       1.0  0.4457897841930389  0.7399407625198364  0.9257533550262451  1.0000
  Al  Al4       1.0  0.5661682486534119  0.10063680261373519  0.045877136290073395  1.0000
  Nd  Nd1       1.0  0.7219095826148987  0.2832154631614685  0.5416873693466187  1.0000
  Nd  Nd2       1.0  0.7224898934364319  0.7607195973396301  0.039862487465143204  1.0000
  Nd  Nd3       1.0  0.2187337279319763  0.2734776735305786  0.5232581496238708  1.0000
  Nd  Nd4       1.0  0.9624629020690917  0.9685800075531005  0.8200224041938782  1.0000
  Nd  Nd5       1.0  0.9602542519569396  0.45399084687232966  0.8248906135559082  1.0000
  Nd  Nd6       1.0  0.22764648497104642  0.7635952830314636  0.2969155311584472  1.0000
  Nd  Nd7       1.0  0.9586325883865355  0.3936184346675872  0.7863643765449524  1.0000
