data_image0
_chemical_formula_structural       MoO3P4Zr4
_chemical_formula_sum              "Mo1 O3 P4 Zr4"
_cell_length_a       5.006509666705886
_cell_length_b       5.210537942827768
_cell_length_c       9.535181999206543
_cell_angle_alpha    111.12951564207971
_cell_angle_beta     90.23823415342139
_cell_angle_gamma    87.42357569852481

_space_group_name_H-M_alt    "P 1"
_space_group_IT_number       1

loop_
  _space_group_symop_operation_xyz
  'x, y, z'

loop_
  _atom_site_type_symbol
  _atom_site_label
  _atom_site_symmetry_multiplicity
  _atom_site_fract_x
  _atom_site_fract_y
  _atom_site_fract_z
  _atom_site_occupancy
  Mo  Mo1       1.0  0.30959761142730713  0.1765786111354828  0.48701325058937067  1.0000
  O   O1        1.0  0.8197880387306213  0.932410717010498  0.406211793422699  1.0000
  O   O2        1.0  0.1556510627269745  0.06821240484714508  0.04828465357422829  1.0000
  O   O3        1.0  0.8246923089027405  0.7557069063186646  0.7791607975959778  1.0000
  P   P1        1.0  0.07759749889373779  0.8089979290962219  0.9041128158569335  1.0000
  P   P2        1.0  0.8118912577629089  0.2187325656414032  0.9316424727439879  1.0000
  P   P3        1.0  0.32259121537208557  0.6606951951980591  0.8678926229476928  1.0000
  P   P4        1.0  0.8168042302131653  0.40632957220077515  0.40576496720314026  1.0000
  Zr  Zr1       1.0  0.3336087763309479  0.3615146279335022  0.9581355452537536  1.0000
  Zr  Zr2       1.0  0.2959933876991272  0.094785675406456  0.04633405804634094  1.0000
  Zr  Zr3       1.0  0.8145710825920105  0.16853153705596924  0.28774112462997437  1.0000
  Zr  Zr4       1.0  0.5493543744087219  0.054303817451000214  0.6892590522766113  1.0000
