data_image0
_chemical_formula_structural       GaHIOP2PbZr5
_chemical_formula_sum              "Ga1 H1 I1 O1 P2 Pb1 Zr5"
_cell_length_a       4.926900231523942
_cell_length_b       5.304140797785926
_cell_length_c       8.579134941101074
_cell_angle_alpha    90.37068370961546
_cell_angle_beta     90.79462332695125
_cell_angle_gamma    88.482300339298

_space_group_name_H-M_alt    "P 1"
_space_group_IT_number       1

loop_
  _space_group_symop_operation_xyz
  'x, y, z'

loop_
  _atom_site_type_symbol
  _atom_site_label
  _atom_site_symmetry_multiplicity
  _atom_site_fract_x
  _atom_site_fract_y
  _atom_site_fract_z
  _atom_site_occupancy
  Ga  Ga1       1.0  0.5226966142654419  0.6189664602279663  0.710337221622467  1.0000
  H   H1        1.0  0.028846055269241333  0.5008817911148071  0.7611062526702881  1.0000
  I   I1        1.0  0.5256693363189697  0.19585841894149777  0.07903076708316803  1.0000
  O   O1        1.0  0.015311307273805141  0.2824808657169342  0.3729065954685211  1.0000
  P   P1        1.0  0.03283289447426796  0.18568214774131775  0.02531149983406067  1.0000
  P   P2        1.0  0.026874898001551628  0.32906097173690796  0.7317205667495728  1.0000
  Pb  Pb1       1.0  0.5202323794364929  0.8706105351448058  0.10242979228496552  1.0000
  Zr  Zr1       1.0  0.5288739204406738  0.19590795040130612  0.8805314898490906  1.0000
  Zr  Zr2       1.0  0.03862188756465912  0.4217852056026458  0.5531482696533202  1.0000
  Zr  Zr3       1.0  0.5164123773574829  0.5182501673698425  0.9244099855422974  1.0000
  Zr  Zr4       1.0  0.5260819196701051  0.20654682815074918  0.7914634346961975  1.0000
  Zr  Zr5       1.0  0.02488076686859131  0.7058245539665222  0.11314389109611511  1.0000
