data_image0
_chemical_formula_structural       H2IO4P3Zr2
_chemical_formula_sum              "H2 I1 O4 P3 Zr2"
_cell_length_a       4.7340275062667905
_cell_length_b       5.224654717540602
_cell_length_c       6.086053848266602
_cell_angle_alpha    115.01163556431027
_cell_angle_beta     107.07264609851762
_cell_angle_gamma    110.97266175354969

_space_group_name_H-M_alt    "P 1"
_space_group_IT_number       1

loop_
  _space_group_symop_operation_xyz
  'x, y, z'

loop_
  _atom_site_type_symbol
  _atom_site_label
  _atom_site_symmetry_multiplicity
  _atom_site_fract_x
  _atom_site_fract_y
  _atom_site_fract_z
  _atom_site_occupancy
  H   H1        1.0  0.3457981050014496  0.20570231974124908  0.2213873267173767  1.0000
  H   H2        1.0  0.3024894893169403  0.8838480114936829  0.6531896591186523  1.0000
  I   I1        1.0  0.6038317084312439  0.7006615996360779  0.008694729767739773  1.0000
  O   O1        1.0  0.04298456385731697  0.4272957444190979  0.259287565946579  1.0000
  O   O2        1.0  0.8437329530715942  0.9535025954246521  0.9504242539405823  1.0000
  O   O3        1.0  0.852524995803833  0.6448193788528442  0.9743079543113708  1.0000
  O   O4        1.0  0.29147017002105713  0.4496190547943115  0.8366610407829285  1.0000
  P   P1        1.0  0.5182703137397766  0.8063911199569702  0.26426962018012995  1.0000
  P   P2        1.0  0.8166022300720215  0.21382911503314972  0.19110853970050812  1.0000
  P   P3        1.0  0.28982165455818176  0.9296209812164307  0.9435035586357117  1.0000
  Zr  Zr1       1.0  0.6047697067260742  0.13341641426086426  0.5525524616241455  1.0000
  Zr  Zr2       1.0  0.28074347972869873  0.4971869885921478  0.4277203381061554  1.0000
