data_image0
_chemical_formula_structural       H3IO2P5Ti
_chemical_formula_sum              "H3 I1 O2 P5 Ti1"
_cell_length_a       5.682298566540527
_cell_length_b       6.157133028408416
_cell_length_c       8.10891342163086
_cell_angle_alpha    77.02785101199247
_cell_angle_beta     72.67385293837417
_cell_angle_gamma    68.58090042589994

_space_group_name_H-M_alt    "P 1"
_space_group_IT_number       1

loop_
  _space_group_symop_operation_xyz
  'x, y, z'

loop_
  _atom_site_type_symbol
  _atom_site_label
  _atom_site_symmetry_multiplicity
  _atom_site_fract_x
  _atom_site_fract_y
  _atom_site_fract_z
  _atom_site_occupancy
  H   H1        1.0  0.37129876017570496  0.5958962440490723  0.6806513667106628  1.0000
  H   H2        1.0  0.1201975792646408  0.48663952946662903  0.6367709636688232  1.0000
  H   H3        1.0  0.8391100764274597  0.8802725076675415  0.3219049870967865  1.0000
  I   I1        1.0  0.8094933032989502  0.33310559391975403  0.7917289733886719  1.0000
  O   O1        1.0  0.5984774827957153  0.824429452419281  0.3269430696964264  1.0000
  O   O2        1.0  0.31505364179611206  0.8181577324867249  0.2661615312099457  1.0000
  P   P1        1.0  0.8147284984588623  0.5619390606880188  0.8722227811813354  1.0000
  P   P2        1.0  0.6101114749908447  0.9829460382461548  0.25382134318351746  1.0000
  P   P3        1.0  0.12772461771965027  0.5024604797363281  0.6055772304534912  1.0000
  P   P4        1.0  0.3843366205692291  0.22799494862556458  0.004781712777912617  1.0000
  P   P5        1.0  0.13724349439144135  0.06091657280921936  0.34185081720352173  1.0000
  Ti  Ti1       1.0  0.3758435845375061  0.1072244867682457  0.2994662821292877  1.0000
