data_image0
_chemical_formula_structural       HO2P2Zr7
_chemical_formula_sum              "H1 O2 P2 Zr7"
_cell_length_a       4.638022106807986
_cell_length_b       4.459141498971515
_cell_length_c       9.930665016174316
_cell_angle_alpha    85.4072529498059
_cell_angle_beta     75.86854343236955
_cell_angle_gamma    58.286726963199655

_space_group_name_H-M_alt    "P 1"
_space_group_IT_number       1

loop_
  _space_group_symop_operation_xyz
  'x, y, z'

loop_
  _atom_site_type_symbol
  _atom_site_label
  _atom_site_symmetry_multiplicity
  _atom_site_fract_x
  _atom_site_fract_y
  _atom_site_fract_z
  _atom_site_occupancy
  H   H1        1.0  0.3687995970249176  0.5322882533073425  0.4999377727508545  1.0000
  O   O1        1.0  0.23260633647441858  0.4864329397678376  0.4909919500350952  1.0000
  O   O2        1.0  0.7140688300132751  0.5622656941413879  0.7862112522125244  1.0000
  P   P1        1.0  0.36932092905044556  0.5585556030273438  0.10188448429107666  1.0000
  P   P2        1.0  0.8767488598823547  0.43341663479805  0.7242165803909301  1.0000
  Zr  Zr1       1.0  0.8569880723953246  0.8988957405090333  0.8018151521682739  1.0000
  Zr  Zr2       1.0  0.38598740100860596  0.0033772266469895844  0.3973601758480072  1.0000
  Zr  Zr3       1.0  0.38584104180336  0.5019847750663757  0.2821063995361328  1.0000
  Zr  Zr4       1.0  0.38417693972587585  0.23412276804447177  0.7367575764656067  1.0000
  Zr  Zr5       1.0  0.06513837724924083  0.6984601616859437  0.44993844628334045  1.0000
  Zr  Zr6       1.0  0.877111256122589  0.9993081688880922  0.3508584499359131  1.0000
  Zr  Zr7       1.0  0.9169929623603821  0.3436011373996735  0.6618572473526001  1.0000
