data_image0
_chemical_formula_structural       HO4P2Zr5
_chemical_formula_sum              "H1 O4 P2 Zr5"
_cell_length_a       4.113921233531983
_cell_length_b       3.667355771361357
_cell_length_c       7.161097049713135
_cell_angle_alpha    125.54502595806001
_cell_angle_beta     104.09322167911566
_cell_angle_gamma    110.6787116060933

_space_group_name_H-M_alt    "P 1"
_space_group_IT_number       1

loop_
  _space_group_symop_operation_xyz
  'x, y, z'

loop_
  _atom_site_type_symbol
  _atom_site_label
  _atom_site_symmetry_multiplicity
  _atom_site_fract_x
  _atom_site_fract_y
  _atom_site_fract_z
  _atom_site_occupancy
  H   H1        1.0  0.6021192669868471  0.7562235593795781  0.7633370757102967  1.0000
  O   O1        1.0  0.8145775198936464  0.4412566721439363  0.4150699079036713  1.0000
  O   O2        1.0  0.8310037851333618  0.10815900564193727  0.021604157984256744  1.0000
  O   O3        1.0  0.145208552479744  0.6546791791915895  0.14578056335449222  1.0000
  O   O4        1.0  0.3146822154521944  0.13868904113769567  0.5929625630378724  1.0000
  P   P1        1.0  0.8023043870925903  0.34037578105926514  0.07903536409139633  1.0000
  P   P2        1.0  0.8382298350334167  0.14709249138832095  0.1469208151102066  1.0000
  Zr  Zr1       1.0  0.47113779187202465  0.3821279108524324  0.38960561156272894  1.0000
  Zr  Zr2       1.0  0.39619991183280967  0.42829030752182046  0.6885116696357728  1.0000
  Zr  Zr3       1.0  0.3529144823551178  0.45941734313964844  0.07267730683088304  1.0000
  Zr  Zr4       1.0  0.6231977939605715  0.8257641792297367  0.6123440861701966  1.0000
  Zr  Zr5       1.0  0.09009519964456578  0.3945571184158329  0.7238711118698121  1.0000
