data_image0
_chemical_formula_structural       Pr8S2ScSi2
_chemical_formula_sum              "Pr8 S2 Sc1 Si2"
_cell_length_a       6.028990880607391
_cell_length_b       8.245162607382365
_cell_length_c       9.24911880493164
_cell_angle_alpha    110.56458450879936
_cell_angle_beta     89.67509848289885
_cell_angle_gamma    88.96058627920108

_space_group_name_H-M_alt    "P 1"
_space_group_IT_number       1

loop_
  _space_group_symop_operation_xyz
  'x, y, z'

loop_
  _atom_site_type_symbol
  _atom_site_label
  _atom_site_symmetry_multiplicity
  _atom_site_fract_x
  _atom_site_fract_y
  _atom_site_fract_z
  _atom_site_occupancy
  Pr  Pr1       1.0  0.897473633289337  0.6878513693809508  0.9175507426261902  1.0000
  Pr  Pr2       1.0  0.3949581086635589  0.16500560939311978  0.8752281069755554  1.0000
  Pr  Pr3       1.0  0.3980655372142791  0.1668327748775482  0.5177755355834961  1.0000
  Pr  Pr4       1.0  0.39439684152603144  0.679931342601776  0.6272804737091064  1.0000
  Pr  Pr5       1.0  0.8938564658164977  0.1623645722866058  0.6243606805801392  1.0000
  Pr  Pr6       1.0  0.8967910408973693  0.13116122782230377  0.8734861612319946  1.0000
  Pr  Pr7       1.0  0.8848633766174315  0.6316971778869628  0.440016508102417  1.0000
  Pr  Pr8       1.0  0.38508698344230646  0.7192249298095702  0.16653539240360254  1.0000
  S   S1        1.0  0.3899914920330047  0.41084381937980646  0.3843948543071747  1.0000
  S   S2        1.0  0.38886201381683344  0.3252908587455749  0.7059265375137328  1.0000
  Sc  Sc1       1.0  0.3938565552234649  0.5159516930580139  0.011511752381920815  1.0000
  Si  Si1       1.0  0.889159321784973  0.5428182482719421  0.3268282413482666  1.0000
  Si  Si2       1.0  0.96479594707489  0.06863941252231598  0.0035177371464669674  1.0000
