data_image0
_chemical_formula_structural       Pr7S4Si2
_chemical_formula_sum              "Pr7 S4 Si2"
_cell_length_a       6.7426366759979315
_cell_length_b       7.880501956191893
_cell_length_c       8.979905128479004
_cell_angle_alpha    111.29702475386223
_cell_angle_beta     107.89585598398051
_cell_angle_gamma    89.55844478503144

_space_group_name_H-M_alt    "P 1"
_space_group_IT_number       1

loop_
  _space_group_symop_operation_xyz
  'x, y, z'

loop_
  _atom_site_type_symbol
  _atom_site_label
  _atom_site_symmetry_multiplicity
  _atom_site_fract_x
  _atom_site_fract_y
  _atom_site_fract_z
  _atom_site_occupancy
  Pr  Pr1       1.0  0.14920285344123843  0.849961817264557  0.8805027008056641  1.0000
  Pr  Pr2       1.0  0.12413879483938217  0.5523157119750977  0.12011956423521045  1.0000
  Pr  Pr3       1.0  0.0930318683385849  0.08712202310562134  0.08057994395494461  1.0000
  Pr  Pr4       1.0  0.8822451233863831  0.8592357635498048  0.7991760969161987  1.0000
  Pr  Pr5       1.0  0.6330856084823608  0.5818681716918945  0.7721626162528992  1.0000
  Pr  Pr6       1.0  0.11190731823444366  0.5935827493667603  0.4996984302997589  1.0000
  Pr  Pr7       1.0  0.14658953249454498  0.3526000380516052  0.05321527272462845  1.0000
  S   S1        1.0  0.6725953817367554  0.3535507023334503  0.8599347472190857  1.0000
  S   S2        1.0  0.6231050491333008  0.591373085975647  0.11968578398227692  1.0000
  S   S3        1.0  0.6330947279930115  0.33853867650032043  0.5459692478179932  1.0000
  S   S4        1.0  0.003819691948592663  0.27398693561553955  0.6437748670578003  1.0000
  Si  Si1       1.0  0.371755987405777  0.6486991047859192  0.21430493891239172  1.0000
  Si  Si2       1.0  0.38765454292297363  0.16126254200935364  0.28632959723472595  1.0000
