data_image0
_chemical_formula_structural       GeLaPr7S3Si
_chemical_formula_sum              "Ge1 La1 Pr7 S3 Si1"
_cell_length_a       7.382793747480791
_cell_length_b       8.422857552557947
_cell_length_c       9.568838119506836
_cell_angle_alpha    113.92543150752866
_cell_angle_beta     110.17720249940541
_cell_angle_gamma    89.6143564778672

_space_group_name_H-M_alt    "P 1"
_space_group_IT_number       1

loop_
  _space_group_symop_operation_xyz
  'x, y, z'

loop_
  _atom_site_type_symbol
  _atom_site_label
  _atom_site_symmetry_multiplicity
  _atom_site_fract_x
  _atom_site_fract_y
  _atom_site_fract_z
  _atom_site_occupancy
  Ge  Ge1       1.0  0.15995262563228607  0.13262268900871277  0.8759508728981018  1.0000
  La  La1       1.0  0.5374768972396851  0.14256657660007477  0.43108242750167847  1.0000
  Pr  Pr1       1.0  0.28568175435066223  0.460606724023819  0.2688256800174713  1.0000
  Pr  Pr2       1.0  0.02494543604552746  0.747109591960907  0.45054036378860474  1.0000
  Pr  Pr3       1.0  0.2725685238838196  0.6307368874549866  0.8367055654525757  1.0000
  Pr  Pr4       1.0  0.7871537208557129  0.4502180218696595  0.27982616424560547  1.0000
  Pr  Pr5       1.0  0.9935957193374635  0.35484740138053894  0.5835555791854858  1.0000
  Pr  Pr6       1.0  0.7886161208152771  0.7239363789558411  0.7980221509933472  1.0000
  Pr  Pr7       1.0  0.7778303027153015  0.29220786690711975  0.8623578548431396  1.0000
  S   S1        1.0  0.5216264128684998  0.9079905152320863  0.32381370663642883  1.0000
  S   S2        1.0  0.5079426765441895  0.3311687409877777  0.6195897459983826  1.0000
  S   S3        1.0  0.01698300428688526  0.029955126345157627  0.3926914632320404  1.0000
  Si  Si1       1.0  0.3774010241031647  0.5467134118080139  0.07581952959299088  1.0000
