data_image0
_chemical_formula_structural       LaPr9S3
_chemical_formula_sum              "La1 Pr9 S3"
_cell_length_a       7.591016223512069
_cell_length_b       8.536210359736339
_cell_length_c       9.133834838867188
_cell_angle_alpha    116.96842592087522
_cell_angle_beta     111.1475039473131
_cell_angle_gamma    89.89814713243673

_space_group_name_H-M_alt    "P 1"
_space_group_IT_number       1

loop_
  _space_group_symop_operation_xyz
  'x, y, z'

loop_
  _atom_site_type_symbol
  _atom_site_label
  _atom_site_symmetry_multiplicity
  _atom_site_fract_x
  _atom_site_fract_y
  _atom_site_fract_z
  _atom_site_occupancy
  La  La1       1.0  0.999723732471466  0.027481025084853172  0.21190732717514038  1.0000
  Pr  Pr1       1.0  0.6285974383354186  0.7446484565734863  0.5753524899482727  1.0000
  Pr  Pr2       1.0  0.7530333995819091  0.479277640581131  0.36415666341781616  1.0000
  Pr  Pr3       1.0  0.008882245980203152  0.9808300733566284  0.4378300905227661  1.0000
  Pr  Pr4       1.0  0.4955474734306335  0.4985474646091461  0.6514380574226379  1.0000
  Pr  Pr5       1.0  0.3108831048011779  0.8725742101669312  0.22295965254306793  1.0000
  Pr  Pr6       1.0  0.49830964207649225  0.9727827310562134  0.24090024828910825  1.0000
  Pr  Pr7       1.0  0.6122209429740905  0.044573746621608734  0.9751399159431456  1.0000
  Pr  Pr8       1.0  0.7527381181716918  0.408993661403656  0.2192552238702774  1.0000
  Pr  Pr9       1.0  0.8570687770843505  0.168649360537529  0.0979495644569397  1.0000
  S   S1        1.0  0.5099733471870422  0.5917872786521912  0.7580814957618713  1.0000
  S   S2        1.0  0.24362230300903318  0.47594019770622253  0.13014635443687442  1.0000
  S   S3        1.0  0.11237962543964385  0.6741045117378235  0.6312057971954346  1.0000
