data_image0
_chemical_formula_structural       Pr4S3Si6
_chemical_formula_sum              "Pr4 S3 Si6"
_cell_length_a       5.834352831148088
_cell_length_b       8.025364747129291
_cell_length_c       8.727283477783203
_cell_angle_alpha    115.05831804211336
_cell_angle_beta     92.67851672890426
_cell_angle_gamma    88.61405771694609

_space_group_name_H-M_alt    "P 1"
_space_group_IT_number       1

loop_
  _space_group_symop_operation_xyz
  'x, y, z'

loop_
  _atom_site_type_symbol
  _atom_site_label
  _atom_site_symmetry_multiplicity
  _atom_site_fract_x
  _atom_site_fract_y
  _atom_site_fract_z
  _atom_site_occupancy
  Pr  Pr1       1.0  0.3377975523471832  0.010263851843774319  0.31152772903442383  1.0000
  Pr  Pr2       1.0  0.7862738370895386  0.346135675907135  0.9768888354301453  1.0000
  Pr  Pr3       1.0  0.8271055817604065  0.7593547701835632  0.3887994587421417  1.0000
  Pr  Pr4       1.0  0.8349133729934692  0.32235029339790344  0.0584208220243454  1.0000
  S   S1        1.0  0.7980467677116394  0.47828182578086853  0.49595969915390015  1.0000
  S   S2        1.0  0.6925572752952576  0.6837765574455261  0.2283545881509781  1.0000
  S   S3        1.0  0.3266756534576416  0.009518327191472054  0.7260063886642456  1.0000
  Si  Si1       1.0  0.34095433354377747  0.8286330699920654  0.10353023558855057  1.0000
  Si  Si2       1.0  0.5260449051856995  0.17883378267288208  0.3916199505329132  1.0000
  Si  Si3       1.0  0.3328600525856018  0.09654676169157028  0.8298275470733643  1.0000
  Si  Si4       1.0  0.4671928584575653  0.687314510345459  0.5599974393844604  1.0000
  Si  Si5       1.0  0.2812773883342743  0.6649891138076782  0.8053202033042908  1.0000
  Si  Si6       1.0  0.014713449403643608  0.7118998169898987  0.12384802103042603  1.0000
