data_image0
_chemical_formula_structural       Pr5S3Si5
_chemical_formula_sum              "Pr5 S3 Si5"
_cell_length_a       6.469092283437485
_cell_length_b       8.579948155408736
_cell_length_c       8.933920860290527
_cell_angle_alpha    120.55228156927396
_cell_angle_beta     90.49034532152045
_cell_angle_gamma    89.21066180740368

_space_group_name_H-M_alt    "P 1"
_space_group_IT_number       1

loop_
  _space_group_symop_operation_xyz
  'x, y, z'

loop_
  _atom_site_type_symbol
  _atom_site_label
  _atom_site_symmetry_multiplicity
  _atom_site_fract_x
  _atom_site_fract_y
  _atom_site_fract_z
  _atom_site_occupancy
  Pr  Pr1       1.0  0.5905250310897827  0.3469007611274719  0.9631263613700867  1.0000
  Pr  Pr2       1.0  0.1148328110575676  0.12009656429290771  0.2445325404405594  1.0000
  Pr  Pr3       1.0  0.6085218191146851  0.861461341381073  0.5523010492324829  1.0000
  Pr  Pr4       1.0  0.11057167500257492  0.12041176110506058  0.6427235007286072  1.0000
  Pr  Pr5       1.0  0.1215069591999054  0.6501145958900452  0.3801033198833466  1.0000
  S   S1        1.0  0.07282691448926926  0.3789230287075043  0.6780191659927369  1.0000
  S   S2        1.0  0.6216160655021667  0.05909951403737068  0.17883503437042236  1.0000
  S   S3        1.0  0.6159126162528992  0.4727665185928345  0.5331456661224365  1.0000
  Si  Si1       1.0  0.09589903801679611  0.6308396458625793  0.9827622175216675  1.0000
  Si  Si2       1.0  0.8933805823326111  0.8326213955879211  0.907648503780365  1.0000
  Si  Si3       1.0  0.6196067929267883  0.30191200971603394  0.944146454334259  1.0000
  Si  Si4       1.0  0.3906060755252838  0.4682602882385254  0.4797036647796631  1.0000
  Si  Si5       1.0  0.5945560336112976  0.9903701543807983  0.13416421413421642  1.0000
