data_image0
_chemical_formula_structural       BaBiBrGeHgLaPrRhSnSrTeZr
_chemical_formula_sum              "Ba1 Bi1 Br1 Ge1 Hg1 La1 Pr1 Rh1 Sn1 Sr1 Te1 Zr1"
_cell_length_a       7.259338749115991
_cell_length_b       7.237611324065746
_cell_length_c       8.191030502319336
_cell_angle_alpha    90.00061819814799
_cell_angle_beta     89.98170160402498
_cell_angle_gamma    119.89795031775398

_space_group_name_H-M_alt    "P 1"
_space_group_IT_number       1

loop_
  _space_group_symop_operation_xyz
  'x, y, z'

loop_
  _atom_site_type_symbol
  _atom_site_label
  _atom_site_symmetry_multiplicity
  _atom_site_fract_x
  _atom_site_fract_y
  _atom_site_fract_z
  _atom_site_occupancy
  Ba  Ba1       1.0  0.3181644380092621  0.520392656326294  0.7589128017425537  1.0000
  Bi  Bi1       1.0  0.681655764579773  0.5466576218605042  0.5118711590766907  1.0000
  Br  Br1       1.0  0.6798185706138611  0.5698693990707397  0.023929951712489128  1.0000
  Ge  Ge1       1.0  0.9349344968795776  0.18888574838638306  0.5108614563941956  1.0000
  Hg  Hg1       1.0  0.3666307330131531  0.9241453409194946  0.5128589868545532  1.0000
  La  La1       1.0  0.010618762113153934  0.8817250728607178  0.756934106349945  1.0000
  Pr  Pr1       1.0  0.32749372720718384  0.24083396792411804  0.26368969678878784  1.0000
  Rh  Rh1       1.0  0.6680302023887634  0.19331851601600647  0.7133244276046754  1.0000
  Sn  Sn1       1.0  0.378305047750473  0.927607536315918  0.016298074275255203  1.0000
  Sr  Sr1       1.0  0.032821010798215866  0.5755700469017029  0.26407781243324285  1.0000
  Te  Te1       1.0  0.9407333731651306  0.19107310473918915  0.013671055436134338  1.0000
  Zr  Zr1       1.0  0.6839896440505981  0.9075382947921753  0.27742981910705566  1.0000
