data_image0
_chemical_formula_structural       Ba2Bi4Rh2Se2Sr2
_chemical_formula_sum              "Ba2 Bi4 Rh2 Se2 Sr2"
_cell_length_a       4.616636437593994
_cell_length_b       7.971019782452701
_cell_length_c       11.00994873046875
_cell_angle_alpha    92.26351750705938
_cell_angle_beta     90.04758031227658
_cell_angle_gamma    106.41425470492256

_space_group_name_H-M_alt    "P 1"
_space_group_IT_number       1

loop_
  _space_group_symop_operation_xyz
  'x, y, z'

loop_
  _atom_site_type_symbol
  _atom_site_label
  _atom_site_symmetry_multiplicity
  _atom_site_fract_x
  _atom_site_fract_y
  _atom_site_fract_z
  _atom_site_occupancy
  Ba  Ba1       1.0  0.4180701673030853  0.6309970021247864  0.4931184947490692  1.0000
  Ba  Ba2       1.0  0.929548978805542  0.6615126729011536  0.022106796503067017  1.0000
  Bi  Bi1       1.0  0.0561247281730175  0.9084004759788513  0.6693163514137268  1.0000
  Bi  Bi2       1.0  0.825509786605835  0.46093952655792236  0.7314869165420532  1.0000
  Bi  Bi3       1.0  0.5712499618530273  0.9417108297348022  0.911251723766327  1.0000
  Bi  Bi4       1.0  0.310124009847641  0.40324798226356506  0.1698814332485199  1.0000
  Rh  Rh1       1.0  0.638744592666626  0.08464941382408142  0.6640164256095886  1.0000
  Rh  Rh2       1.0  0.13387873768806458  0.08009611815214157  0.46383014321327215  1.0000
  Se  Se1       1.0  0.730657696723938  0.24532373249530792  0.4648248851299286  1.0000
  Se  Se2       1.0  0.018756641075015068  0.8380629420280457  0.3111734390258789  1.0000
  Sr  Sr1       1.0  0.6425508856773376  0.0836372971534729  0.20781929790973663  1.0000
  Sr  Sr2       1.0  0.22158537805080414  0.24796269834041595  0.881048858165741  1.0000
