data_image0
_chemical_formula_structural       Ba2BiBrFGeNPrRhSn2Sr
_chemical_formula_sum              "Ba2 Bi1 Br1 F1 Ge1 N1 Pr1 Rh1 Sn2 Sr1"
_cell_length_a       7.072363407576353
_cell_length_b       7.055725776806569
_cell_length_c       7.050764083862305
_cell_angle_alpha    90.74378180742731
_cell_angle_beta     90.72946975054637
_cell_angle_gamma    90.68002541649366

_space_group_name_H-M_alt    "P 1"
_space_group_IT_number       1

loop_
  _space_group_symop_operation_xyz
  'x, y, z'

loop_
  _atom_site_type_symbol
  _atom_site_label
  _atom_site_symmetry_multiplicity
  _atom_site_fract_x
  _atom_site_fract_y
  _atom_site_fract_z
  _atom_site_occupancy
  Ba  Ba1       1.0  0.2499581128358841  0.5510388612747192  0.665780246257782  1.0000
  Ba  Ba2       1.0  0.24550148844718933  0.955183207988739  0.12843213975429535  1.0000
  Bi  Bi1       1.0  0.036124199628829956  0.042419951409101486  0.6518266201019287  1.0000
  Br  Br1       1.0  0.09712973982095718  0.4672686457633972  0.1555209457874298  1.0000
  F   F1        1.0  0.4540477693080902  0.841703474521637  0.4600083827972412  1.0000
  Ge  Ge1       1.0  0.7551133632659912  0.9983341693878174  0.015385001897811888  1.0000
  N   N1        1.0  0.5452941060066223  0.7143611907958984  0.9792249798774719  1.0000
  Pr  Pr1       1.0  0.7784479856491089  0.7822423577308655  0.3364158272743225  1.0000
  Rh  Rh1       1.0  0.7500998377799988  0.7711713314056396  0.803149402141571  1.0000
  Sn  Sn1       1.0  0.5215117931365967  0.07920709252357483  0.6798676252365113  1.0000
  Sn  Sn2       1.0  0.7504703998565674  0.42954155802726746  0.6117518544197083  1.0000
  Sr  Sr1       1.0  0.6162168383598328  0.3940584659576416  0.09735207259654999  1.0000
