data_image0
_chemical_formula_structural       Ba2Bi3Rh2Se3Sr2
_chemical_formula_sum              "Ba2 Bi3 Rh2 Se3 Sr2"
_cell_length_a       7.110164020721103
_cell_length_b       7.110510305410441
_cell_length_c       8.258967399597168
_cell_angle_alpha    104.02935396483397
_cell_angle_beta     104.1535824381195
_cell_angle_gamma    109.68270949541996

_space_group_name_H-M_alt    "P 1"
_space_group_IT_number       1

loop_
  _space_group_symop_operation_xyz
  'x, y, z'

loop_
  _atom_site_type_symbol
  _atom_site_label
  _atom_site_symmetry_multiplicity
  _atom_site_fract_x
  _atom_site_fract_y
  _atom_site_fract_z
  _atom_site_occupancy
  Ba  Ba1       1.0  0.7735721468925476  0.6784610748291016  0.6687678694725037  1.0000
  Ba  Ba2       1.0  0.6784206628799438  0.8422932624816895  0.17064283788204193  1.0000
  Bi  Bi1       1.0  0.14866843819618225  0.06660198420286179  0.14892230927944183  1.0000
  Bi  Bi2       1.0  0.2696385979652405  0.6705148220062256  0.8038939237594604  1.0000
  Bi  Bi3       1.0  0.9725998640060425  0.14536865055561066  0.6629259586334229  1.0000
  Rh  Rh1       1.0  0.34395405650138855  0.3564375936985016  0.932435929775238  1.0000
  Rh  Rh2       1.0  0.0878426805138588  0.3487585783004761  0.44096723198890686  1.0000
  Se  Se1       1.0  0.6024538278579712  0.4138799011707306  0.8664270639419556  1.0000
  Se  Se2       1.0  0.7091900110244751  0.2830786108970642  0.31875818967819214  1.0000
  Se  Se3       1.0  0.35914623737335205  0.6345672011375427  0.35022637248039246  1.0000
  Sr  Sr1       1.0  0.39753949642181396  0.05956712365150452  0.5639266967773438  1.0000
  Sr  Sr2       1.0  0.9576981663703918  0.4377148151397705  0.06525478512048721  1.0000
