data_image0
_chemical_formula_structural       GaNi2Zr8
_chemical_formula_sum              "Ga1 Ni2 Zr8"
_cell_length_a       5.585481538599782
_cell_length_b       7.122976509771376
_cell_length_c       7.323116302490234
_cell_angle_alpha    123.33210956348448
_cell_angle_beta     90.1202073018361
_cell_angle_gamma    89.58660667775699

_space_group_name_H-M_alt    "P 1"
_space_group_IT_number       1

loop_
  _space_group_symop_operation_xyz
  'x, y, z'

loop_
  _atom_site_type_symbol
  _atom_site_label
  _atom_site_symmetry_multiplicity
  _atom_site_fract_x
  _atom_site_fract_y
  _atom_site_fract_z
  _atom_site_occupancy
  Ga  Ga1       1.0  0.8224587440490723  0.7917885780334473  0.45330199599266047  1.0000
  Ni  Ni1       1.0  0.8358003497123718  0.8733934760093689  0.09568028897047041  1.0000
  Ni  Ni2       1.0  0.3311385214328766  0.7353489995002747  0.9182671308517455  1.0000
  Zr  Zr1       1.0  0.3295985460281372  0.058707546442747116  0.34442377090454096  1.0000
  Zr  Zr2       1.0  0.3284096121788025  0.9265238046646118  0.5151261091232299  1.0000
  Zr  Zr3       1.0  0.33247876167297363  0.6865953803062439  0.01792048290371895  1.0000
  Zr  Zr4       1.0  0.8281425833702087  0.5216362476348877  0.3608367443084716  1.0000
  Zr  Zr5       1.0  0.8284262418746948  0.3361632227897644  0.944113790988922  1.0000
  Zr  Zr6       1.0  0.3287838101387024  0.842113196849823  0.4135770201683044  1.0000
  Zr  Zr7       1.0  0.8287567496299744  0.5770452618598938  0.9081450104713439  1.0000
  Zr  Zr8       1.0  0.8285420536994934  0.08744489401578903  0.8125112652778624  1.0000
