data_image0
_chemical_formula_structural       GaINiPaZnZr6
_chemical_formula_sum              "Ga1 I1 Ni1 Pa1 Zn1 Zr6"
_cell_length_a       4.868272199646557
_cell_length_b       6.671494767532462
_cell_length_c       7.08297872543335
_cell_angle_alpha    123.98372339984698
_cell_angle_beta     90.25204041341593
_cell_angle_gamma    88.72272968661852

_space_group_name_H-M_alt    "P 1"
_space_group_IT_number       1

loop_
  _space_group_symop_operation_xyz
  'x, y, z'

loop_
  _atom_site_type_symbol
  _atom_site_label
  _atom_site_symmetry_multiplicity
  _atom_site_fract_x
  _atom_site_fract_y
  _atom_site_fract_z
  _atom_site_occupancy
  Ga  Ga1       1.0  0.05333966761827469  0.6570422649383545  0.6506102085113525  1.0000
  I   I1        1.0  0.5282566547393799  0.3358337879180908  0.05738358199596405  1.0000
  Ni  Ni1       1.0  0.02568112313747406  0.26084259152412415  0.11983829736709595  1.0000
  Pa  Pa1       1.0  0.5379273295402527  0.3391669690608978  0.07572771608829498  1.0000
  Zn  Zn1       1.0  0.04451528191566467  0.9980618953704834  0.6983175277709961  1.0000
  Zr  Zr1       1.0  0.03298591077327728  0.9530543684959412  0.11938144266605377  1.0000
  Zr  Zr2       1.0  0.5364755392074585  0.33123645186424255  0.5076727867126465  1.0000
  Zr  Zr3       1.0  0.5283520221710205  0.18011540174484253  0.1261439323425293  1.0000
  Zr  Zr4       1.0  0.03089427947998047  0.9356508851051331  0.5844703912734985  1.0000
  Zr  Zr5       1.0  0.02939806878566742  0.48760706186294556  0.4782334864139557  1.0000
  Zr  Zr6       1.0  0.5337900519371033  0.47298333048820496  0.11905582994222641  1.0000
