data_image0
_chemical_formula_structural       Al2NiZr8
_chemical_formula_sum              "Al2 Ni1 Zr8"
_cell_length_a       5.741689536024809
_cell_length_b       5.5749216362756115
_cell_length_c       5.711339473724365
_cell_angle_alpha    68.02432599827436
_cell_angle_beta     69.74455009569196
_cell_angle_gamma    67.49220672649457

_space_group_name_H-M_alt    "P 1"
_space_group_IT_number       1

loop_
  _space_group_symop_operation_xyz
  'x, y, z'

loop_
  _atom_site_type_symbol
  _atom_site_label
  _atom_site_symmetry_multiplicity
  _atom_site_fract_x
  _atom_site_fract_y
  _atom_site_fract_z
  _atom_site_occupancy
  Al  Al1       1.0  0.6313857436180115  0.813350260257721  0.2537091374397278  1.0000
  Al  Al2       1.0  0.09861575067043304  0.578504204750061  0.8746865987777709  1.0000
  Ni  Ni1       1.0  0.6290512681007385  0.5897517204284668  0.23070645332336423  1.0000
  Zr  Zr1       1.0  0.3982762098312378  0.7202303409576416  0.2574617564678192  1.0000
  Zr  Zr2       1.0  0.671771764755249  0.9231759905815125  0.16224537789821625  1.0000
  Zr  Zr3       1.0  0.384166955947876  0.9132892489433289  0.025207914412021633  1.0000
  Zr  Zr4       1.0  0.39838963747024536  0.47022759914398193  0.890650451183319  1.0000
  Zr  Zr5       1.0  0.3770217001438141  0.1272505223751068  0.80865341424942  1.0000
  Zr  Zr6       1.0  0.8997933268547058  0.8415152430534363  0.33011382818222046  1.0000
  Zr  Zr7       1.0  0.9263320565223694  0.9717207551002502  0.910378336906433  1.0000
  Zr  Zr8       1.0  0.7370165586471558  0.5786752104759216  0.9934359192848204  1.0000
