data_image0
_chemical_formula_structural       NiZr10
_chemical_formula_sum              "Ni1 Zr10"
_cell_length_a       5.767915975394165
_cell_length_b       5.660388308270031
_cell_length_c       7.564863204956055
_cell_angle_alpha    82.35648928945444
_cell_angle_beta     74.89864215137362
_cell_angle_gamma    63.96612937287598

_space_group_name_H-M_alt    "P 1"
_space_group_IT_number       1

loop_
  _space_group_symop_operation_xyz
  'x, y, z'

loop_
  _atom_site_type_symbol
  _atom_site_label
  _atom_site_symmetry_multiplicity
  _atom_site_fract_x
  _atom_site_fract_y
  _atom_site_fract_z
  _atom_site_occupancy
  Ni  Ni1       1.0  0.40070074796676636  0.9090878963470459  0.02976523153483868  1.0000
  Zr  Zr1       1.0  0.7327592372894287  0.1743256002664566  0.490375965833664  1.0000
  Zr  Zr2       1.0  0.4236355423927307  0.13679401576519012  0.6699122190475464  1.0000
  Zr  Zr3       1.0  0.3539862632751465  0.3560972809791565  0.522246241569519  1.0000
  Zr  Zr4       1.0  0.1876559555530548  0.2022622525691986  0.7227961421012878  1.0000
  Zr  Zr5       1.0  0.6856622099876404  0.18301883339881897  0.10891579836606981  1.0000
  Zr  Zr6       1.0  0.824854850769043  0.7344426512718201  0.8088107705116272  1.0000
  Zr  Zr7       1.0  0.18288664519786835  0.61278235912323  0.08789379894733429  1.0000
  Zr  Zr8       1.0  0.2023935467004776  0.22031660377979279  0.8321062922477722  1.0000
  Zr  Zr9       1.0  0.780875027179718  0.9844759702682495  0.4832356274127961  1.0000
  Zr  Zr10      1.0  0.6778160929679871  0.6302374601364136  0.07997013628482819  1.0000
