data_image0
_chemical_formula_structural       AlNi2Zr8
_chemical_formula_sum              "Al1 Ni2 Zr8"
_cell_length_a       5.136832837657038
_cell_length_b       4.969268036908295
_cell_length_c       5.796975135803223
_cell_angle_alpha    62.11834953074017
_cell_angle_beta     67.22360560942522
_cell_angle_gamma    61.29394480212873

_space_group_name_H-M_alt    "P 1"
_space_group_IT_number       1

loop_
  _space_group_symop_operation_xyz
  'x, y, z'

loop_
  _atom_site_type_symbol
  _atom_site_label
  _atom_site_symmetry_multiplicity
  _atom_site_fract_x
  _atom_site_fract_y
  _atom_site_fract_z
  _atom_site_occupancy
  Al  Al1       1.0  0.9270122051239014  0.07584177702665329  0.1938229203224182  1.0000
  Ni  Ni1       1.0  0.40753212571144104  0.36629998683929443  0.3349319100379944  1.0000
  Ni  Ni2       1.0  0.8957635760307312  0.9208155870437622  0.4999971091747285  1.0000
  Zr  Zr1       1.0  0.1729351282119751  0.713728666305542  0.4498547017574311  1.0000
  Zr  Zr2       1.0  0.4173974394798279  0.4752604365348816  0.6980049014091492  1.0000
  Zr  Zr3       1.0  0.4450869560241699  0.7389260530471802  0.33911868929862976  1.0000
  Zr  Zr4       1.0  0.9257231950759888  0.9319742918014526  0.45277062058448797  1.0000
  Zr  Zr5       1.0  0.40360015630722046  0.19841139018535614  0.4400696158409119  1.0000
  Zr  Zr6       1.0  0.41915473341941833  0.5332745313644409  0.479467660188675  1.0000
  Zr  Zr7       1.0  0.4337710440158844  0.38805070519447327  0.8128601312637329  1.0000
  Zr  Zr8       1.0  0.7671460509300232  0.9730194211006165  0.8405543565750122  1.0000
