data_image0
_chemical_formula_structural       Ni2PZr8
_chemical_formula_sum              "Ni2 P1 Zr8"
_cell_length_a       4.28242913597846
_cell_length_b       4.808141934063269
_cell_length_c       6.612391948699951
_cell_angle_alpha    114.284425659794
_cell_angle_beta     102.01311099058859
_cell_angle_gamma    73.27196461977078

_space_group_name_H-M_alt    "P 1"
_space_group_IT_number       1

loop_
  _space_group_symop_operation_xyz
  'x, y, z'

loop_
  _atom_site_type_symbol
  _atom_site_label
  _atom_site_symmetry_multiplicity
  _atom_site_fract_x
  _atom_site_fract_y
  _atom_site_fract_z
  _atom_site_occupancy
  Ni  Ni1       1.0  0.9137418270111084  0.9245898127555847  0.45024737715721125  1.0000
  Ni  Ni2       1.0  0.6120040416717529  0.8637040257453918  0.16920572519302368  1.0000
  P   P1        1.0  0.1910874992609024  0.39606916904449463  0.38389936089515686  1.0000
  Zr  Zr1       1.0  0.8616278171539307  0.17168673872947693  0.7315777540206909  1.0000
  Zr  Zr2       1.0  0.9886663556098938  0.3656178116798401  0.9895049333572387  1.0000
  Zr  Zr3       1.0  0.18802572786808014  0.993019163608551  0.6018397808074951  1.0000
  Zr  Zr4       1.0  0.7464761137962341  0.4728723168373108  0.3701353371143341  1.0000
  Zr  Zr5       1.0  0.15698599815368652  0.4328021705150604  0.41329076886177063  1.0000
  Zr  Zr6       1.0  0.5006516575813293  0.20991449058055878  0.9053590297698973  1.0000
  Zr  Zr7       1.0  0.167334645986557  0.5633814334869385  0.6337148547172546  1.0000
  Zr  Zr8       1.0  0.5778875946998596  0.9802947044372559  0.3946329355239868  1.0000
