data_image0
_chemical_formula_structural       C3DyGaN2PtZn
_chemical_formula_sum              "C3 Dy1 Ga1 N2 Pt1 Zn1"
_cell_length_a       5.870855197929868
_cell_length_b       6.916595814879031
_cell_length_c       7.568975448608398
_cell_angle_alpha    117.04221643578076
_cell_angle_beta     90.23404528817251
_cell_angle_gamma    95.2135314987944

_space_group_name_H-M_alt    "P 1"
_space_group_IT_number       1

loop_
  _space_group_symop_operation_xyz
  'x, y, z'

loop_
  _atom_site_type_symbol
  _atom_site_label
  _atom_site_symmetry_multiplicity
  _atom_site_fract_x
  _atom_site_fract_y
  _atom_site_fract_z
  _atom_site_occupancy
  C   C1        1.0  0.3102567791938782  0.9011627435684204  0.9073639512062073  1.0000
  C   C2        1.0  0.805367648601532  0.37494784593582153  0.950662136077881  1.0000
  C   C3        1.0  0.8108024597167969  0.6686556935310364  0.2083914875984192  1.0000
  Dy  Dy1       1.0  0.334105521440506  0.894629180431366  0.7442755103111267  1.0000
  Ga  Ga1       1.0  0.3158658742904663  0.5774418115615845  0.26390206813812256  1.0000
  N   N1        1.0  0.8159230351448059  0.42244789004325867  0.8959710597991943  1.0000
  N   N2        1.0  0.8114880323410034  0.13536269962787628  0.8761371970176696  1.0000
  Pt  Pt1       1.0  0.30880680680274963  0.5461564064025879  0.707002580165863  1.0000
  Zn  Zn1       1.0  0.8143016695976257  0.07461673766374588  0.03176930174231529  1.0000
