data_image0
_chemical_formula_structural       HgN6Na2
_chemical_formula_sum              "Hg1 N6 Na2"
_cell_length_a       5.433568641229038
_cell_length_b       5.189030272607478
_cell_length_c       9.280353546142578
_cell_angle_alpha    78.09613868870149
_cell_angle_beta     80.7535451377242
_cell_angle_gamma    86.24565172878336

_space_group_name_H-M_alt    "P 1"
_space_group_IT_number       1

loop_
  _space_group_symop_operation_xyz
  'x, y, z'

loop_
  _atom_site_type_symbol
  _atom_site_label
  _atom_site_symmetry_multiplicity
  _atom_site_fract_x
  _atom_site_fract_y
  _atom_site_fract_z
  _atom_site_occupancy
  Hg  Hg1       1.0  0.15099777281284332  0.44334647059440613  0.019300535321235657  1.0000
  N   N1        1.0  0.9946366548538208  0.9483096599578859  0.8003059029579163  1.0000
  N   N2        1.0  0.9626883268356323  0.1067315861582756  0.5519088506698608  1.0000
  N   N3        1.0  0.5493497848510742  0.040130600333213806  0.061819277703762054  1.0000
  N   N4        1.0  0.3411179780960083  0.3417508900165558  0.27262434363365173  1.0000
  N   N5        1.0  0.3373924791812897  0.2541680932044983  0.5361073613166809  1.0000
  N   N6        1.0  0.878114640712738  0.2450261563062668  0.6134454607963562  1.0000
  Na  Na1       1.0  0.8857530355453491  0.9698160886764527  0.3906227648258209  1.0000
  Na  Na2       1.0  0.0914955586194992  0.6332694888114929  0.26548126339912415  1.0000
