data_image0
_chemical_formula_structural       C2GeIN3NaPt
_chemical_formula_sum              "C2 Ge1 I1 N3 Na1 Pt1"
_cell_length_a       6.001133884211564
_cell_length_b       6.141049901863193
_cell_length_c       8.21646785736084
_cell_angle_alpha    104.03246039079285
_cell_angle_beta     88.39379784230512
_cell_angle_gamma    91.26585039011987

_space_group_name_H-M_alt    "P 1"
_space_group_IT_number       1

loop_
  _space_group_symop_operation_xyz
  'x, y, z'

loop_
  _atom_site_type_symbol
  _atom_site_label
  _atom_site_symmetry_multiplicity
  _atom_site_fract_x
  _atom_site_fract_y
  _atom_site_fract_z
  _atom_site_occupancy
  C   C1        1.0  0.8399831652641296  0.485492616891861  0.42460304498672485  1.0000
  C   C2        1.0  0.3528311550617218  0.022990360856056217  0.8018616437911987  1.0000
  Ge  Ge1       1.0  0.09440894424915314  0.5656723380088806  0.3453082144260407  1.0000
  I   I1        1.0  0.10923410952091217  0.7181860208511354  0.8422524929046631  1.0000
  N   N1        1.0  0.3025226294994354  0.7195704579353334  0.47986412048339844  1.0000
  N   N2        1.0  0.6131517887115479  0.8474968671798707  0.5319706797599792  1.0000
  N   N3        1.0  0.11668310314416885  0.6037355065345764  0.7996880412101746  1.0000
  Na  Na1       1.0  0.11061137914657593  0.8531404733657838  0.7980682253837585  1.0000
  Pt  Pt1       1.0  0.6064788103103638  0.08622121065855028  0.8329705595970154  1.0000
