data_image0
_chemical_formula_structural       Mg2P2PrZn
_chemical_formula_sum              "Mg2 P2 Pr1 Zn1"
_cell_length_a       4.7622180709048045
_cell_length_b       4.950007789074773
_cell_length_c       7.56427001953125
_cell_angle_alpha    70.2433570128059
_cell_angle_beta     69.40387045706002
_cell_angle_gamma    60.92467248941013

_space_group_name_H-M_alt    "P 1"
_space_group_IT_number       1

loop_
  _space_group_symop_operation_xyz
  'x, y, z'

loop_
  _atom_site_type_symbol
  _atom_site_label
  _atom_site_symmetry_multiplicity
  _atom_site_fract_x
  _atom_site_fract_y
  _atom_site_fract_z
  _atom_site_occupancy
  Mg  Mg1       1.0  0.8324341177940369  0.567852795124054  0.6261147260665894  1.0000
  Mg  Mg2       1.0  0.28241196274757385  0.06475412100553513  0.5090732574462891  1.0000
  P   P1        1.0  0.2762870788574219  0.07158608734607697  0.008028864860534668  1.0000
  P   P2        1.0  0.943240225315094  0.31714749336242676  0.9930847883224487  1.0000
  Pr  Pr1       1.0  0.6051906943321228  0.9062696695327759  0.14707715809345245  1.0000
  Zn  Zn1       1.0  0.4044768810272217  0.5978443622589111  0.772267758846283  1.0000
