data_image0
_chemical_formula_structural       Nb2Pb4SrZnZr
_chemical_formula_sum              "Nb2 Pb4 Sr1 Zn1 Zr1"
_cell_length_a       4.212075231355957
_cell_length_b       4.210674224109921
_cell_length_c       11.800225257873535
_cell_angle_alpha    94.54434503021233
_cell_angle_beta     94.49153385960406
_cell_angle_gamma    90.24819362125425

_space_group_name_H-M_alt    "P 1"
_space_group_IT_number       1

loop_
  _space_group_symop_operation_xyz
  'x, y, z'

loop_
  _atom_site_type_symbol
  _atom_site_label
  _atom_site_symmetry_multiplicity
  _atom_site_fract_x
  _atom_site_fract_y
  _atom_site_fract_z
  _atom_site_occupancy
  Nb  Nb1       1.0  0.6109380722045898  0.34446844458580017  0.054840967059135444  1.0000
  Nb  Nb2       1.0  0.6086190342903137  0.6515529751777649  0.036766860634088516  1.0000
  Pb  Pb1       1.0  0.11242090165615082  0.26579928398132324  0.20165246725082397  1.0000
  Pb  Pb2       1.0  0.10917872190475464  0.7162879705429077  0.5212710499763489  1.0000
  Pb  Pb3       1.0  0.11037097126245499  0.19189320504665375  0.13342104852199554  1.0000
  Pb  Pb4       1.0  0.10934232175350189  0.6978234052658081  0.7696884870529175  1.0000
  Sr  Sr1       1.0  0.6099086999893188  0.9892534017562866  0.44925272464752203  1.0000
  Zn  Zn1       1.0  0.6105563640594482  0.5955532193183899  0.2518695890903473  1.0000
  Zr  Zr1       1.0  0.10990559309720993  0.36712291836738586  0.43329706788063055  1.0000
