data_image0
_chemical_formula_structural       Nb4Pb5
_chemical_formula_sum              "Nb4 Pb5"
_cell_length_a       4.052140579186635
_cell_length_b       3.380061657044105
_cell_length_c       23.151647567749023
_cell_angle_alpha    105.5145333416984
_cell_angle_beta     119.36118390631565
_cell_angle_gamma    89.91422418383615

_space_group_name_H-M_alt    "P 1"
_space_group_IT_number       1

loop_
  _space_group_symop_operation_xyz
  'x, y, z'

loop_
  _atom_site_type_symbol
  _atom_site_label
  _atom_site_symmetry_multiplicity
  _atom_site_fract_x
  _atom_site_fract_y
  _atom_site_fract_z
  _atom_site_occupancy
  Nb  Nb1       1.0  0.005995356477797031  0.34160202741622925  0.3429992198944092  1.0000
  Nb  Nb2       1.0  0.7103790044784546  0.17129532992839813  0.5174242258071899  1.0000
  Nb  Nb3       1.0  0.21226605772972107  0.39950031042099  0.7188862562179565  1.0000
  Nb  Nb4       1.0  0.9691268801689148  0.7863244414329529  0.4536207318305969  1.0000
  Pb  Pb1       1.0  0.5924036502838135  0.5110961198806763  0.9422515630722046  1.0000
  Pb  Pb2       1.0  0.6888163685798645  0.40553075075149536  0.23793034255504608  1.0000
  Pb  Pb3       1.0  0.24130156636238098  0.570815920829773  0.2972169816493988  1.0000
  Pb  Pb4       1.0  0.5269785523414612  0.3703215718269348  0.5680078864097595  1.0000
  Pb  Pb5       1.0  0.020277781412005424  0.17055529356002808  0.551173210144043  1.0000
