data_image0
_chemical_formula_structural       Cr4FeV3
_chemical_formula_sum              "Cr4 Fe1 V3"
_cell_length_a       3.915500049575967
_cell_length_b       4.011668960147069
_cell_length_c       4.781592845916748
_cell_angle_alpha    50.006932396478824
_cell_angle_beta     60.24987810453264
_cell_angle_gamma    60.399337034588235

_space_group_name_H-M_alt    "P 1"
_space_group_IT_number       1

loop_
  _space_group_symop_operation_xyz
  'x, y, z'

loop_
  _atom_site_type_symbol
  _atom_site_label
  _atom_site_symmetry_multiplicity
  _atom_site_fract_x
  _atom_site_fract_y
  _atom_site_fract_z
  _atom_site_occupancy
  Cr  Cr1       1.0  0.321449339389801  0.10705076903104782  0.6379805207252502  1.0000
  Cr  Cr2       1.0  0.6061515212059021  0.8731372356414795  0.5622034668922424  1.0000
  Cr  Cr3       1.0  0.7966681718826294  0.5752997398376465  0.22119572758674622  1.0000
  Cr  Cr4       1.0  0.9983488321304321  0.38864824175834656  0.6329068541526794  1.0000
  Fe  Fe1       1.0  0.7795146107673645  0.6231649518013  0.7199695110321045  1.0000
  V   V1        1.0  0.8729597330093384  0.9148113131523132  0.9407655596733092  1.0000
  V   V2        1.0  0.3514266908168793  0.2689516544342041  0.21339578926563263  1.0000
  V   V3        1.0  0.3060470223426819  0.6572859883308411  0.6685757040977478  1.0000
