data_image0
_chemical_formula_structural       Cr6FeV
_chemical_formula_sum              "Cr6 Fe1 V1"
_cell_length_a       3.6859551429308097
_cell_length_b       4.15164893514134
_cell_length_c       3.9871714115142822
_cell_angle_alpha    71.24288940513182
_cell_angle_beta     45.56095755214897
_cell_angle_gamma    66.79765147140314

_space_group_name_H-M_alt    "P 1"
_space_group_IT_number       1

loop_
  _space_group_symop_operation_xyz
  'x, y, z'

loop_
  _atom_site_type_symbol
  _atom_site_label
  _atom_site_symmetry_multiplicity
  _atom_site_fract_x
  _atom_site_fract_y
  _atom_site_fract_z
  _atom_site_occupancy
  Cr  Cr1       1.0  0.33251574635505676  0.4252062141895294  0.07983008772134781  1.0000
  Cr  Cr2       1.0  0.9190805554389954  0.32843372225761414  0.9626879692077637  1.0000
  Cr  Cr3       1.0  0.7561979293823242  0.9104457497596741  0.6402010321617126  1.0000
  Cr  Cr4       1.0  0.08200714737176895  0.671954870223999  0.7518149614334106  1.0000
  Cr  Cr5       1.0  0.36040550470352173  0.1443941444158554  0.09671846032142639  1.0000
  Cr  Cr6       1.0  0.39449846744537354  0.3569257855415344  0.24685262143611908  1.0000
  Fe  Fe1       1.0  0.03470490872859955  0.3980593979358673  0.7557392120361328  1.0000
  V   V1        1.0  0.7313525676727295  0.836121678352356  0.5372015833854675  1.0000
