data_image0
_chemical_formula_structural       GaI4KLiPPtZn
_chemical_formula_sum              "Ga1 I4 K1 Li1 P1 Pt1 Zn1"
_cell_length_a       7.373794995210211
_cell_length_b       7.135869373713499
_cell_length_c       8.165670394897461
_cell_angle_alpha    110.00913956413584
_cell_angle_beta     106.9161476556349
_cell_angle_gamma    108.57851906563911

_space_group_name_H-M_alt    "P 1"
_space_group_IT_number       1

loop_
  _space_group_symop_operation_xyz
  'x, y, z'

loop_
  _atom_site_type_symbol
  _atom_site_label
  _atom_site_symmetry_multiplicity
  _atom_site_fract_x
  _atom_site_fract_y
  _atom_site_fract_z
  _atom_site_occupancy
  Ga  Ga1       1.0  0.254746675491333  0.5465733408927917  0.014904879964888096  1.0000
  I   I1        1.0  0.5765175223350525  0.9920070171356201  0.7300986051559448  1.0000
  I   I2        1.0  0.021484822034835815  0.28623443841934204  0.4942668080329895  1.0000
  I   I3        1.0  0.7350851893424988  0.8407411575317383  0.3219256401062011  1.0000
  I   I4        1.0  0.6607750058174133  0.5465749502182007  0.8379797339439392  1.0000
  K   K1        1.0  0.07622591406106949  0.9095180630683899  0.005607678089290803  1.0000
  Li  Li1       1.0  0.06847772002220154  0.545539140701294  0.4598371982574463  1.0000
  P   P1        1.0  0.7148723602294922  0.06883921474218369  0.5819358229637146  1.0000
  Pt  Pt1       1.0  0.001770496368408203  0.2757982611656189  0.22902429103851318  1.0000
  Zn  Zn1       1.0  0.04282784089446068  0.16819405555725098  0.05919046327471732  1.0000
