data_image0
_chemical_formula_structural       AsFI5NiPtZn
_chemical_formula_sum              "As1 F1 I5 Ni1 Pt1 Zn1"
_cell_length_a       7.780138309147879
_cell_length_b       7.8386372502254416
_cell_length_c       7.668216705322266
_cell_angle_alpha    108.66794505931591
_cell_angle_beta     112.57955309340277
_cell_angle_gamma    110.69202091814589

_space_group_name_H-M_alt    "P 1"
_space_group_IT_number       1

loop_
  _space_group_symop_operation_xyz
  'x, y, z'

loop_
  _atom_site_type_symbol
  _atom_site_label
  _atom_site_symmetry_multiplicity
  _atom_site_fract_x
  _atom_site_fract_y
  _atom_site_fract_z
  _atom_site_occupancy
  As  As1       1.0  0.5573776364326477  0.8027212023735046  0.6396908760070801  1.0000
  F   F1        1.0  0.024436885491013527  0.9919290542602539  0.9932141900062561  1.0000
  I   I1        1.0  0.4059031307697296  0.28379273414611816  0.20750269293785095  1.0000
  I   I2        1.0  0.8600075840950012  0.6653480529785156  0.6552394032478333  1.0000
  I   I3        1.0  0.10236203670501709  0.9449803829193115  0.10836070030927664  1.0000
  I   I4        1.0  0.09131362289190292  0.3799603581428528  0.27399927377700806  1.0000
  I   I5        1.0  0.39541998505592346  0.012711475603282452  0.7184679508209229  1.0000
  Ni  Ni1       1.0  0.8592348098754883  0.4054279327392578  0.6671554446220398  1.0000
  Pt  Pt1       1.0  0.5865433812141418  0.031446851789951324  0.7494128346443176  1.0000
  Zn  Zn1       1.0  0.0790879875421524  0.04326796531677246  0.10340249538421631  1.0000
