data_image0
_chemical_formula_structural       K8PtTe
_chemical_formula_sum              "K8 Pt1 Te1"
_cell_length_a       7.918298958960036
_cell_length_b       7.533440501499189
_cell_length_c       8.567753791809082
_cell_angle_alpha    111.6399737187225
_cell_angle_beta     114.04271027984801
_cell_angle_gamma    107.81488919479997

_space_group_name_H-M_alt    "P 1"
_space_group_IT_number       1

loop_
  _space_group_symop_operation_xyz
  'x, y, z'

loop_
  _atom_site_type_symbol
  _atom_site_label
  _atom_site_symmetry_multiplicity
  _atom_site_fract_x
  _atom_site_fract_y
  _atom_site_fract_z
  _atom_site_occupancy
  K   K1        1.0  0.8849906921386718  0.9870391488075256  0.702105700969696  1.0000
  K   K2        1.0  0.5063429474830627  0.8955074548721313  0.9038349390029907  1.0000
  K   K3        1.0  0.005915737245231866  0.819711446762085  0.6990675330162048  1.0000
  K   K4        1.0  0.2213938385248184  0.48328638076782227  0.3646543025970459  1.0000
  K   K5        1.0  0.02774381451308727  0.7935954332351685  0.9754682779312134  1.0000
  K   K6        1.0  0.8707268834114074  0.15274974703788757  0.42735394835472107  1.0000
  K   K7        1.0  0.8963395953178405  0.5656001567840576  0.21570001542568207  1.0000
  K   K8        1.0  0.5157838463783264  0.3768453001976013  0.6349275708198547  1.0000
  Pt  Pt1       1.0  0.6953402161598206  0.11423762142658234  0.7017560005187988  1.0000
  Te  Te1       1.0  0.5414627194404602  0.3152977526187897  0.05484512448310852  1.0000
