data_image0
_chemical_formula_structural       K6Mo2NTe
_chemical_formula_sum              "K6 Mo2 N1 Te1"
_cell_length_a       7.89719162270756
_cell_length_b       6.070759907412684
_cell_length_c       9.003296852111816
_cell_angle_alpha    120.19130445685693
_cell_angle_beta     110.31047661067251
_cell_angle_gamma    121.37386764599684

_space_group_name_H-M_alt    "P 1"
_space_group_IT_number       1

loop_
  _space_group_symop_operation_xyz
  'x, y, z'

loop_
  _atom_site_type_symbol
  _atom_site_label
  _atom_site_symmetry_multiplicity
  _atom_site_fract_x
  _atom_site_fract_y
  _atom_site_fract_z
  _atom_site_occupancy
  K   K1        1.0  0.9865925312042235  0.991590917110443  0.8878320455551147  1.0000
  K   K2        1.0  0.7900612354278564  0.8151412010192871  0.5883470177650452  1.0000
  K   K3        1.0  0.7283272743225098  0.5265693068504332  0.29071047902107233  1.0000
  K   K4        1.0  0.4835009872913361  0.2608776688575746  0.9612241983413696  1.0000
  K   K5        1.0  0.4439115822315217  0.4560067653656008  0.8560982942581178  1.0000
  K   K6        1.0  0.8335269093513488  0.639616012573242  0.9810900092124937  1.0000
  Mo  Mo1       1.0  0.25141894817352295  0.6371498107910156  0.20096105337142942  1.0000
  Mo  Mo2       1.0  0.15529990196228027  0.14028719067573545  0.11062204837799071  1.0000
  N   N1        1.0  0.6762582659721373  0.9777272343635558  0.14885154366493225  1.0000
  Te  Te1       1.0  0.6510889530181885  0.5511509776115417  0.6104475855827332  1.0000
