data_image0
_chemical_formula_structural       FGaI3KPPt3
_chemical_formula_sum              "F1 Ga1 I3 K1 P1 Pt3"
_cell_length_a       6.5420464417444215
_cell_length_b       7.008987332796506
_cell_length_c       7.411803245544434
_cell_angle_alpha    121.49078485875457
_cell_angle_beta     92.09766996080005
_cell_angle_gamma    96.60447803281701

_space_group_name_H-M_alt    "P 1"
_space_group_IT_number       1

loop_
  _space_group_symop_operation_xyz
  'x, y, z'

loop_
  _atom_site_type_symbol
  _atom_site_label
  _atom_site_symmetry_multiplicity
  _atom_site_fract_x
  _atom_site_fract_y
  _atom_site_fract_z
  _atom_site_occupancy
  F   F1        1.0  0.15242134034633636  0.9854339957237244  0.7264525294303894  1.0000
  Ga  Ga1       1.0  0.15743015706539154  0.8955708742141724  0.8594009280204774  1.0000
  I   I1        1.0  0.6712632179260254  0.160049170255661  0.2382702082395554  1.0000
  I   I2        1.0  0.6799793839454651  0.3336658775806427  0.497389703989029  1.0000
  I   I3        1.0  0.6448497176170349  0.792532205581665  0.49845936894416815  1.0000
  K   K1        1.0  0.1629846692085266  0.461751252412796  0.4663459956645966  1.0000
  P   P1        1.0  0.6739909052848816  0.3539256751537323  0.22977805137634275  1.0000
  Pt  Pt1       1.0  0.1833842396736145  0.7529584765434265  0.7851786613464355  1.0000
  Pt  Pt2       1.0  0.1796238273382187  0.19030356407165527  0.1885872632265091  1.0000
  Pt  Pt3       1.0  0.13747401535511017  0.52711021900177  0.16745169460773468  1.0000
