data_image0
_chemical_formula_structural       GaHI3K3PtU
_chemical_formula_sum              "Ga1 H1 I3 K3 Pt1 U1"
_cell_length_a       7.179846672857581
_cell_length_b       6.96063379524688
_cell_length_c       7.422954082489014
_cell_angle_alpha    117.06662802487786
_cell_angle_beta     109.62271477874526
_cell_angle_gamma    98.51831508689605

_space_group_name_H-M_alt    "P 1"
_space_group_IT_number       1

loop_
  _space_group_symop_operation_xyz
  'x, y, z'

loop_
  _atom_site_type_symbol
  _atom_site_label
  _atom_site_symmetry_multiplicity
  _atom_site_fract_x
  _atom_site_fract_y
  _atom_site_fract_z
  _atom_site_occupancy
  Ga  Ga1       1.0  0.034652832895517335  0.42823788523674006  0.4999131858348846  1.0000
  H   H1        1.0  0.2607337832450866  0.9773648381233214  0.2777675688266753  1.0000
  I   I1        1.0  0.4937134683132172  0.4735419154167175  0.06818463653326035  1.0000
  I   I2        1.0  0.6553228497505188  0.5092180371284485  0.10165907442569731  1.0000
  I   I3        1.0  0.2434428632259369  0.21355205774307248  0.12679003179073334  1.0000
  K   K1        1.0  0.7472643256187439  0.9598748087882994  0.990361452102661  1.0000
  K   K2        1.0  0.5665243864059448  0.1149444356560707  0.5240395665168762  1.0000
  K   K3        1.0  0.07510161399841306  0.794342279434204  0.15890946984291074  1.0000
  Pt  Pt1       1.0  0.2344651073217392  0.3520607650279999  0.7854961156845092  1.0000
  U   U1        1.0  0.7732493281364441  0.40545997023582453  0.34466361999511713  1.0000
