data_image0
_chemical_formula_structural       O9SeSr4
_chemical_formula_sum              "O9 Se1 Sr4"
_cell_length_a       6.358544295416071
_cell_length_b       6.627722591861303
_cell_length_c       7.199412822723389
_cell_angle_alpha    64.81103750781139
_cell_angle_beta     63.37369771889144
_cell_angle_gamma    60.174552110896215

_space_group_name_H-M_alt    "P 1"
_space_group_IT_number       1

loop_
  _space_group_symop_operation_xyz
  'x, y, z'

loop_
  _atom_site_type_symbol
  _atom_site_label
  _atom_site_symmetry_multiplicity
  _atom_site_fract_x
  _atom_site_fract_y
  _atom_site_fract_z
  _atom_site_occupancy
  O   O1        1.0  0.5002617835998535  0.6418971419334412  0.06652969866991043  1.0000
  O   O2        1.0  0.49922508001327515  0.6280103921890259  0.4217550158500671  1.0000
  O   O3        1.0  0.6015529632568359  0.29568392038345337  0.45421242713928217  1.0000
  O   O4        1.0  0.480912446975708  0.08052345365285873  0.2940919101238251  1.0000
  O   O5        1.0  0.4456785321235657  0.0961809754371643  0.8097818493843078  1.0000
  O   O6        1.0  0.7548307776451111  0.42098519206047064  0.33914250135421753  1.0000
  O   O7        1.0  0.8333484530448914  0.169967383146286  0.9319657683372496  1.0000
  O   O8        1.0  0.524264931678772  0.771065354347229  0.6686574816703796  1.0000
  O   O9        1.0  0.8058255314826965  0.08756444603204727  0.8178681731224059  1.0000
  Se  Se1       1.0  0.3506333529949188  0.31982189416885376  0.26899030804634094  1.0000
  Sr  Sr1       1.0  0.3661498427391052  0.2829801142215729  0.16365297138690948  1.0000
  Sr  Sr2       1.0  0.9106149077415466  0.6543377041816711  0.5805979371070862  1.0000
  Sr  Sr3       1.0  0.38803046941757197  0.945936679840088  0.1319698989391327  1.0000
  Sr  Sr4       1.0  0.8494684100151062  0.7865935564041138  0.8213213086128234  1.0000
