data_image0
_chemical_formula_structural       CsNiO7Sr5
_chemical_formula_sum              "Cs1 Ni1 O7 Sr5"
_cell_length_a       6.680836874107958
_cell_length_b       7.097130131352599
_cell_length_c       7.095047473907471
_cell_angle_alpha    63.67965542823181
_cell_angle_beta     61.33123881445953
_cell_angle_gamma    61.95853114747837

_space_group_name_H-M_alt    "P 1"
_space_group_IT_number       1

loop_
  _space_group_symop_operation_xyz
  'x, y, z'

loop_
  _atom_site_type_symbol
  _atom_site_label
  _atom_site_symmetry_multiplicity
  _atom_site_fract_x
  _atom_site_fract_y
  _atom_site_fract_z
  _atom_site_occupancy
  Cs  Cs1       1.0  0.6731034517288208  0.7974022626876831  0.2928043603897095  1.0000
  Ni  Ni1       1.0  0.7314520478248596  0.4563741981983185  0.9740780591964722  1.0000
  O   O1        1.0  0.9817824959754944  0.8684347867965698  0.8367103338241577  1.0000
  O   O2        1.0  0.9303022027015686  0.578407347202301  0.024615652859210968  1.0000
  O   O3        1.0  0.31670546531677246  0.9298352599143982  0.1718951314687729  1.0000
  O   O4        1.0  0.7146086096763611  0.4966375231742859  0.07325302064418793  1.0000
  O   O5        1.0  0.6515929102897644  0.7388009428977966  0.3160875141620636  1.0000
  O   O6        1.0  0.29503023624420166  0.3388817608356476  0.8136005997657776  1.0000
  O   O7        1.0  0.6539087295532227  0.8459666967391968  0.7972739934921265  1.0000
  Sr  Sr1       1.0  0.9196427464485168  0.3160904347896576  0.557412326335907  1.0000
  Sr  Sr2       1.0  0.42603185772895813  0.09478095918893814  0.009460472501814365  1.0000
  Sr  Sr3       1.0  0.6591621041297913  0.8093729615211487  0.32854506373405457  1.0000
  Sr  Sr4       1.0  0.16124327480793  0.789496898651123  0.18537147343158722  1.0000
  Sr  Sr5       1.0  0.47952377796173096  0.9941719770431519  0.6979076266288757  1.0000
