data_image0
_chemical_formula_structural       MnO9Sc3Sr
_chemical_formula_sum              "Mn1 O9 Sc3 Sr1"
_cell_length_a       6.7970436261699785
_cell_length_b       6.8586297420842675
_cell_length_c       6.9887375831604
_cell_angle_alpha    66.68139232552846
_cell_angle_beta     64.38844959957457
_cell_angle_gamma    61.67402938299433

_space_group_name_H-M_alt    "P 1"
_space_group_IT_number       1

loop_
  _space_group_symop_operation_xyz
  'x, y, z'

loop_
  _atom_site_type_symbol
  _atom_site_label
  _atom_site_symmetry_multiplicity
  _atom_site_fract_x
  _atom_site_fract_y
  _atom_site_fract_z
  _atom_site_occupancy
  Mn  Mn1       1.0  0.0936649963259697  0.32032090425491333  0.10837190598249434  1.0000
  O   O1        1.0  0.7601495981216431  0.580254316329956  0.6756118535995482  1.0000
  O   O2        1.0  0.06416872888803482  0.6281692385673523  0.8813830018043517  1.0000
  O   O3        1.0  0.6241206526756287  0.016097698360681534  0.6659778952598571  1.0000
  O   O4        1.0  0.8602889776229858  0.1168133094906807  0.8341549634933471  1.0000
  O   O5        1.0  0.1796916127204895  0.6349087357521057  0.3808186054229736  1.0000
  O   O6        1.0  0.21949218213558197  0.22814808785915375  0.38354155421257013  1.0000
  O   O7        1.0  0.7597559690475464  0.3972364068031311  0.0897175148129463  1.0000
  O   O8        1.0  0.267497718334198  0.6307535767555237  0.3978353142738342  1.0000
  O   O9        1.0  0.22844430804252625  0.5869789123535156  0.3445648252964019  1.0000
  Sc  Sc1       1.0  0.30751609802246094  0.9939594268798828  0.8618549704551696  1.0000
  Sc  Sc2       1.0  0.33552056550979614  0.4722278416156769  0.89939147233963  1.0000
  Sc  Sc3       1.0  0.7031705379486084  0.8017521500587463  0.4793934226036071  1.0000
  Sr  Sr1       1.0  0.8055368065834045  0.4672752022743225  0.3573815524578094  1.0000
