data_image0
_chemical_formula_structural       BMo5O6Sr2
_chemical_formula_sum              "B1 Mo5 O6 Sr2"
_cell_length_a       5.047755336329676
_cell_length_b       6.1228231256034755
_cell_length_c       9.343598365783691
_cell_angle_alpha    113.3340011469008
_cell_angle_beta     93.23838617061512
_cell_angle_gamma    85.76854294678675

_space_group_name_H-M_alt    "P 1"
_space_group_IT_number       1

loop_
  _space_group_symop_operation_xyz
  'x, y, z'

loop_
  _atom_site_type_symbol
  _atom_site_label
  _atom_site_symmetry_multiplicity
  _atom_site_fract_x
  _atom_site_fract_y
  _atom_site_fract_z
  _atom_site_occupancy
  B   B1        1.0  0.4730227589607239  0.17286108434200287  0.3792712390422821  1.0000
  Mo  Mo1       1.0  0.21400919556617737  0.8884508013725281  0.718222975730896  1.0000
  Mo  Mo2       1.0  0.7088817954063416  0.3663800060749054  0.03701440244913101  1.0000
  Mo  Mo3       1.0  0.19584345817565918  0.39365625381469727  0.7044637799263  1.0000
  Mo  Mo4       1.0  0.1987762600183487  0.38368701934814453  0.576047420501709  1.0000
  Mo  Mo5       1.0  0.7105096578598022  0.37833526730537415  0.5600266456604004  1.0000
  O   O1        1.0  0.7121139168739319  0.9671597480773926  0.5126647353172302  1.0000
  O   O2        1.0  0.7024427652359009  0.7164233326911926  0.8106346726417542  1.0000
  O   O3        1.0  0.7568169832229614  0.8876944184303284  0.3890659511089325  1.0000
  O   O4        1.0  0.4710724949836731  0.4902692139148712  0.2703476548194885  1.0000
  O   O5        1.0  0.23535965383052826  0.7184657454490662  0.360671728849411  1.0000
  O   O6        1.0  0.24266554415225983  0.727365255355835  0.857544481754303  1.0000
  Sr  Sr1       1.0  0.22375088930130005  0.8822838068008423  0.8619779348373413  1.0000
  Sr  Sr2       1.0  0.20853501558303833  0.3871300518512726  0.5102143287658691  1.0000
