data_image0
_chemical_formula_structural       BMo4NiO6Sr2
_chemical_formula_sum              "B1 Mo4 Ni1 O6 Sr2"
_cell_length_a       5.502448206596832
_cell_length_b       5.475997513478224
_cell_length_c       8.384347915649414
_cell_angle_alpha    91.00294119019986
_cell_angle_beta     70.12113486931341
_cell_angle_gamma    62.40311255428127

_space_group_name_H-M_alt    "P 1"
_space_group_IT_number       1

loop_
  _space_group_symop_operation_xyz
  'x, y, z'

loop_
  _atom_site_type_symbol
  _atom_site_label
  _atom_site_symmetry_multiplicity
  _atom_site_fract_x
  _atom_site_fract_y
  _atom_site_fract_z
  _atom_site_occupancy
  B   B1        1.0  0.8372988104820251  0.3723311126232147  0.2288203984498978  1.0000
  Mo  Mo1       1.0  0.34490740299224854  0.8486003279685974  0.863595187664032  1.0000
  Mo  Mo2       1.0  0.3957834839820862  0.5962488651275635  0.08245155960321429  1.0000
  Mo  Mo3       1.0  0.2528349757194519  0.6047605872154236  0.8716554045677185  1.0000
  Mo  Mo4       1.0  0.4212774634361267  0.08122509717941284  0.5827142000198364  1.0000
  Ni  Ni1       1.0  0.8528639674186707  0.33121180534362793  0.14773410558700567  1.0000
  O   O1        1.0  0.20523060858249664  0.021173691377043724  0.28854668140411377  1.0000
  O   O2        1.0  0.46765652298927307  0.6172493100166321  0.6883350610733032  1.0000
  O   O3        1.0  0.18722578883171082  0.8379568457603455  0.08690979331731798  1.0000
  O   O4        1.0  0.688461184501648  0.8395193219184875  0.396199256181717  1.0000
  O   O5        1.0  0.7943122386932373  0.33419468998908997  0.654920220375061  1.0000
  O   O6        1.0  0.9760352969169617  0.11292519420385361  0.007289176806807544  1.0000
  Sr  Sr1       1.0  0.8139510154724121  0.7266473174095154  0.44950664043426514  1.0000
  Sr  Sr2       1.0  0.8804627656936646  0.09644981473684311  0.6691960096359253  1.0000
