data_image0
_chemical_formula_structural       CsO9Sr2Zr2
_chemical_formula_sum              "Cs1 O9 Sr2 Zr2"
_cell_length_a       6.576205931606799
_cell_length_b       6.6779260240618195
_cell_length_c       6.49742317199707
_cell_angle_alpha    61.46016332844433
_cell_angle_beta     58.476510365921484
_cell_angle_gamma    58.30971010953468

_space_group_name_H-M_alt    "P 1"
_space_group_IT_number       1

loop_
  _space_group_symop_operation_xyz
  'x, y, z'

loop_
  _atom_site_type_symbol
  _atom_site_label
  _atom_site_symmetry_multiplicity
  _atom_site_fract_x
  _atom_site_fract_y
  _atom_site_fract_z
  _atom_site_occupancy
  Cs  Cs1       1.0  0.5851872563362122  0.8705903887748718  0.6528722643852234  1.0000
  O   O1        1.0  0.060801681131124496  0.9080744981765747  0.8038663268089297  1.0000
  O   O2        1.0  0.16335897147655487  0.6798207759857178  0.9452933669090272  1.0000
  O   O3        1.0  0.6308762431144714  0.22244341671466827  0.6659193634986877  1.0000
  O   O4        1.0  0.26349660754203796  0.7171693444252014  0.25089117884635925  1.0000
  O   O5        1.0  0.7731155753135681  0.18487763404846191  0.4326871037483216  1.0000
  O   O6        1.0  0.9339965581893921  0.21618662774562836  0.3360775411128998  1.0000
  O   O7        1.0  0.9202373623847961  0.3852645754814148  0.5894296765327454  1.0000
  O   O8        1.0  0.6237645745277405  0.6367195844650269  0.15672186017036438  1.0000
  O   O9        1.0  0.3664838373661041  0.2127523422241211  0.41196370124816895  1.0000
  Sr  Sr1       1.0  0.8323816061019897  0.15855535864830017  0.1600750982761383  1.0000
  Sr  Sr2       1.0  0.3308456838130951  0.3863365054130554  0.24979408085346225  1.0000
  Zr  Zr1       1.0  0.8985591530799866  0.6663642525672913  0.0647125095129013  1.0000
  Zr  Zr2       1.0  0.2656244933605194  0.7215778231620789  0.7164612412452698  1.0000
