data_image0
_chemical_formula_structural       P2Pd2PrZn2
_chemical_formula_sum              "P2 Pd2 Pr1 Zn2"
_cell_length_a       5.776322841284947
_cell_length_b       6.427691083684393
_cell_length_c       6.512578964233398
_cell_angle_alpha    75.21061920071696
_cell_angle_beta     65.52459715057887
_cell_angle_gamma    65.10519779605569

_space_group_name_H-M_alt    "P 1"
_space_group_IT_number       1

loop_
  _space_group_symop_operation_xyz
  'x, y, z'

loop_
  _atom_site_type_symbol
  _atom_site_label
  _atom_site_symmetry_multiplicity
  _atom_site_fract_x
  _atom_site_fract_y
  _atom_site_fract_z
  _atom_site_occupancy
  P   P1        1.0  0.6740654110908508  0.6877657771110535  0.707317054271698  1.0000
  P   P2        1.0  0.06029459834098816  0.7962331771850586  0.5647482872009277  1.0000
  Pd  Pd1       1.0  0.5536636710166931  0.9830955266952515  0.4484887421131134  1.0000
  Pd  Pd2       1.0  0.04627303406596184  0.47790059447288513  0.9480370283126831  1.0000
  Pr  Pr1       1.0  0.23202046751976013  0.12399299442768097  0.36414721608161926  1.0000
  Zn  Zn1       1.0  0.5903883576393127  0.23874002695083618  0.871096670627594  1.0000
  Zn  Zn2       1.0  0.04286807030439377  0.9878531694412231  0.9924640655517579  1.0000
