data_image0
_chemical_formula_structural       Ge4Nb2NdSi2
_chemical_formula_sum              "Ge4 Nb2 Nd1 Si2"
_cell_length_a       3.9796652026394526
_cell_length_b       6.479879298097232
_cell_length_c       7.78275203704834
_cell_angle_alpha    113.61051690547498
_cell_angle_beta     89.80100044079022
_cell_angle_gamma    89.06132039166701

_space_group_name_H-M_alt    "P 1"
_space_group_IT_number       1

loop_
  _space_group_symop_operation_xyz
  'x, y, z'

loop_
  _atom_site_type_symbol
  _atom_site_label
  _atom_site_symmetry_multiplicity
  _atom_site_fract_x
  _atom_site_fract_y
  _atom_site_fract_z
  _atom_site_occupancy
  Ge  Ge1       1.0  0.17543970048427582  0.42723536491394043  0.01955663226544857  1.0000
  Ge  Ge2       1.0  0.16382303833961487  0.4043586552143097  0.5189392566680908  1.0000
  Ge  Ge3       1.0  0.19435730576515198  0.01448812335729599  0.22765061259269717  1.0000
  Ge  Ge4       1.0  0.17058677971363068  0.9928611516952515  0.4695764780044557  1.0000
  Nb  Nb1       1.0  0.6809337735176086  0.9982581734657288  0.6876264214515686  1.0000
  Nb  Nb2       1.0  0.6764024496078491  0.8963705897331238  0.8567739725112916  1.0000
  Nd  Nd1       1.0  0.16782651841640472  0.8717572093009949  0.9229804873466493  1.0000
  Si  Si1       1.0  0.17585651576519012  0.9215498566627502  0.8785319924354554  1.0000
  Si  Si2       1.0  0.689546525478363  0.7249078750610352  0.2159456014633179  1.0000
