data_image0
_chemical_formula_structural       Ge5Nb3Tl
_chemical_formula_sum              "Ge5 Nb3 Tl1"
_cell_length_a       4.220744731162255
_cell_length_b       6.420370050931702
_cell_length_c       7.412435531616211
_cell_angle_alpha    90.27428754977116
_cell_angle_beta     90.90462895936814
_cell_angle_gamma    90.23511314627306

_space_group_name_H-M_alt    "P 1"
_space_group_IT_number       1

loop_
  _space_group_symop_operation_xyz
  'x, y, z'

loop_
  _atom_site_type_symbol
  _atom_site_label
  _atom_site_symmetry_multiplicity
  _atom_site_fract_x
  _atom_site_fract_y
  _atom_site_fract_z
  _atom_site_occupancy
  Ge  Ge1       1.0  0.7420657873153687  0.513097882270813  0.782802402973175  1.0000
  Ge  Ge2       1.0  0.24596884846687317  0.28666988015174866  0.02052116207778454  1.0000
  Ge  Ge3       1.0  0.24171483516693115  0.3085753917694092  0.7796933650970459  1.0000
  Ge  Ge4       1.0  0.7460204362869262  0.8365744948387145  0.36103111505508423  1.0000
  Ge  Ge5       1.0  0.7488359808921814  0.8219747543334961  0.03374358266592026  1.0000
  Nb  Nb1       1.0  0.24440898001194  0.6361393332481384  0.10270705074071884  1.0000
  Nb  Nb2       1.0  0.2473776936531067  0.31915345788002014  0.524207592010498  1.0000
  Nb  Nb3       1.0  0.2493928223848343  0.846149981021881  0.11196542531251907  1.0000
  Tl  Tl1       1.0  0.7474402189254761  0.333441823720932  0.30509644746780396  1.0000
