data_image0
_chemical_formula_structural       Ge3Nb2Sb2Si2
_chemical_formula_sum              "Ge3 Nb2 Sb2 Si2"
_cell_length_a       4.960186109966792
_cell_length_b       6.191127875249516
_cell_length_c       7.37714147567749
_cell_angle_alpha    112.89692591020396
_cell_angle_beta     104.72070902594699
_cell_angle_gamma    89.09443771165586

_space_group_name_H-M_alt    "P 1"
_space_group_IT_number       1

loop_
  _space_group_symop_operation_xyz
  'x, y, z'

loop_
  _atom_site_type_symbol
  _atom_site_label
  _atom_site_symmetry_multiplicity
  _atom_site_fract_x
  _atom_site_fract_y
  _atom_site_fract_z
  _atom_site_occupancy
  Ge  Ge1       1.0  0.84250807762146  0.5757625102996826  0.6725114583969115  1.0000
  Ge  Ge2       1.0  0.24200475215911865  0.6980390548706055  0.3341487348079681  1.0000
  Ge  Ge3       1.0  0.7472323179244995  0.19199340045452118  0.304135113954544  1.0000
  Nb  Nb1       1.0  0.8423691987991333  0.40915557742118835  0.5098048448562622  1.0000
  Nb  Nb2       1.0  0.3385164141654968  0.5577240586280823  0.6288186311721801  1.0000
  Sb  Sb1       1.0  0.08080277591943741  0.039513979107141495  0.12709327042102814  1.0000
  Sb  Sb2       1.0  0.5701907277107239  0.6895601153373718  0.2767810821533203  1.0000
  Si  Si1       1.0  0.3858926296234131  0.09492819756269455  0.908062994480133  1.0000
  Si  Si2       1.0  0.8246815204620361  0.021319281309843063  0.615095019340515  1.0000
