data_image0
_chemical_formula_structural       Ge4HoNb3Sb
_chemical_formula_sum              "Ge4 Ho1 Nb3 Sb1"
_cell_length_a       4.249509743144775
_cell_length_b       5.895244872200626
_cell_length_c       7.878979206085205
_cell_angle_alpha    90.15729414415132
_cell_angle_beta     89.70037452221054
_cell_angle_gamma    89.86847185134145

_space_group_name_H-M_alt    "P 1"
_space_group_IT_number       1

loop_
  _space_group_symop_operation_xyz
  'x, y, z'

loop_
  _atom_site_type_symbol
  _atom_site_label
  _atom_site_symmetry_multiplicity
  _atom_site_fract_x
  _atom_site_fract_y
  _atom_site_fract_z
  _atom_site_occupancy
  Ge  Ge1       1.0  0.6406306028366089  0.9094125032424927  0.07477508485317232  1.0000
  Ge  Ge2       1.0  0.6360917091369629  0.9128693342208862  0.20376588404178622  1.0000
  Ge  Ge3       1.0  0.14092373847961426  0.3710549473762512  0.732823669910431  1.0000
  Ge  Ge4       1.0  0.12569980323314667  0.8850293755531311  0.494220107793808  1.0000
  Ho  Ho1       1.0  0.6332945227622986  0.16098719835281372  0.9906981587409974  1.0000
  Nb  Nb1       1.0  0.13715285062789917  0.7088308334350586  0.3339377343654633  1.0000
  Nb  Nb2       1.0  0.13768483698368073  0.6322028040885925  0.4928160905838013  1.0000
  Nb  Nb3       1.0  0.13737542927265167  0.21396654844284058  0.010489705950021746  1.0000
  Sb  Sb1       1.0  0.6334249377250671  0.13402798771858215  0.7596744298934938  1.0000
