data_image0
_chemical_formula_structural       Ge4Ho2Nb2Tl
_chemical_formula_sum              "Ge4 Ho2 Nb2 Tl1"
_cell_length_a       4.583653161070224
_cell_length_b       6.67224651786924
_cell_length_c       6.773711681365967
_cell_angle_alpha    90.07518331723796
_cell_angle_beta     90.39755183453813
_cell_angle_gamma    90.36392449637968

_space_group_name_H-M_alt    "P 1"
_space_group_IT_number       1

loop_
  _space_group_symop_operation_xyz
  'x, y, z'

loop_
  _atom_site_type_symbol
  _atom_site_label
  _atom_site_symmetry_multiplicity
  _atom_site_fract_x
  _atom_site_fract_y
  _atom_site_fract_z
  _atom_site_occupancy
  Ge  Ge1       1.0  0.48761528730392456  0.6978775858879089  0.971316158771515  1.0000
  Ge  Ge2       1.0  0.49298277497291565  0.33736738562583923  0.13191427290439606  1.0000
  Ge  Ge3       1.0  0.49733155965805054  0.15866604447364807  0.02818706259131432  1.0000
  Ge  Ge4       1.0  0.9947437047958374  0.3289766013622284  0.234372615814209  1.0000
  Ho  Ho1       1.0  0.9907587766647339  0.6790046095848083  0.6818503737449647  1.0000
  Ho  Ho2       1.0  0.9926946759223938  0.9338541626930237  0.45370164513587957  1.0000
  Nb  Nb1       1.0  0.49883517622947693  0.9108459949493408  0.7492806315422059  1.0000
  Nb  Nb2       1.0  0.9977591633796692  0.3453383147716522  0.7374635338783265  1.0000
  Tl  Tl1       1.0  0.9773667454719543  0.6666751503944397  0.6045853495597839  1.0000
