data_image0
_chemical_formula_structural       LaNd2PdS3SbSc2Si
_chemical_formula_sum              "La1 Nd2 Pd1 S3 Sb1 Sc2 Si1"
_cell_length_a       5.529322496704128
_cell_length_b       7.19971686205394
_cell_length_c       7.7805562019348145
_cell_angle_alpha    116.02868398840917
_cell_angle_beta     103.67910446792894
_cell_angle_gamma    89.64617707524273

_space_group_name_H-M_alt    "P 1"
_space_group_IT_number       1

loop_
  _space_group_symop_operation_xyz
  'x, y, z'

loop_
  _atom_site_type_symbol
  _atom_site_label
  _atom_site_symmetry_multiplicity
  _atom_site_fract_x
  _atom_site_fract_y
  _atom_site_fract_z
  _atom_site_occupancy
  La  La1       1.0  0.8971414566040039  0.7150198817253113  0.5595567226409912  1.0000
  Nd  Nd1       1.0  0.8679013252258301  0.27278444170951843  0.46612507104873663  1.0000
  Nd  Nd2       1.0  0.9058256149291992  0.050872117280960076  0.7984344363212585  1.0000
  Pd  Pd1       1.0  0.36043986678123474  0.3038654327392578  0.6553866267204285  1.0000
  S   S1        1.0  0.08881415426731108  0.7560551166534423  0.9158442616462708  1.0000
  S   S2        1.0  0.5904248952865601  0.23870086669921872  0.8525488376617432  1.0000
  S   S3        1.0  0.13269200921058655  0.2859944701194763  0.08113465458154676  1.0000
  Sb  Sb1       1.0  0.23856019973754883  0.04309733211994171  0.29468515515327454  1.0000
  Sc  Sc1       1.0  0.2926502525806427  0.7331042289733887  0.8675708174705505  1.0000
  Sc  Sc2       1.0  0.5659903883934021  0.2780720293521881  0.8441556692123413  1.0000
  Si  Si1       1.0  0.648138165473938  0.7817241549491881  0.6175633072853088  1.0000
