data_image0
_chemical_formula_structural       FLa2Nd2Pd2SSb2Si
_chemical_formula_sum              "F1 La2 Nd2 Pd2 S1 Sb2 Si1"
_cell_length_a       5.287348959093981
_cell_length_b       7.71765253809674
_cell_length_c       7.926183700561523
_cell_angle_alpha    119.29625024848727
_cell_angle_beta     88.73125957383908
_cell_angle_gamma    89.66764175411134

_space_group_name_H-M_alt    "P 1"
_space_group_IT_number       1

loop_
  _space_group_symop_operation_xyz
  'x, y, z'

loop_
  _atom_site_type_symbol
  _atom_site_label
  _atom_site_symmetry_multiplicity
  _atom_site_fract_x
  _atom_site_fract_y
  _atom_site_fract_z
  _atom_site_occupancy
  F   F1        1.0  0.04255611076951027  0.5601612329483032  0.06634180247783655  1.0000
  La  La1       1.0  0.5542742013931274  0.227676048874855  0.7687609195709229  1.0000
  La  La2       1.0  0.04997509717941284  0.7674042582511902  0.075173869729042  1.0000
  Nd  Nd1       1.0  0.05009835213422775  0.005541231948882341  0.47948622703552246  1.0000
  Nd  Nd2       1.0  0.5546495318412781  0.3227309584617615  0.2919681966304779  1.0000
  Pd  Pd1       1.0  0.047821443527936935  0.26560428738594055  0.7383221983909607  1.0000
  Pd  Pd2       1.0  0.037280645221471786  0.3053397536277771  0.1169293224811554  1.0000
  S   S1        1.0  0.550658106803894  0.1777380108833313  0.8288884162902832  1.0000
  Sb  Sb1       1.0  0.5412349700927734  0.26427674293518066  0.07208502292633054  1.0000
  Sb  Sb2       1.0  0.047472577542066574  0.5408629775047302  0.6888540387153625  1.0000
  Si  Si1       1.0  0.3719879388809204  0.9759654998779296  0.6688109636306762  1.0000
