data_image0
_chemical_formula_structural       FLaNdPd3S2Sb2Sc
_chemical_formula_sum              "F1 La1 Nd1 Pd3 S2 Sb2 Sc1"
_cell_length_a       6.700397707713742
_cell_length_b       7.21083509818382
_cell_length_c       7.721287727355957
_cell_angle_alpha    114.64892436593306
_cell_angle_beta     108.03707716881517
_cell_angle_gamma    88.70709681283155

_space_group_name_H-M_alt    "P 1"
_space_group_IT_number       1

loop_
  _space_group_symop_operation_xyz
  'x, y, z'

loop_
  _atom_site_type_symbol
  _atom_site_label
  _atom_site_symmetry_multiplicity
  _atom_site_fract_x
  _atom_site_fract_y
  _atom_site_fract_z
  _atom_site_occupancy
  F   F1        1.0  0.5136429667472839  0.13999204337596893  0.30711743235588074  1.0000
  La  La1       1.0  0.20758011937141418  0.87200927734375  0.6709544062614441  1.0000
  Nd  Nd1       1.0  0.2123071849346161  0.30587249994277954  0.6254594922065735  1.0000
  Pd  Pd1       1.0  0.994111716747284  0.8079800009727478  0.637895166873932  1.0000
  Pd  Pd2       1.0  0.772261917591095  0.08554470539093018  0.2724176347255707  1.0000
  Pd  Pd3       1.0  0.47996181249618536  0.882533609867096  0.5991837382316589  1.0000
  S   S1        1.0  0.49153161048889166  0.6402109265327454  0.8797224164009094  1.0000
  S   S2        1.0  0.6657931208610535  0.41934674978256226  0.5341440439224243  1.0000
  Sb  Sb1       1.0  0.15342217683792114  0.9096260666847229  0.029490089043974932  1.0000
  Sb  Sb2       1.0  0.6633030772209167  0.30489271879196167  0.6439134478569031  1.0000
  Sc  Sc1       1.0  0.7369517087936401  0.4084863066673279  0.6228132843971252  1.0000
