data_image0
_chemical_formula_structural       Nd4Pd2SSb3Sr
_chemical_formula_sum              "Nd4 Pd2 S1 Sb3 Sr1"
_cell_length_a       6.094149112509447
_cell_length_b       6.370165821311898
_cell_length_c       6.333382606506348
_cell_angle_alpha    115.74065939255705
_cell_angle_beta     103.48316147624493
_cell_angle_gamma    94.18158157572262

_space_group_name_H-M_alt    "P 1"
_space_group_IT_number       1

loop_
  _space_group_symop_operation_xyz
  'x, y, z'

loop_
  _atom_site_type_symbol
  _atom_site_label
  _atom_site_symmetry_multiplicity
  _atom_site_fract_x
  _atom_site_fract_y
  _atom_site_fract_z
  _atom_site_occupancy
  Nd  Nd1       1.0  0.7141294479370117  0.3300494849681854  0.34537652134895325  1.0000
  Nd  Nd2       1.0  0.22477634251117706  0.6369997262954712  0.3257853090763092  1.0000
  Nd  Nd3       1.0  0.7599679231643677  0.23370461165905  0.23415221273899078  1.0000
  Nd  Nd4       1.0  0.9591594338417053  0.10949606448411942  0.07176513969898224  1.0000
  Pd  Pd1       1.0  0.27635273337364197  0.11003855615854263  0.6170603036880493  1.0000
  Pd  Pd2       1.0  0.4398859441280365  0.14831368625164032  0.8617907762527466  1.0000
  S   S1        1.0  0.2346828132867813  0.7392213940620422  0.7250080108642578  1.0000
  Sb  Sb1       1.0  0.9487155675888062  0.10257159918546677  0.8751310110092163  1.0000
  Sb  Sb2       1.0  0.7188311219215393  0.1366751343011856  0.3292560279369354  1.0000
  Sb  Sb3       1.0  0.2374684065580368  0.49798762798309326  0.5586702227592468  1.0000
  Sr  Sr1       1.0  0.7256547808647156  0.12252083420753479  0.3888291120529175  1.0000
