data_image0
_chemical_formula_structural       MoNd5Pd2Sb2Sr
_chemical_formula_sum              "Mo1 Nd5 Pd2 Sb2 Sr1"
_cell_length_a       5.7943147153541625
_cell_length_b       6.440943288272323
_cell_length_c       6.06781530380249
_cell_angle_alpha    112.84504959053824
_cell_angle_beta     90.41561363419811
_cell_angle_gamma    91.19285402028923

_space_group_name_H-M_alt    "P 1"
_space_group_IT_number       1

loop_
  _space_group_symop_operation_xyz
  'x, y, z'

loop_
  _atom_site_type_symbol
  _atom_site_label
  _atom_site_symmetry_multiplicity
  _atom_site_fract_x
  _atom_site_fract_y
  _atom_site_fract_z
  _atom_site_occupancy
  Mo  Mo1       1.0  0.03127043694257736  0.7855530977249146  0.281682550907135  1.0000
  Nd  Nd1       1.0  0.026665877550840374  0.31308114528656006  0.2923657298088074  1.0000
  Nd  Nd2       1.0  0.972812533378601  0.5497561097145081  0.8085555434226989  1.0000
  Nd  Nd3       1.0  0.4535043835639953  0.6181707978248596  0.7545520663261412  1.0000
  Nd  Nd4       1.0  0.9798236489295958  0.8091802597045898  0.06967836618423462  1.0000
  Nd  Nd5       1.0  0.5843691229820251  0.5627366900444031  0.24319486320018766  1.0000
  Pd  Pd1       1.0  0.6713427901268005  0.5590716004371643  0.44158422946929926  1.0000
  Pd  Pd2       1.0  0.45727801322937006  0.2785402536392212  0.9172500371932982  1.0000
  Sb  Sb1       1.0  0.33646082878112793  0.06501520425081253  0.5810034871101379  1.0000
  Sb  Sb2       1.0  0.6981256008148193  0.11935929208993912  0.07592418044805527  1.0000
  Sr  Sr1       1.0  0.03141143545508385  0.1596316248178482  0.7487770915031432  1.0000
