data_image0
_chemical_formula_structural       Pd4S2SbScSi3
_chemical_formula_sum              "Pd4 S2 Sb1 Sc1 Si3"
_cell_length_a       5.823324975538795
_cell_length_b       6.40753161587106
_cell_length_c       7.026711940765381
_cell_angle_alpha    112.49916905871859
_cell_angle_beta     102.96120617719205
_cell_angle_gamma    99.16867607702098

_space_group_name_H-M_alt    "P 1"
_space_group_IT_number       1

loop_
  _space_group_symop_operation_xyz
  'x, y, z'

loop_
  _atom_site_type_symbol
  _atom_site_label
  _atom_site_symmetry_multiplicity
  _atom_site_fract_x
  _atom_site_fract_y
  _atom_site_fract_z
  _atom_site_occupancy
  Pd  Pd1       1.0  0.8780563473701477  0.9037648439407349  0.38411304354667664  1.0000
  Pd  Pd2       1.0  0.8325759768486023  0.32799655199050903  0.3920038044452667  1.0000
  Pd  Pd3       1.0  0.32265764474868774  0.6182960867881775  0.4830951690673828  1.0000
  Pd  Pd4       1.0  0.6223559379577637  0.5849558711051941  0.7889871597290039  1.0000
  S   S1        1.0  0.5587737560272217  0.9504526257514955  0.1556304395198822  1.0000
  S   S2        1.0  0.045586008578538895  0.2913878262042999  0.8894009590148926  1.0000
  Sb  Sb1       1.0  0.6864091753959656  0.49602597951889044  0.6454413533210754  1.0000
  Sc  Sc1       1.0  0.9186467528343201  0.13417255878448486  0.5723189115524292  1.0000
  Si  Si1       1.0  0.8560214042663574  0.8565611839294434  0.15097780525684357  1.0000
  Si  Si2       1.0  0.16299286484718323  0.07678581774234772  0.6344066262245178  1.0000
  Si  Si3       1.0  0.19583134353160858  0.9037447571754456  0.3165794610977173  1.0000
