data_image0
_chemical_formula_structural       CCl3H3N4Rh2
_chemical_formula_sum              "C1 Cl3 H3 N4 Rh2"
_cell_length_a       5.436161001453257
_cell_length_b       6.881177988995553
_cell_length_c       7.050906181335449
_cell_angle_alpha    95.81839470315948
_cell_angle_beta     104.14595505665766
_cell_angle_gamma    107.40878677986404

_space_group_name_H-M_alt    "P 1"
_space_group_IT_number       1

loop_
  _space_group_symop_operation_xyz
  'x, y, z'

loop_
  _atom_site_type_symbol
  _atom_site_label
  _atom_site_symmetry_multiplicity
  _atom_site_fract_x
  _atom_site_fract_y
  _atom_site_fract_z
  _atom_site_occupancy
  C   C1        1.0  0.9521416425704956  0.05394423007965088  0.009057529270648956  1.0000
  Cl  Cl1       1.0  0.7989611029624939  0.8558691740036011  0.4513031244277954  1.0000
  Cl  Cl2       1.0  0.07294774800539017  0.46056804060935974  0.3793371915817261  1.0000
  Cl  Cl3       1.0  0.6510171890258789  0.46445679664611816  0.9342525005340576  1.0000
  H   H1        1.0  0.47696998715400696  0.8371698260307312  0.02926991507411003  1.0000
  H   H2        1.0  0.448196142911911  0.059974148869514465  0.758010983467102  1.0000
  H   H3        1.0  0.20228232443332672  0.6673888564109802  0.18136706948280334  1.0000
  N   N1        1.0  0.14461947977542877  0.847517728805542  0.8701592683792114  1.0000
  N   N2        1.0  0.23121120035648346  0.09136553108692169  0.5210081338882446  1.0000
  N   N3        1.0  0.7431066036224365  0.9455825090408325  0.12598393857479098  1.0000
  N   N4        1.0  0.7079503536224365  0.6558266282081604  0.5720527768135071  1.0000
  Rh  Rh1       1.0  0.4117022752761841  0.38547322154045105  0.45764487981796265  1.0000
  Rh  Rh2       1.0  0.9095879197120667  0.18328244984149933  0.13418009877204898  1.0000
