data_image0
_chemical_formula_structural       Cl3H3N4Rh3
_chemical_formula_sum              "Cl3 H3 N4 Rh3"
_cell_length_a       4.575068155106743
_cell_length_b       6.5954191484991025
_cell_length_c       7.3384690284729
_cell_angle_alpha    88.98936856399644
_cell_angle_beta     87.59313262798747
_cell_angle_gamma    88.75056671092712

_space_group_name_H-M_alt    "P 1"
_space_group_IT_number       1

loop_
  _space_group_symop_operation_xyz
  'x, y, z'

loop_
  _atom_site_type_symbol
  _atom_site_label
  _atom_site_symmetry_multiplicity
  _atom_site_fract_x
  _atom_site_fract_y
  _atom_site_fract_z
  _atom_site_occupancy
  Cl  Cl1       1.0  0.07933258265256882  0.17042644321918488  0.9207140803337097  1.0000
  Cl  Cl2       1.0  0.053913701325654984  0.5477427840232849  0.6486955881118774  1.0000
  Cl  Cl3       1.0  0.4278281629085541  0.9231827855110168  0.2637158930301666  1.0000
  H   H1        1.0  0.5576974153518677  0.47587117552757263  0.21272534132003784  1.0000
  H   H2        1.0  0.7588177919387817  0.6376074552536011  0.28503331542015076  1.0000
  H   H3        1.0  0.19840994477272034  0.14985696971416473  0.8026517033576965  1.0000
  N   N1        1.0  0.413332462310791  0.8725796937942505  0.49955055117607117  1.0000
  N   N2        1.0  0.7691926956176758  0.3425392508506775  0.6179584264755249  1.0000
  N   N3        1.0  0.15804125368595123  0.5349210500717163  0.8643514513969421  1.0000
  N   N4        1.0  0.851059079170227  0.3953764736652374  0.3552645742893219  1.0000
  Rh  Rh1       1.0  0.7538177371025085  0.8448470234870911  0.4022800624370575  1.0000
  Rh  Rh2       1.0  0.7692963480949402  0.1349443942308426  0.09591720998287201  1.0000
  Rh  Rh3       1.0  0.25410541892051697  0.3442939817905426  0.3846205770969391  1.0000
