data_image0
_chemical_formula_structural       Cl3H3N4PtRh2
_chemical_formula_sum              "Cl3 H3 N4 Pt1 Rh2"
_cell_length_a       5.275580079785939
_cell_length_b       6.6100636129954395
_cell_length_c       6.785900115966797
_cell_angle_alpha    104.21692846903079
_cell_angle_beta     95.43599358351618
_cell_angle_gamma    100.03511563050172

_space_group_name_H-M_alt    "P 1"
_space_group_IT_number       1

loop_
  _space_group_symop_operation_xyz
  'x, y, z'

loop_
  _atom_site_type_symbol
  _atom_site_label
  _atom_site_symmetry_multiplicity
  _atom_site_fract_x
  _atom_site_fract_y
  _atom_site_fract_z
  _atom_site_occupancy
  Cl  Cl1       1.0  0.48132455348968506  0.8106931447982788  0.5178745985031128  1.0000
  Cl  Cl2       1.0  0.08880393207073212  0.1746162623167038  0.9273566603660585  1.0000
  Cl  Cl3       1.0  0.10217847675085068  0.5999797582626343  0.2797439694404602  1.0000
  H   H1        1.0  0.6290586590766907  0.44853317737579346  0.22064204514026645  1.0000
  H   H2        1.0  0.5463775992393494  0.9361957311630249  0.8743656873703004  1.0000
  H   H3        1.0  0.977640688419342  0.8114557862281799  0.6833654046058655  1.0000
  N   N1        1.0  0.32047799229621887  0.7069156765937805  0.6834099888801575  1.0000
  N   N2        1.0  0.21476365625858307  0.6518679261207581  0.9386740922927858  1.0000
  N   N3        1.0  0.9057636260986328  0.6026780009269714  0.4327970445156098  1.0000
  N   N4        1.0  0.5964382290840149  0.343022882938385  0.3885500133037567  1.0000
  Pt  Pt1       1.0  0.9481666684150696  0.9321213960647583  0.17457462847232819  1.0000
  Rh  Rh1       1.0  0.8954544067382812  0.39005881547927856  0.8582307696342469  1.0000
  Rh  Rh2       1.0  0.4121570289134979  0.10028376430273056  0.9339751601219178  1.0000
