data_image0
_chemical_formula_structural       Cl2H4HgN2Rh4
_chemical_formula_sum              "Cl2 H4 Hg1 N2 Rh4"
_cell_length_a       5.454503117874411
_cell_length_b       6.166257981408063
_cell_length_c       8.113236427307129
_cell_angle_alpha    105.4387671547929
_cell_angle_beta     105.81203920691749
_cell_angle_gamma    89.59899630350986

_space_group_name_H-M_alt    "P 1"
_space_group_IT_number       1

loop_
  _space_group_symop_operation_xyz
  'x, y, z'

loop_
  _atom_site_type_symbol
  _atom_site_label
  _atom_site_symmetry_multiplicity
  _atom_site_fract_x
  _atom_site_fract_y
  _atom_site_fract_z
  _atom_site_occupancy
  Cl  Cl1       1.0  0.7186260223388672  0.28037235140800476  0.39496898651123047  1.0000
  Cl  Cl2       1.0  0.08290558308362961  0.2676329016685486  0.8669205904006958  1.0000
  H   H1        1.0  0.5732925534248352  0.3986951410770416  0.16457678377628326  1.0000
  H   H2        1.0  0.9699589014053346  0.8102326989173888  0.7938490509986877  1.0000
  H   H3        1.0  0.8462554216384888  0.12119442969560622  0.8248534202575684  1.0000
  H   H4        1.0  0.38132137060165405  0.9111174941062926  0.19196274876594543  1.0000
  Hg  Hg1       1.0  0.5533348321914673  0.7777937650680542  0.6892105937004089  1.0000
  N   N1        1.0  0.23048613965511325  0.5146490931510925  0.8966693878173828  1.0000
  N   N2        1.0  0.9791671633720399  0.7778480648994446  0.734290599822998  1.0000
  Rh  Rh1       1.0  0.0578225962817669  0.2995556592941284  0.710543692111969  1.0000
  Rh  Rh2       1.0  0.5726791620254517  0.007642780896276235  0.4451321959495545  1.0000
  Rh  Rh3       1.0  0.8667399883270264  0.18674945831298828  0.09225746244192123  1.0000
  Rh  Rh4       1.0  0.1064363420009613  0.46368527412414545  0.19340217113494873  1.0000
