data_image0
_chemical_formula_structural       CCl2H5NRh4
_chemical_formula_sum              "C1 Cl2 H5 N1 Rh4"
_cell_length_a       5.187916891211034
_cell_length_b       5.692885899538504
_cell_length_c       7.828608989715576
_cell_angle_alpha    107.70488544486732
_cell_angle_beta     105.15294828512604
_cell_angle_gamma    90.30681447749824

_space_group_name_H-M_alt    "P 1"
_space_group_IT_number       1

loop_
  _space_group_symop_operation_xyz
  'x, y, z'

loop_
  _atom_site_type_symbol
  _atom_site_label
  _atom_site_symmetry_multiplicity
  _atom_site_fract_x
  _atom_site_fract_y
  _atom_site_fract_z
  _atom_site_occupancy
  C   C1        1.0  0.2463628351688385  0.19050198793411252  0.6757706403732299  1.0000
  Cl  Cl1       1.0  0.2194770872592926  0.716710090637207  0.11601392179727553  1.0000
  Cl  Cl2       1.0  0.7777956128120422  0.4221962988376617  0.4793065786361694  1.0000
  H   H1        1.0  0.4707455337047577  0.06572514772415161  0.00812216941267252  1.0000
  H   H2        1.0  0.9661681652069092  0.40018138289451594  0.524997889995575  1.0000
  H   H3        1.0  0.3695606291294098  0.8651620149612426  0.3864006698131561  1.0000
  H   H4        1.0  0.1736922711133957  0.8115767240524291  0.8042459487915038  1.0000
  H   H5        1.0  0.6560062170028687  0.3621463179588318  0.27015185356140137  1.0000
  N   N1        1.0  0.1718938648700714  0.17133848369121552  0.8167134523391723  1.0000
  Rh  Rh1       1.0  0.11552301049232483  0.4829643070697784  0.165206104516983  1.0000
  Rh  Rh2       1.0  0.19145245850086212  0.6471156477928162  0.5097833871841431  1.0000
  Rh  Rh3       1.0  0.6055089235305786  0.15087832510471344  0.17291972041130063  1.0000
  Rh  Rh4       1.0  0.6533086895942688  0.9888828396797179  0.7548683881759642  1.0000
