data_image0
_chemical_formula_structural       Cl3H4N3Rh2Te
_chemical_formula_sum              "Cl3 H4 N3 Rh2 Te1"
_cell_length_a       4.556936004504936
_cell_length_b       6.7532609287966086
_cell_length_c       7.507462024688721
_cell_angle_alpha    112.29946274477444
_cell_angle_beta     96.4340116903406
_cell_angle_gamma    89.65137884667023

_space_group_name_H-M_alt    "P 1"
_space_group_IT_number       1

loop_
  _space_group_symop_operation_xyz
  'x, y, z'

loop_
  _atom_site_type_symbol
  _atom_site_label
  _atom_site_symmetry_multiplicity
  _atom_site_fract_x
  _atom_site_fract_y
  _atom_site_fract_z
  _atom_site_occupancy
  Cl  Cl1       1.0  0.5813422799110413  0.8144897222518921  0.5526242256164551  1.0000
  Cl  Cl2       1.0  0.6347392797470093  0.7114150524139404  0.6707701683044434  1.0000
  Cl  Cl3       1.0  0.9255703687667847  0.9174618124961853  0.47207787632942194  1.0000
  H   H1        1.0  0.09846776723861694  0.5197089314460754  0.41618862748146057  1.0000
  H   H2        1.0  0.07847432047128677  0.772191047668457  0.07281915098428719  1.0000
  H   H3        1.0  0.36076703667640686  0.06716232001781464  0.9926692247390746  1.0000
  H   H4        1.0  0.578158438205719  0.26409536600112915  0.17463469505310059  1.0000
  N   N1        1.0  0.33325478434562683  0.9506673812866211  0.6514796614646912  1.0000
  N   N2        1.0  0.8687807321548462  0.4772060513496399  0.651582658290863  1.0000
  N   N3        1.0  0.3307209610939026  0.2679911255836487  0.4317018389701843  1.0000
  Rh  Rh1       1.0  0.6903257369995117  0.287947416305542  0.7729032039642334  1.0000
  Rh  Rh2       1.0  0.5658960938453674  0.5334821939468384  0.9188938736915588  1.0000
  Te  Te1       1.0  0.1292177438735962  0.30354493856430054  0.2551163136959076  1.0000
