data_image0
_chemical_formula_structural       Al2F2H5HoNU
_chemical_formula_sum              "Al2 F2 H5 Ho1 N1 U1"
_cell_length_a       4.820946928946447
_cell_length_b       5.315725431816617
_cell_length_c       5.762299537658691
_cell_angle_alpha    105.76990509951929
_cell_angle_beta     107.39291829234756
_cell_angle_gamma    110.7308534028646

_space_group_name_H-M_alt    "P 1"
_space_group_IT_number       1

loop_
  _space_group_symop_operation_xyz
  'x, y, z'

loop_
  _atom_site_type_symbol
  _atom_site_label
  _atom_site_symmetry_multiplicity
  _atom_site_fract_x
  _atom_site_fract_y
  _atom_site_fract_z
  _atom_site_occupancy
  Al  Al1       1.0  0.9137274622917175  0.8906112313270569  0.24288769066333768  1.0000
  Al  Al2       1.0  0.6830706596374512  0.9719662070274353  0.492640346288681  1.0000
  F   F1        1.0  0.3811327815055847  0.4885385036468506  0.9527798891067504  1.0000
  F   F2        1.0  0.4156031310558319  0.7993550300598145  0.07693290710449219  1.0000
  H   H1        1.0  0.3635118007659912  0.7131044864654541  0.7360444068908691  1.0000
  H   H2        1.0  0.6767152547836304  0.21363191306591034  0.5437756180763245  1.0000
  H   H3        1.0  0.1636672168970108  0.34011074900627136  0.5599092841148376  1.0000
  H   H4        1.0  0.9155566096305847  0.7602441310882568  0.6695531606674194  1.0000
  H   H5        1.0  0.6274275779724121  0.31479838490486145  0.34554198384284973  1.0000
  Ho  Ho1       1.0  0.634577214717865  0.9939714670181274  0.6625352501869202  1.0000
  N   N1        1.0  0.35954543948173523  0.9282283782958984  0.5678814649581909  1.0000
  U   U1        1.0  0.9053727388381958  0.7982233166694641  0.9814189672470092  1.0000
