data_image0
_chemical_formula_structural       Al2F3H4SiZn2
_chemical_formula_sum              "Al2 F3 H4 Si1 Zn2"
_cell_length_a       5.252091468808998
_cell_length_b       5.555919060750788
_cell_length_c       5.843879699707031
_cell_angle_alpha    64.04644188819216
_cell_angle_beta     66.17169563870596
_cell_angle_gamma    65.12138672951475

_space_group_name_H-M_alt    "P 1"
_space_group_IT_number       1

loop_
  _space_group_symop_operation_xyz
  'x, y, z'

loop_
  _atom_site_type_symbol
  _atom_site_label
  _atom_site_symmetry_multiplicity
  _atom_site_fract_x
  _atom_site_fract_y
  _atom_site_fract_z
  _atom_site_occupancy
  Al  Al1       1.0  0.28060182929039  0.04351787641644478  0.39955684542655945  1.0000
  Al  Al2       1.0  0.5800358057022095  0.8636816740036011  0.6403716206550598  1.0000
  F   F1        1.0  0.5832840204238892  0.7090408802032471  0.035832226276397705  1.0000
  F   F2        1.0  0.3428729772567749  0.536291241645813  0.1095777153968811  1.0000
  F   F3        1.0  0.17084366083145142  0.9319132566452026  0.4847332835197448  1.0000
  H   H1        1.0  0.876521646976471  0.16360779106616974  0.4084603786468506  1.0000
  H   H2        1.0  0.5215311646461487  0.4203535318374634  0.3679555058479309  1.0000
  H   H3        1.0  0.06890547275543213  0.5453156232833862  0.20533399283885956  1.0000
  H   H4        1.0  0.08752124011516571  0.04584226757287979  0.4767464101314544  1.0000
  Si  Si1       1.0  0.7712418437004089  0.05621892586350441  0.5479149222373962  1.0000
  Zn  Zn1       1.0  0.33744683861732483  0.6761031746864319  0.4273676872253418  1.0000
  Zn  Zn2       1.0  0.311940997838974  0.385703980922699  0.7333727478981018  1.0000
