data_image0
_chemical_formula_structural       Al5FH4UV
_chemical_formula_sum              "Al5 F1 H4 U1 V1"
_cell_length_a       4.640311801364512
_cell_length_b       4.47404568962563
_cell_length_c       4.318892002105713
_cell_angle_alpha    58.37764470141185
_cell_angle_beta     61.06948730342509
_cell_angle_gamma    59.405273851753094

_space_group_name_H-M_alt    "P 1"
_space_group_IT_number       1

loop_
  _space_group_symop_operation_xyz
  'x, y, z'

loop_
  _atom_site_type_symbol
  _atom_site_label
  _atom_site_symmetry_multiplicity
  _atom_site_fract_x
  _atom_site_fract_y
  _atom_site_fract_z
  _atom_site_occupancy
  Al  Al1       1.0  0.1887656301259994  0.9699020981788636  0.6089927554130554  1.0000
  Al  Al2       1.0  0.47487959265708923  0.6722283363342286  0.9827864170074463  1.0000
  Al  Al3       1.0  0.5427621603012085  0.49238392710685736  0.7946164608001709  1.0000
  Al  Al4       1.0  0.7872834205627441  0.22219450771808627  0.15677645802497864  1.0000
  Al  Al5       1.0  0.35499659180641174  0.2909524440765381  0.4441829025745392  1.0000
  F   F1        1.0  0.0767806470394134  0.8656300306320192  0.2753806710243225  1.0000
  H   H1        1.0  0.2309276163578033  0.9342007040977479  0.8423157334327698  1.0000
  H   H2        1.0  0.8702166080474854  0.1423996388912201  0.38118740916252125  1.0000
  H   H3        1.0  0.8629037737846375  0.6732331514358522  0.9699508547782898  1.0000
  H   H4        1.0  0.5103389024734497  0.726689100265503  0.9120453596115112  1.0000
  U   U1        1.0  0.5741995573043823  0.018987374380230904  0.7754158377647398  1.0000
  V   V1        1.0  0.08965400606393814  0.0703246220946312  0.32649677991867065  1.0000
