data_image0
_chemical_formula_structural       Al6FH4Na
_chemical_formula_sum              "Al6 F1 H4 Na1"
_cell_length_a       4.904234151440477
_cell_length_b       5.468324886222773
_cell_length_c       5.5533905029296875
_cell_angle_alpha    68.19571852826708
_cell_angle_beta     66.64012208399656
_cell_angle_gamma    61.65593691219015

_space_group_name_H-M_alt    "P 1"
_space_group_IT_number       1

loop_
  _space_group_symop_operation_xyz
  'x, y, z'

loop_
  _atom_site_type_symbol
  _atom_site_label
  _atom_site_symmetry_multiplicity
  _atom_site_fract_x
  _atom_site_fract_y
  _atom_site_fract_z
  _atom_site_occupancy
  Al  Al1       1.0  0.6773273944854736  0.41615936160087585  0.03469971567392349  1.0000
  Al  Al2       1.0  0.96043860912323  0.7247871160507202  0.9772502779960631  1.0000
  Al  Al3       1.0  0.30291852355003357  0.12375077605247498  0.2855362594127655  1.0000
  Al  Al4       1.0  0.39057767391204834  0.11715523153543472  0.3736957311630249  1.0000
  Al  Al5       1.0  0.7129256725311279  0.48234686255455017  0.5738807916641235  1.0000
  Al  Al6       1.0  0.012528334744274616  0.6658012866973877  0.2775805592536926  1.0000
  F   F1        1.0  0.31597083806991577  0.8488485217094421  0.4275494217872619  1.0000
  H   H1        1.0  0.6951269507408142  0.16077885031700134  0.5087648034095764  1.0000
  H   H2        1.0  0.7203278541564941  0.21089166402816772  0.12070209532976153  1.0000
  H   H3        1.0  0.506403386592865  0.7063441276550293  0.7940196394920349  1.0000
  H   H4        1.0  0.2675955891609192  0.7493730187416077  0.2775729298591614  1.0000
  Na  Na1       1.0  0.24716506898403168  0.15585704147815704  0.8962988257408141  1.0000
