data_image0
_chemical_formula_structural       AgAl6FH4
_chemical_formula_sum              "Ag1 Al6 F1 H4"
_cell_length_a       4.9162874211029655
_cell_length_b       4.760703684518002
_cell_length_c       4.840663909912109
_cell_angle_alpha    64.27059010237387
_cell_angle_beta     60.79300733764419
_cell_angle_gamma    62.003615092880665

_space_group_name_H-M_alt    "P 1"
_space_group_IT_number       1

loop_
  _space_group_symop_operation_xyz
  'x, y, z'

loop_
  _atom_site_type_symbol
  _atom_site_label
  _atom_site_symmetry_multiplicity
  _atom_site_fract_x
  _atom_site_fract_y
  _atom_site_fract_z
  _atom_site_occupancy
  Ag  Ag1       1.0  0.8058931231498718  0.05299931764602661  0.12341653555631638  1.0000
  Al  Al1       1.0  0.43392330408096313  0.8308475613594055  0.37186941504478455  1.0000
  Al  Al2       1.0  0.18337519466876984  0.3948512077331543  0.6455562710762024  1.0000
  Al  Al3       1.0  0.9506062865257263  0.88671875  0.4326454997062683  1.0000
  Al  Al4       1.0  0.18593275547027588  0.48554617166519165  0.8872055411338806  1.0000
  Al  Al5       1.0  0.7735810875892639  0.5804320573806763  0.6954757571220399  1.0000
  Al  Al6       1.0  0.4088616371154785  0.8219251036643982  0.19055935740470886  1.0000
  F   F1        1.0  0.10291140526533127  0.08497679233551025  0.015761667862534523  1.0000
  H   H1        1.0  0.5510590076446533  0.5079060196876526  0.36872151494026184  1.0000
  H   H2        1.0  0.08386840671300888  0.5657251477241516  0.4376813769340515  1.0000
  H   H3        1.0  0.5824502110481262  0.5515031218528748  0.8821794986724854  1.0000
  H   H4        1.0  0.2745281755924225  0.06796945631504059  0.6451294422149658  1.0000
