data_image0
_chemical_formula_structural       Al5F2H2N2Pb
_chemical_formula_sum              "Al5 F2 H2 N2 Pb1"
_cell_length_a       4.690973744664365
_cell_length_b       5.299760349680256
_cell_length_c       5.6451945304870605
_cell_angle_alpha    63.25702814083165
_cell_angle_beta     65.65569249302153
_cell_angle_gamma    63.39500671552599

_space_group_name_H-M_alt    "P 1"
_space_group_IT_number       1

loop_
  _space_group_symop_operation_xyz
  'x, y, z'

loop_
  _atom_site_type_symbol
  _atom_site_label
  _atom_site_symmetry_multiplicity
  _atom_site_fract_x
  _atom_site_fract_y
  _atom_site_fract_z
  _atom_site_occupancy
  Al  Al1       1.0  0.16882750391960144  0.6576661467552185  0.37239864468574524  1.0000
  Al  Al2       1.0  0.5673962831497192  0.22592958807945251  0.9251798987388611  1.0000
  Al  Al3       1.0  0.906148374080658  0.3566119372844696  0.13012738525867462  1.0000
  Al  Al4       1.0  0.47745442390441895  0.49997928738594055  0.748425304889679  1.0000
  Al  Al5       1.0  0.18511459231376648  0.18091073632240295  0.18028360605239868  1.0000
  F   F1        1.0  0.5597204566001892  0.6921179890632629  0.3685143291950226  1.0000
  F   F2        1.0  0.24727721512317657  0.11609058827161789  0.8814725279808044  1.0000
  H   H1        1.0  0.0576067790389061  0.715718686580658  0.9360651969909668  1.0000
  H   H2        1.0  0.5801513195037842  0.18997415900230408  0.1268867254257202  1.0000
  N   N1        1.0  0.5634005665779114  0.37001413106918335  0.4449143409729004  1.0000
  N   N2        1.0  0.842011034488678  0.7463697195053101  0.7346934676170349  1.0000
  Pb  Pb1       1.0  0.12842006981372833  0.6867815256118774  0.1760239601135254  1.0000
