data_image0
_chemical_formula_structural       MnRh2Sc3Se4Ti
_chemical_formula_sum              "Mn1 Rh2 Sc3 Se4 Ti1"
_cell_length_a       5.6372656489150526
_cell_length_b       7.307567473812715
_cell_length_c       8.100042343139648
_cell_angle_alpha    116.94012756636295
_cell_angle_beta     106.06369897216629
_cell_angle_gamma    90.32109931846533

_space_group_name_H-M_alt    "P 1"
_space_group_IT_number       1

loop_
  _space_group_symop_operation_xyz
  'x, y, z'

loop_
  _atom_site_type_symbol
  _atom_site_label
  _atom_site_symmetry_multiplicity
  _atom_site_fract_x
  _atom_site_fract_y
  _atom_site_fract_z
  _atom_site_occupancy
  Mn  Mn1       1.0  0.2761062979698181  0.709591269493103  0.8867710828781128  1.0000
  Rh  Rh1       1.0  0.22385378181934357  0.22342632710933685  0.4246039092540741  1.0000
  Rh  Rh2       1.0  0.7330899834632874  0.8487102389335632  0.03675760701298719  1.0000
  Sc  Sc1       1.0  0.5281202793121338  0.9314450025558472  0.6764448285102844  1.0000
  Sc  Sc2       1.0  0.03338012471795082  0.7100294828414917  0.9601147174835205  1.0000
  Sc  Sc3       1.0  0.3114314079284668  0.6040640473365784  0.29015147686004644  1.0000
  Se  Se1       1.0  0.044507965445518494  0.33478105068206787  0.8740851879119873  1.0000
  Se  Se2       1.0  0.7990621328353882  0.3666415810585022  0.042481597512960434  1.0000
  Se  Se3       1.0  0.445334255695343  0.9422125816345215  0.15286590158939367  1.0000
  Se  Se4       1.0  0.03402294963598251  0.4359476864337921  0.7084994316101074  1.0000
  Ti  Ti1       1.0  0.5432296991348267  0.4393075704574585  0.8389617204666138  1.0000
