data_image0
_chemical_formula_structural       CoMn2NiRhSc2Se3Si
_chemical_formula_sum              "Co1 Mn2 Ni1 Rh1 Sc2 Se3 Si1"
_cell_length_a       4.3649742384858685
_cell_length_b       7.83151632230285
_cell_length_c       8.016858100891113
_cell_angle_alpha    120.08291563823701
_cell_angle_beta     90.12970064545844
_cell_angle_gamma    87.30029136772804

_space_group_name_H-M_alt    "P 1"
_space_group_IT_number       1

loop_
  _space_group_symop_operation_xyz
  'x, y, z'

loop_
  _atom_site_type_symbol
  _atom_site_label
  _atom_site_symmetry_multiplicity
  _atom_site_fract_x
  _atom_site_fract_y
  _atom_site_fract_z
  _atom_site_occupancy
  Co  Co1       1.0  0.7529410719871521  0.5395557284355164  0.2524308562278747  1.0000
  Mn  Mn1       1.0  0.7415120005607605  0.5831965804100037  0.004089726135134697  1.0000
  Mn  Mn2       1.0  0.24910885095596313  0.14810705184936523  0.0601755790412426  1.0000
  Ni  Ni1       1.0  0.25483831763267517  0.9478387832641602  0.9715816378593445  1.0000
  Rh  Rh1       1.0  0.252902626991272  0.8970751166343689  0.4999352693557739  1.0000
  Sc  Sc1       1.0  0.2395293414592743  0.5496960878372192  0.0408305749297142  1.0000
  Sc  Sc2       1.0  0.7577042579650879  0.37875205278396606  0.5697379112243652  1.0000
  Se  Se1       1.0  0.7527898550033569  0.5780540108680725  0.4818072617053985  1.0000
  Se  Se2       1.0  0.25157541036605835  0.2651650905609131  0.474727988243103  1.0000
  Se  Se3       1.0  0.24070651829242706  0.5224210619926453  0.06124895066022873  1.0000
  Si  Si1       1.0  0.24527235329151154  0.7002361416816711  0.14455625414848322  1.0000
