data_image0
_chemical_formula_structural       HMoRh2Se6Te
_chemical_formula_sum              "H1 Mo1 Rh2 Se6 Te1"
_cell_length_a       6.441968766209769
_cell_length_b       6.576387177147102
_cell_length_c       7.248303413391113
_cell_angle_alpha    63.569673134454966
_cell_angle_beta     61.94124273786916
_cell_angle_gamma    62.48704601527318

_space_group_name_H-M_alt    "P 1"
_space_group_IT_number       1

loop_
  _space_group_symop_operation_xyz
  'x, y, z'

loop_
  _atom_site_type_symbol
  _atom_site_label
  _atom_site_symmetry_multiplicity
  _atom_site_fract_x
  _atom_site_fract_y
  _atom_site_fract_z
  _atom_site_occupancy
  H   H1        1.0  0.49226516485214233  0.3973466455936432  0.5575891137123108  1.0000
  Mo  Mo1       1.0  0.685997486114502  0.07500538229942322  0.31302347779273987  1.0000
  Rh  Rh1       1.0  0.985797643661499  0.4565667510032654  0.8774969577789308  1.0000
  Rh  Rh2       1.0  0.2862517833709717  0.6040546894073486  0.6152101755142212  1.0000
  Se  Se1       1.0  0.49563872814178467  0.7017114162445068  0.9106207489967347  1.0000
  Se  Se2       1.0  0.9846826791763306  0.552860677242279  0.4362326562404633  1.0000
  Se  Se3       1.0  0.9580069184303284  0.697815477848053  0.20255394279956818  1.0000
  Se  Se4       1.0  0.4913780987262726  0.336406409740448  0.9217676520347596  1.0000
  Se  Se5       1.0  0.2555142641067505  0.2535127103328705  0.5066564083099365  1.0000
  Se  Se6       1.0  0.9897745847702026  0.9838890433311462  0.8750664591789247  1.0000
  Te  Te1       1.0  0.15179875493049622  0.7489047646522522  0.2973706126213074  1.0000
