data_image0
_chemical_formula_structural       HMnSc5Se4
_chemical_formula_sum              "H1 Mn1 Sc5 Se4"
_cell_length_a       5.099957211946478
_cell_length_b       6.403829050773248
_cell_length_c       8.043206214904785
_cell_angle_alpha    73.81205302094183
_cell_angle_beta     68.9224863050006
_cell_angle_gamma    64.81933346905043

_space_group_name_H-M_alt    "P 1"
_space_group_IT_number       1

loop_
  _space_group_symop_operation_xyz
  'x, y, z'

loop_
  _atom_site_type_symbol
  _atom_site_label
  _atom_site_symmetry_multiplicity
  _atom_site_fract_x
  _atom_site_fract_y
  _atom_site_fract_z
  _atom_site_occupancy
  H   H1        1.0  0.36493536829948425  0.9188886880874634  0.4653594493865967  1.0000
  Mn  Mn1       1.0  0.33780401945114136  0.7217369675636292  0.5349234938621521  1.0000
  Sc  Sc1       1.0  0.27654895186424255  0.7092371582984924  0.9382255673408508  1.0000
  Sc  Sc2       1.0  0.29097452759742737  0.40359625220298767  0.18955187499523163  1.0000
  Sc  Sc3       1.0  0.8336965441703796  0.2077653706073761  0.8435850739479065  1.0000
  Sc  Sc4       1.0  0.7726292014122009  0.5601078271865845  0.08874958753585815  1.0000
  Sc  Sc5       1.0  0.7983828186988831  0.4329793453216553  0.33578571677207947  1.0000
  Se  Se1       1.0  0.7539152503013611  0.04921447113156319  0.85281503200531  1.0000
  Se  Se2       1.0  0.8485468029975891  0.22291377186775208  0.004401097539812354  1.0000
  Se  Se3       1.0  0.7694565653800964  0.40119469165802  0.20487084984779358  1.0000
  Se  Se4       1.0  0.28592103719711304  0.9222987294197083  0.6529966592788696  1.0000
