data_image0
_chemical_formula_structural       Pt3RhSc2Se4Si
_chemical_formula_sum              "Pt3 Rh1 Sc2 Se4 Si1"
_cell_length_a       4.149114969168912
_cell_length_b       7.863940535307306
_cell_length_c       8.74677562713623
_cell_angle_alpha    101.32465041984592
_cell_angle_beta     89.26973148217165
_cell_angle_gamma    89.34625005627618

_space_group_name_H-M_alt    "P 1"
_space_group_IT_number       1

loop_
  _space_group_symop_operation_xyz
  'x, y, z'

loop_
  _atom_site_type_symbol
  _atom_site_label
  _atom_site_symmetry_multiplicity
  _atom_site_fract_x
  _atom_site_fract_y
  _atom_site_fract_z
  _atom_site_occupancy
  Pt  Pt1       1.0  0.1378137320280075  0.21540051698684692  0.47816261649131775  1.0000
  Pt  Pt2       1.0  0.15244939923286438  0.4926605224609375  0.6385356187820435  1.0000
  Pt  Pt3       1.0  0.1430974006652832  0.3756560683250427  0.022827984765172005  1.0000
  Rh  Rh1       1.0  0.6382439136505127  0.620274543762207  0.12547262012958527  1.0000
  Sc  Sc1       1.0  0.6488909721374512  0.4185026288032532  0.750236451625824  1.0000
  Sc  Sc2       1.0  0.13722334802150726  0.8970543146133423  0.7812299132347107  1.0000
  Se  Se1       1.0  0.1411271095275879  0.7586336135864258  0.44570183753967285  1.0000
  Se  Se2       1.0  0.13805900514125824  0.6518545150756836  0.23816704750061035  1.0000
  Se  Se3       1.0  0.630742073059082  0.8489110469818115  0.39318984746932983  1.0000
  Se  Se4       1.0  0.639723539352417  0.10220605134963989  0.407924622297287  1.0000
  Si  Si1       1.0  0.6498213410377502  0.4280979335308075  0.0010251294588670135  1.0000
