data_image0
_chemical_formula_structural       MoORh2Se4Te3
_chemical_formula_sum              "Mo1 O1 Rh2 Se4 Te3"
_cell_length_a       5.807527109403288
_cell_length_b       6.298729572389844
_cell_length_c       8.216733932495117
_cell_angle_alpha    72.19360052096292
_cell_angle_beta     67.82389077468028
_cell_angle_gamma    62.168079924709076

_space_group_name_H-M_alt    "P 1"
_space_group_IT_number       1

loop_
  _space_group_symop_operation_xyz
  'x, y, z'

loop_
  _atom_site_type_symbol
  _atom_site_label
  _atom_site_symmetry_multiplicity
  _atom_site_fract_x
  _atom_site_fract_y
  _atom_site_fract_z
  _atom_site_occupancy
  Mo  Mo1       1.0  0.751391589641571  0.05524832755327225  0.601590633392334  1.0000
  O   O1        1.0  0.4119323194026947  0.10456743836402893  0.5928010940551758  1.0000
  Rh  Rh1       1.0  0.3851223587989807  0.6202253699302673  0.4317663609981537  1.0000
  Rh  Rh2       1.0  0.005589287262409885  0.9009820818901062  0.7393000721931458  1.0000
  Se  Se1       1.0  0.7171342968940735  0.09412897378206253  0.5832119584083557  1.0000
  Se  Se2       1.0  0.6607415080070496  0.28969988226890564  0.43051770329475403  1.0000
  Se  Se3       1.0  0.952536940574646  0.37949010729789734  0.03557364642620087  1.0000
  Se  Se4       1.0  0.2460939586162567  0.7011494636535645  0.6242342591285706  1.0000
  Te  Te1       1.0  0.6318027377128601  0.12238840013742447  0.012615974061191082  1.0000
  Te  Te2       1.0  0.3134920299053192  0.13342374563217163  0.509885847568512  1.0000
  Te  Te3       1.0  0.2039216309785843  0.6149528622627258  0.5685303211212158  1.0000
