data_image0
_chemical_formula_structural       Ge2HIMg4OZn
_chemical_formula_sum              "Ge2 H1 I1 Mg4 O1 Zn1"
_cell_length_a       4.959362944238564
_cell_length_b       5.669291482772812
_cell_length_c       7.422551155090332
_cell_angle_alpha    98.81611970319767
_cell_angle_beta     92.42002830181683
_cell_angle_gamma    88.83434044692086

_space_group_name_H-M_alt    "P 1"
_space_group_IT_number       1

loop_
  _space_group_symop_operation_xyz
  'x, y, z'

loop_
  _atom_site_type_symbol
  _atom_site_label
  _atom_site_symmetry_multiplicity
  _atom_site_fract_x
  _atom_site_fract_y
  _atom_site_fract_z
  _atom_site_occupancy
  Ge  Ge1       1.0  0.5407757759094238  0.28919580578804016  0.863593101501465  1.0000
  Ge  Ge2       1.0  0.3064233660697937  0.08335758745670319  0.9307036995887757  1.0000
  H   H1        1.0  0.8112547397613525  0.19414988160133362  0.3865059912204743  1.0000
  I   I1        1.0  0.31662821769714355  0.11887712031602861  0.39931327104568487  1.0000
  Mg  Mg1       1.0  0.8190807104110718  0.9612550139427186  0.5305731892585754  1.0000
  Mg  Mg2       1.0  0.8259872794151306  0.28938060998916626  0.5967867970466614  1.0000
  Mg  Mg3       1.0  0.11752552539110184  0.042235247790813446  0.301588773727417  1.0000
  Mg  Mg4       1.0  0.2063533067703247  0.04828806594014168  0.29696139693260193  1.0000
  O   O1        1.0  0.4953674376010895  0.12981835007667542  0.20559510588645938  1.0000
  Zn  Zn1       1.0  0.3353634774684906  0.3225686252117157  0.24796140193939212  1.0000
