data_image0
_chemical_formula_structural       Mg8OP
_chemical_formula_sum              "Mg8 O1 P1"
_cell_length_a       5.397641058172575
_cell_length_b       5.929735421463258
_cell_length_c       6.677964210510254
_cell_angle_alpha    89.5595393094305
_cell_angle_beta     88.97970152697346
_cell_angle_gamma    90.905651633962

_space_group_name_H-M_alt    "P 1"
_space_group_IT_number       1

loop_
  _space_group_symop_operation_xyz
  'x, y, z'

loop_
  _atom_site_type_symbol
  _atom_site_label
  _atom_site_symmetry_multiplicity
  _atom_site_fract_x
  _atom_site_fract_y
  _atom_site_fract_z
  _atom_site_occupancy
  Mg  Mg1       1.0  0.060368821024894714  0.6131847500801086  0.2483145892620087  1.0000
  Mg  Mg2       1.0  0.5909932851791382  0.1717020571231842  0.2558591663837433  1.0000
  Mg  Mg3       1.0  0.8965299129486084  0.3406234681606293  0.6887499690055847  1.0000
  Mg  Mg4       1.0  0.38634100556373596  0.9135598540306091  0.16173119843006134  1.0000
  Mg  Mg5       1.0  0.26195237040519714  0.25146231055259705  0.013802449218928816  1.0000
  Mg  Mg6       1.0  0.8791882395744324  0.36152341961860657  0.5271313786506654  1.0000
  Mg  Mg7       1.0  0.8669446706771851  0.37207671999931335  0.43659129738807684  1.0000
  Mg  Mg8       1.0  0.8759894371032715  0.9761817455291748  0.5684560537338257  1.0000
  O   O1        1.0  0.8506074547767639  0.30756184458732605  0.2569897770881653  1.0000
  P   P1        1.0  0.3707561492919922  0.7079852223396301  0.2977357506752014  1.0000
