data_image0
_chemical_formula_structural       DyMg6O2Zn
_chemical_formula_sum              "Dy1 Mg6 O2 Zn1"
_cell_length_a       4.983381440632528
_cell_length_b       5.710283913654453
_cell_length_c       7.577281951904297
_cell_angle_alpha    90.61205220821722
_cell_angle_beta     89.5721684122214
_cell_angle_gamma    89.97087227250809

_space_group_name_H-M_alt    "P 1"
_space_group_IT_number       1

loop_
  _space_group_symop_operation_xyz
  'x, y, z'

loop_
  _atom_site_type_symbol
  _atom_site_label
  _atom_site_symmetry_multiplicity
  _atom_site_fract_x
  _atom_site_fract_y
  _atom_site_fract_z
  _atom_site_occupancy
  Dy  Dy1       1.0  0.518090009689331  0.5281795263290405  0.3572460412979126  1.0000
  Mg  Mg1       1.0  0.0036934614181518555  0.0008558104746043682  0.4107457399368286  1.0000
  Mg  Mg2       1.0  0.5256107449531555  0.029899977147579193  0.7217580080032349  1.0000
  Mg  Mg3       1.0  0.033074285835027695  0.9714979529380798  0.6149886846542358  1.0000
  Mg  Mg4       1.0  0.507665753364563  0.1639648824930191  0.8802830576896667  1.0000
  Mg  Mg5       1.0  0.5215465426445007  0.02373691461980343  0.10075558722019196  1.0000
  Mg  Mg6       1.0  0.022537844255566597  0.075862355530262  0.13569560647010803  1.0000
  O   O1        1.0  0.5154613256454468  0.1631898283958435  0.7257966995239258  1.0000
  O   O2        1.0  0.03337564319372177  0.9524552822113037  0.600968062877655  1.0000
  Zn  Zn1       1.0  0.5241076350212097  0.18021747469902039  0.13170509040355682  1.0000
