data_image0
_chemical_formula_structural       Mg8O2
_chemical_formula_sum              "Mg8 O2"
_cell_length_a       4.498099561724924
_cell_length_b       3.5659659562336263
_cell_length_c       4.799931526184082
_cell_angle_alpha    85.20876891375141
_cell_angle_beta     85.27042029812905
_cell_angle_gamma    87.48173528470686

_space_group_name_H-M_alt    "P 1"
_space_group_IT_number       1

loop_
  _space_group_symop_operation_xyz
  'x, y, z'

loop_
  _atom_site_type_symbol
  _atom_site_label
  _atom_site_symmetry_multiplicity
  _atom_site_fract_x
  _atom_site_fract_y
  _atom_site_fract_z
  _atom_site_occupancy
  Mg  Mg1       1.0  0.23742705583572388  0.4076249301433563  0.7214199900627136  1.0000
  Mg  Mg2       1.0  0.23755404353141785  0.2131137251853943  0.5711531639099121  1.0000
  Mg  Mg3       1.0  0.07565443962812424  0.9752722978591918  0.9329032301902771  1.0000
  Mg  Mg4       1.0  0.7311401963233948  0.3304719626903534  0.0016557222697883844  1.0000
  Mg  Mg5       1.0  0.23841039836406708  0.23954424262046814  0.34762343764305115  1.0000
  Mg  Mg6       1.0  0.7205487489700317  0.42216938734054565  0.23746077716350555  1.0000
  Mg  Mg7       1.0  0.7380474805831909  0.809007465839386  0.21321894228458405  1.0000
  Mg  Mg8       1.0  0.737271249294281  0.26646509766578674  0.604872465133667  1.0000
  O   O1        1.0  0.2362549602985382  0.9448831677436829  0.6894718408584595  1.0000
  O   O2        1.0  0.26118069887161255  0.7011715173721313  0.8853683471679688  1.0000
