data_image0
_chemical_formula_structural       GaHMg6O2
_chemical_formula_sum              "Ga1 H1 Mg6 O2"
_cell_length_a       5.885490157174718
_cell_length_b       5.829478008491174
_cell_length_c       6.322066783905029
_cell_angle_alpha    60.28403675722103
_cell_angle_beta     64.44017566419033
_cell_angle_gamma    61.20686866333719

_space_group_name_H-M_alt    "P 1"
_space_group_IT_number       1

loop_
  _space_group_symop_operation_xyz
  'x, y, z'

loop_
  _atom_site_type_symbol
  _atom_site_label
  _atom_site_symmetry_multiplicity
  _atom_site_fract_x
  _atom_site_fract_y
  _atom_site_fract_z
  _atom_site_occupancy
  Ga  Ga1       1.0  0.24203509092330933  0.051453422755002975  0.6948344707489014  1.0000
  H   H1        1.0  0.748283863067627  0.09616904705762863  0.603066384792328  1.0000
  Mg  Mg1       1.0  0.21669214963912964  0.874362587928772  0.545127809047699  1.0000
  Mg  Mg2       1.0  0.7963873744010925  0.9516750574111938  0.9786528944969178  1.0000
  Mg  Mg3       1.0  0.29149699211120605  0.6325287222862244  0.31211304664611816  1.0000
  Mg  Mg4       1.0  0.29940640926361084  0.7208531498908997  0.5160424113273621  1.0000
  Mg  Mg5       1.0  0.5570655465126038  0.7936927676200867  0.6238310933113098  1.0000
  Mg  Mg6       1.0  0.7581731677055359  0.7320360541343689  0.0927513837814331  1.0000
  O   O1        1.0  0.2730570137500763  0.7583844065666199  0.14108949899673462  1.0000
  O   O2        1.0  0.31152161955833435  0.5943912863731384  0.5381958484649658  1.0000
