data_image0
_chemical_formula_structural       Mg8O2
_chemical_formula_sum              "Mg8 O2"
_cell_length_a       4.8301463973843175
_cell_length_b       5.444272974544947
_cell_length_c       5.555907726287842
_cell_angle_alpha    91.94193024173688
_cell_angle_beta     93.30790292724106
_cell_angle_gamma    93.10738502262856

_space_group_name_H-M_alt    "P 1"
_space_group_IT_number       1

loop_
  _space_group_symop_operation_xyz
  'x, y, z'

loop_
  _atom_site_type_symbol
  _atom_site_label
  _atom_site_symmetry_multiplicity
  _atom_site_fract_x
  _atom_site_fract_y
  _atom_site_fract_z
  _atom_site_occupancy
  Mg  Mg1       1.0  0.7482874989509583  0.36906084418296814  0.8272508382797241  1.0000
  Mg  Mg2       1.0  0.4227471649646759  0.47485932707786566  0.6689444184303284  1.0000
  Mg  Mg3       1.0  0.19837236404418945  0.03728658705949783  0.513712465763092  1.0000
  Mg  Mg4       1.0  0.4888846278190613  0.58746737241745  0.6684062480926514  1.0000
  Mg  Mg5       1.0  0.6956345438957214  0.19066527485847473  0.8920565247535706  1.0000
  Mg  Mg6       1.0  0.7466347217559814  0.0877632349729538  0.8189156651496887  1.0000
  Mg  Mg7       1.0  0.23954662680625916  0.8194475769996643  0.40670275688171387  1.0000
  Mg  Mg8       1.0  0.20213252305984497  0.5980762243270874  0.9032778739929199  1.0000
  O   O1        1.0  0.255463570356369  0.8909996151924134  0.8993102312088013  1.0000
  O   O2        1.0  0.690382182598114  0.12596988677978516  0.6562412977218628  1.0000
