data_image0
_chemical_formula_structural       O5Sb2Sm2Sr
_chemical_formula_sum              "O5 Sb2 Sm2 Sr1"
_cell_length_a       5.791661437527158
_cell_length_b       6.524150132833124
_cell_length_c       7.863897323608398
_cell_angle_alpha    101.2425792918517
_cell_angle_beta     102.7302421455117
_cell_angle_gamma    97.66578567044306

_space_group_name_H-M_alt    "P 1"
_space_group_IT_number       1

loop_
  _space_group_symop_operation_xyz
  'x, y, z'

loop_
  _atom_site_type_symbol
  _atom_site_label
  _atom_site_symmetry_multiplicity
  _atom_site_fract_x
  _atom_site_fract_y
  _atom_site_fract_z
  _atom_site_occupancy
  O   O1        1.0  0.5826276540756226  0.7651588916778564  0.289000004529953  1.0000
  O   O2        1.0  0.8179200291633606  0.3829629719257355  0.26422029733657837  1.0000
  O   O3        1.0  0.6890918612480164  0.51859050989151  0.3952672481536865  1.0000
  O   O4        1.0  0.7670568823814392  0.2822294235229492  0.7634440064430237  1.0000
  O   O5        1.0  0.14404559135437012  0.3700835406780243  0.08452598750591278  1.0000
  Sb  Sb1       1.0  0.3452601134777069  0.5430983901023865  0.6391248106956482  1.0000
  Sb  Sb2       1.0  0.8395386338233948  0.051062263548374176  0.42224010825157166  1.0000
  Sm  Sm1       1.0  0.4385567009449005  0.366954505443573  0.8332838416099548  1.0000
  Sm  Sm2       1.0  0.8837284445762634  0.8651872873306274  0.004188989754766226  1.0000
  Sr  Sr1       1.0  0.06382545083761215  0.02533508837223053  0.6470786929130554  1.0000
