data_image0
_chemical_formula_structural       O2Sm4Sr4
_chemical_formula_sum              "O2 Sm4 Sr4"
_cell_length_a       7.366564448370512
_cell_length_b       7.178356723114841
_cell_length_c       7.418391704559326
_cell_angle_alpha    61.37459889823669
_cell_angle_beta     61.9961094931207
_cell_angle_gamma    60.73378243208859

_space_group_name_H-M_alt    "P 1"
_space_group_IT_number       1

loop_
  _space_group_symop_operation_xyz
  'x, y, z'

loop_
  _atom_site_type_symbol
  _atom_site_label
  _atom_site_symmetry_multiplicity
  _atom_site_fract_x
  _atom_site_fract_y
  _atom_site_fract_z
  _atom_site_occupancy
  O   O1        1.0  0.349662721157074  0.16407595574855804  0.008902819827198982  1.0000
  O   O2        1.0  0.5548651218414307  0.14348559081554413  0.4520443081855774  1.0000
  Sm  Sm1       1.0  0.017485031858086586  0.2583473026752472  0.2338188737630844  1.0000
  Sm  Sm2       1.0  0.35864171385765076  0.7500208020210266  0.5247113108634949  1.0000
  Sm  Sm3       1.0  0.7745368480682373  0.0017671585083007812  0.8715761303901672  1.0000
  Sm  Sm4       1.0  0.29491347074508667  0.9592931866645813  0.006842370145022809  1.0000
  Sr  Sr1       1.0  0.9700822830200195  0.6995283961296082  0.36054620146751404  1.0000
  Sr  Sr2       1.0  0.5534529685974121  0.06731852889060974  0.5144922137260437  1.0000
  Sr  Sr3       1.0  0.2891770899295807  0.759002685546875  0.2495192438364029  1.0000
  Sr  Sr4       1.0  0.9152374267578125  0.19471369683742523  0.6844768524169922  1.0000
