data_image0
_chemical_formula_structural       O5Sr5
_chemical_formula_sum              "O5 Sr5"
_cell_length_a       6.101901064495213
_cell_length_b       6.311349931006988
_cell_length_c       7.27392578125
_cell_angle_alpha    103.12263571646903
_cell_angle_beta     103.56438062253996
_cell_angle_gamma    109.1119233095138

_space_group_name_H-M_alt    "P 1"
_space_group_IT_number       1

loop_
  _space_group_symop_operation_xyz
  'x, y, z'

loop_
  _atom_site_type_symbol
  _atom_site_label
  _atom_site_symmetry_multiplicity
  _atom_site_fract_x
  _atom_site_fract_y
  _atom_site_fract_z
  _atom_site_occupancy
  O   O1        1.0  0.6267781853675842  0.28592562675476074  0.05039932578802109  1.0000
  O   O2        1.0  0.6436528563499451  0.9722253084182739  0.9224992394447327  1.0000
  O   O3        1.0  0.7451897859573364  0.06974179297685623  0.5143687725067139  1.0000
  O   O4        1.0  0.9896085262298584  0.5734769701957703  0.00879285391420126  1.0000
  O   O5        1.0  0.8567221164703369  0.6967411041259766  0.7469508647918701  1.0000
  Sr  Sr1       1.0  0.3942575752735138  0.6616331338882446  0.24258168041706085  1.0000
  Sr  Sr2       1.0  0.8981342315673828  0.6695846319198608  0.817275881767273  1.0000
  Sr  Sr3       1.0  0.779926598072052  0.7918012738227844  0.5670680403709412  1.0000
  Sr  Sr4       1.0  0.37848538160324097  0.1497751921415329  0.7467090487480164  1.0000
  Sr  Sr5       1.0  0.28969529271125793  0.38976141810417175  0.2938656210899353  1.0000
