data_image0
_chemical_formula_structural       O3Sm2Sr5
_chemical_formula_sum              "O3 Sm2 Sr5"
_cell_length_a       5.574628039958639
_cell_length_b       6.127325895404726
_cell_length_c       8.864462852478027
_cell_angle_alpha    107.28983726701277
_cell_angle_beta     105.83748317258912
_cell_angle_gamma    89.40824254106819

_space_group_name_H-M_alt    "P 1"
_space_group_IT_number       1

loop_
  _space_group_symop_operation_xyz
  'x, y, z'

loop_
  _atom_site_type_symbol
  _atom_site_label
  _atom_site_symmetry_multiplicity
  _atom_site_fract_x
  _atom_site_fract_y
  _atom_site_fract_z
  _atom_site_occupancy
  O   O1        1.0  0.3685493469238281  0.9040923714637757  0.01534375362098212  1.0000
  O   O2        1.0  0.05196544900536537  0.029277466237545017  0.1902572065591812  1.0000
  O   O3        1.0  0.35899195075035095  0.2794438302516937  0.5195561647415161  1.0000
  Sm  Sm1       1.0  0.6075255274772644  0.7619032859802246  0.14903461933135986  1.0000
  Sm  Sm2       1.0  0.05907256528735161  0.5524807572364807  0.7340244650840759  1.0000
  Sr  Sr1       1.0  0.4947432577610016  0.4243798851966858  0.5820395350456238  1.0000
  Sr  Sr2       1.0  0.7509884238243103  0.6501471400260925  0.4363325834274292  1.0000
  Sr  Sr3       1.0  0.2765246629714966  0.25416791439056396  0.8619038462638855  1.0000
  Sr  Sr4       1.0  0.20805306732654572  0.12050458788871767  0.46885669231414795  1.0000
  Sr  Sr5       1.0  0.7265245318412781  0.2702884376049042  0.4003171920776367  1.0000
