data_image0
_chemical_formula_structural       Fe2O4Sr4
_chemical_formula_sum              "Fe2 O4 Sr4"
_cell_length_a       6.471252880756981
_cell_length_b       6.574999403099705
_cell_length_c       7.159069061279297
_cell_angle_alpha    108.71351944726922
_cell_angle_beta     112.22746809846458
_cell_angle_gamma    109.32894015690651

_space_group_name_H-M_alt    "P 1"
_space_group_IT_number       1

loop_
  _space_group_symop_operation_xyz
  'x, y, z'

loop_
  _atom_site_type_symbol
  _atom_site_label
  _atom_site_symmetry_multiplicity
  _atom_site_fract_x
  _atom_site_fract_y
  _atom_site_fract_z
  _atom_site_occupancy
  Fe  Fe1       1.0  0.5107701420783997  0.4801212549209595  0.6460316181182862  1.0000
  Fe  Fe2       1.0  0.8871628642082213  0.32228800654411316  0.7055535912513734  1.0000
  O   O1        1.0  0.9327172636985778  0.07357322424650192  0.0686582401394844  1.0000
  O   O2        1.0  0.26946645975112915  0.3556920886039734  0.3948168754577637  1.0000
  O   O3        1.0  0.07647563517093658  0.7482118606567383  0.4115744829177857  1.0000
  O   O4        1.0  0.5550118088722229  0.36516714096069336  0.1452115774154663  1.0000
  Sr  Sr1       1.0  0.1756289303302765  0.9098777770996094  0.17397628724575046  1.0000
  Sr  Sr2       1.0  0.871373414993286  0.33714210987091064  0.32061648368835455  1.0000
  Sr  Sr3       1.0  0.3532089591026306  0.15543559193611145  0.7432340383529664  1.0000
  Sr  Sr4       1.0  0.6625239253044128  0.6194549798965454  0.06697247177362442  1.0000
