data_image0
_chemical_formula_structural       O3SbSm2Sr4
_chemical_formula_sum              "O3 Sb1 Sm2 Sr4"
_cell_length_a       5.639839038490279
_cell_length_b       6.491117313455024
_cell_length_c       7.337314128875732
_cell_angle_alpha    112.5371553371998
_cell_angle_beta     108.69035808612298
_cell_angle_gamma    89.8003046235046

_space_group_name_H-M_alt    "P 1"
_space_group_IT_number       1

loop_
  _space_group_symop_operation_xyz
  'x, y, z'

loop_
  _atom_site_type_symbol
  _atom_site_label
  _atom_site_symmetry_multiplicity
  _atom_site_fract_x
  _atom_site_fract_y
  _atom_site_fract_z
  _atom_site_occupancy
  O   O1        1.0  0.3650667667388916  0.32184502482414246  0.1502702534198761  1.0000
  O   O2        1.0  0.6482587456703186  0.1346200704574585  0.5267181992530823  1.0000
  O   O3        1.0  0.6923166513442993  0.8206136226654054  0.605858325958252  1.0000
  Sb  Sb1       1.0  0.2048383355140686  0.08451209962368011  0.16064542531967163  1.0000
  Sm  Sm1       1.0  0.7688860893249512  0.9284200072288514  0.13362401723861694  1.0000
  Sm  Sm2       1.0  0.7359494566917419  0.6220735311508179  0.8585211634635925  1.0000
  Sr  Sr1       1.0  0.2293694019317627  0.5989735126495361  0.856733500957489  1.0000
  Sr  Sr2       1.0  0.24723806977272034  0.5198607444763184  0.9551246166229249  1.0000
  Sr  Sr3       1.0  0.7406910061836243  0.7693743109703065  0.176181361079216  1.0000
  Sr  Sr4       1.0  0.16772064566612244  0.06211929023265839  0.4699458777904511  1.0000
