data_image0
_chemical_formula_structural       I2KP2PbPt
_chemical_formula_sum              "I2 K1 P2 Pb1 Pt1"
_cell_length_a       5.416362477258778
_cell_length_b       5.143368895955204
_cell_length_c       7.578834056854248
_cell_angle_alpha    89.89968642686107
_cell_angle_beta     87.10582204803373
_cell_angle_gamma    111.32982005504927

_space_group_name_H-M_alt    "P 1"
_space_group_IT_number       1

loop_
  _space_group_symop_operation_xyz
  'x, y, z'

loop_
  _atom_site_type_symbol
  _atom_site_label
  _atom_site_symmetry_multiplicity
  _atom_site_fract_x
  _atom_site_fract_y
  _atom_site_fract_z
  _atom_site_occupancy
  I   I1        1.0  0.2164544016122818  0.4256073236465454  0.5348996520042419  1.0000
  I   I2        1.0  0.7032721042633057  0.01911105215549469  0.37946584820747375  1.0000
  K   K1        1.0  0.7022795081138611  0.26507219672203064  0.970099151134491  1.0000
  P   P1        1.0  0.8980807662010193  0.4686553478240967  0.580977201461792  1.0000
  P   P2        1.0  0.7177126407623291  0.5550333261489868  0.19940996170043945  1.0000
  Pb  Pb1       1.0  0.22877229750156403  0.3618411123752594  0.191778302192688  1.0000
  Pt  Pt1       1.0  0.21229390799999237  0.7129682302474976  0.031583432108163834  1.0000
