data_image0
_chemical_formula_structural       Pb5Te2
_chemical_formula_sum              "Pb5 Te2"
_cell_length_a       5.395929315118204
_cell_length_b       2.244785736546791
_cell_length_c       20.35374641418457
_cell_angle_alpha    122.43403301982129
_cell_angle_beta     103.72403872335023
_cell_angle_gamma    115.96432768434018

_space_group_name_H-M_alt    "P 1"
_space_group_IT_number       1

loop_
  _space_group_symop_operation_xyz
  'x, y, z'

loop_
  _atom_site_type_symbol
  _atom_site_label
  _atom_site_symmetry_multiplicity
  _atom_site_fract_x
  _atom_site_fract_y
  _atom_site_fract_z
  _atom_site_occupancy
  Pb  Pb1       1.0  0.32088854908943176  0.35347527265548706  0.028806800022721287  1.0000
  Pb  Pb2       1.0  0.323977440595627  0.5452398061752327  0.473124384880066  1.0000
  Pb  Pb3       1.0  0.07195829600095749  0.2767709493637085  0.40543028712272644  1.0000
  Pb  Pb4       1.0  0.8152307271957397  0.8122276067733765  0.39262422919273376  1.0000
  Pb  Pb5       1.0  0.571078598499298  0.42093116044998136  0.23142082989215848  1.0000
  Te  Te1       1.0  0.8467726707458493  0.4834056496620165  0.9770554304122924  1.0000
  Te  Te2       1.0  0.32298845052719116  0.3082497715950012  0.03712470829486846  1.0000
