data_image0
_chemical_formula_structural       I3P3Pt
_chemical_formula_sum              "I3 P3 Pt1"
_cell_length_a       4.961037164326959
_cell_length_b       6.268639263896884
_cell_length_c       7.413609504699707
_cell_angle_alpha    103.21526740111356
_cell_angle_beta     90.40037208404328
_cell_angle_gamma    102.7968922234473

_space_group_name_H-M_alt    "P 1"
_space_group_IT_number       1

loop_
  _space_group_symop_operation_xyz
  'x, y, z'

loop_
  _atom_site_type_symbol
  _atom_site_label
  _atom_site_symmetry_multiplicity
  _atom_site_fract_x
  _atom_site_fract_y
  _atom_site_fract_z
  _atom_site_occupancy
  I   I1        1.0  0.12433285266160965  0.3509937524795532  0.9147408604621887  1.0000
  I   I2        1.0  0.12336887419223785  0.3789534270763397  0.9798531532287598  1.0000
  I   I3        1.0  0.621591329574585  0.5868180990219116  0.7099812626838684  1.0000
  P   P1        1.0  0.6235569715499878  0.19573187828063965  0.6743124127388  1.0000
  P   P2        1.0  0.12294470518827438  0.05172005668282509  0.927765429019928  1.0000
  P   P3        1.0  0.6261118054389954  0.9172469973564148  0.1967286467552185  1.0000
  Pt  Pt1       1.0  0.6274126172065735  0.8719069957733154  0.7015159130096436  1.0000
