data_image0
_chemical_formula_structural       S7UV
_chemical_formula_sum              "S7 U1 V1"
_cell_length_a       5.895214049494736
_cell_length_b       6.177660254282676
_cell_length_c       7.076939582824707
_cell_angle_alpha    94.56611583031673
_cell_angle_beta     108.90236919089602
_cell_angle_gamma    89.84788513502087

_space_group_name_H-M_alt    "P 1"
_space_group_IT_number       1

loop_
  _space_group_symop_operation_xyz
  'x, y, z'

loop_
  _atom_site_type_symbol
  _atom_site_label
  _atom_site_symmetry_multiplicity
  _atom_site_fract_x
  _atom_site_fract_y
  _atom_site_fract_z
  _atom_site_occupancy
  S   S1        1.0  0.777449905872345  0.828269898891449  0.8664709329605103  1.0000
  S   S2        1.0  0.3873886466026306  0.9184223413467407  0.6038576364517212  1.0000
  S   S3        1.0  0.9146700501441957  0.3499754071235657  0.5887356996536255  1.0000
  S   S4        1.0  0.45053631067276007  0.41981321573257446  0.8003968596458435  1.0000
  S   S5        1.0  0.8407457470893861  0.10106594860553741  0.11455678939819339  1.0000
  S   S6        1.0  0.38006943464279175  0.5980848670005798  0.09626339375972748  1.0000
  S   S7        1.0  0.36455145478248596  0.11289191991090775  0.8622965812683105  1.0000
  U   U1        1.0  0.9023187756538392  0.5869344472885132  0.30347520112991333  1.0000
  V   V1        1.0  0.6068735718727112  0.8037242889404297  0.9117081761360168  1.0000
