data_image0
_chemical_formula_structural       PdS7V
_chemical_formula_sum              "Pd1 S7 V1"
_cell_length_a       6.48319909025118
_cell_length_b       6.688740972260759
_cell_length_c       7.410273551940918
_cell_angle_alpha    115.1325778793613
_cell_angle_beta     115.7932083280874
_cell_angle_gamma    88.35770678640289

_space_group_name_H-M_alt    "P 1"
_space_group_IT_number       1

loop_
  _space_group_symop_operation_xyz
  'x, y, z'

loop_
  _atom_site_type_symbol
  _atom_site_label
  _atom_site_symmetry_multiplicity
  _atom_site_fract_x
  _atom_site_fract_y
  _atom_site_fract_z
  _atom_site_occupancy
  Pd  Pd1       1.0  0.0634208470582962  0.15216125547885895  0.18639802932739258  1.0000
  S   S1        1.0  0.536949872970581  0.04705135151743889  0.9793520569801331  1.0000
  S   S2        1.0  0.4991040825843811  0.21406100690364838  0.9650276899337769  1.0000
  S   S3        1.0  0.046822551637887955  0.5630071759223938  0.8646121025085449  1.0000
  S   S4        1.0  0.5488765239715576  0.03672011196613312  0.6781841516494751  1.0000
  S   S5        1.0  0.22646751999855042  0.5788148045539856  0.3984614908695221  1.0000
  S   S6        1.0  0.7138085961341858  0.07852411270141602  0.41974160075187683  1.0000
  S   S7        1.0  0.04711221531033516  0.8951929211616516  0.9538952708244324  1.0000
  V   V1        1.0  0.5133689045906067  0.28667083382606506  0.6778596043586731  1.0000
