data_image0
_chemical_formula_structural       FKPd2S3U2
_chemical_formula_sum              "F1 K1 Pd2 S3 U2"
_cell_length_a       5.9809165870399355
_cell_length_b       5.830093503029951
_cell_length_c       6.537547588348389
_cell_angle_alpha    110.39734870179946
_cell_angle_beta     107.3307081604633
_cell_angle_gamma    88.99598672776041

_space_group_name_H-M_alt    "P 1"
_space_group_IT_number       1

loop_
  _space_group_symop_operation_xyz
  'x, y, z'

loop_
  _atom_site_type_symbol
  _atom_site_label
  _atom_site_symmetry_multiplicity
  _atom_site_fract_x
  _atom_site_fract_y
  _atom_site_fract_z
  _atom_site_occupancy
  F   F1        1.0  0.15595127642154694  0.6560999155044556  0.29445034265518194  1.0000
  K   K1        1.0  0.2992066442966462  0.02929363586008549  0.7890172600746155  1.0000
  Pd  Pd1       1.0  0.2601381242275238  0.39263999462127686  0.5921699404716492  1.0000
  Pd  Pd2       1.0  0.811637818813324  0.8245850205421449  0.13031087815761574  1.0000
  S   S1        1.0  0.020318564027547836  0.514159619808197  0.09067618846893315  1.0000
  S   S2        1.0  0.8145551681518555  0.7871716618537903  0.598467767238617  1.0000
  S   S3        1.0  0.017650088295340538  0.1500656008720398  0.3629642128944397  1.0000
  U   U1        1.0  0.5034292340278625  0.06239987164735795  0.0909128338098526  1.0000
  U   U2        1.0  0.574225902557373  0.9716914892196656  0.6876744627952576  1.0000
