data_image0
_chemical_formula_structural       FGdKPdS3U2
_chemical_formula_sum              "F1 Gd1 K1 Pd1 S3 U2"
_cell_length_a       5.793818673581956
_cell_length_b       6.515240093828258
_cell_length_c       7.861691951751709
_cell_angle_alpha    116.42098715532877
_cell_angle_beta     104.91133559418734
_cell_angle_gamma    88.85753971565738

_space_group_name_H-M_alt    "P 1"
_space_group_IT_number       1

loop_
  _space_group_symop_operation_xyz
  'x, y, z'

loop_
  _atom_site_type_symbol
  _atom_site_label
  _atom_site_symmetry_multiplicity
  _atom_site_fract_x
  _atom_site_fract_y
  _atom_site_fract_z
  _atom_site_occupancy
  F   F1        1.0  0.0975237712264061  0.5444454550743103  0.43608453869819636  1.0000
  Gd  Gd1       1.0  0.852016806602478  0.5447971224784851  0.7300125956535338  1.0000
  K   K1        1.0  0.44100773334503174  0.24378997087478638  0.8630887866020202  1.0000
  Pd  Pd1       1.0  0.8707218170166016  0.7466847896575928  0.22792331874370572  1.0000
  S   S1        1.0  0.4355602264404297  0.24984164535999298  0.3543033301830291  1.0000
  S   S2        1.0  0.14663174748420715  0.8279173970222473  0.0415840521454811  1.0000
  S   S3        1.0  0.9216057062149048  0.22013722360134125  0.19276401400566098  1.0000
  U   U1        1.0  0.3781593143939972  0.9609723687171936  0.7421396374702453  1.0000
  U   U2        1.0  0.672845184803009  0.5665454864501953  0.000995039939880371  1.0000
