data_image0
_chemical_formula_structural       FK2Pd2S3U
_chemical_formula_sum              "F1 K2 Pd2 S3 U1"
_cell_length_a       6.007198139103233
_cell_length_b       6.038399259852603
_cell_length_c       6.650178909301758
_cell_angle_alpha    91.71235093705657
_cell_angle_beta     95.26791455839715
_cell_angle_gamma    90.33640090206653

_space_group_name_H-M_alt    "P 1"
_space_group_IT_number       1

loop_
  _space_group_symop_operation_xyz
  'x, y, z'

loop_
  _atom_site_type_symbol
  _atom_site_label
  _atom_site_symmetry_multiplicity
  _atom_site_fract_x
  _atom_site_fract_y
  _atom_site_fract_z
  _atom_site_occupancy
  F   F1        1.0  0.36344560980796814  0.5159810185432434  0.03767895698547364  1.0000
  K   K1        1.0  0.8412137031555176  0.5193843841552734  0.024168679490685463  1.0000
  K   K2        1.0  0.40776580572128296  0.0305494237691164  0.21292614936828613  1.0000
  Pd  Pd1       1.0  0.930711030960083  0.07631545513868332  0.6502891778945923  1.0000
  Pd  Pd2       1.0  0.08871123939752579  0.2147834300994873  0.031440895050764084  1.0000
  S   S1        1.0  0.44058582186698914  0.5700334310531616  0.6300666332244873  1.0000
  S   S2        1.0  0.08654486387968063  0.20831258594989777  0.9778855443000796  1.0000
  S   S3        1.0  0.7510513067245483  0.8104484677314758  0.26221954822540283  1.0000
  U   U1        1.0  0.49553534388542175  0.20199957489967346  0.7687943577766418  1.0000
