data_image0
_chemical_formula_structural       FPdS2U4V
_chemical_formula_sum              "F1 Pd1 S2 U4 V1"
_cell_length_a       5.740285462513391
_cell_length_b       5.961376096876017
_cell_length_c       7.188096523284912
_cell_angle_alpha    97.24902574809443
_cell_angle_beta     109.6184960038
_cell_angle_gamma    88.54730981094482

_space_group_name_H-M_alt    "P 1"
_space_group_IT_number       1

loop_
  _space_group_symop_operation_xyz
  'x, y, z'

loop_
  _atom_site_type_symbol
  _atom_site_label
  _atom_site_symmetry_multiplicity
  _atom_site_fract_x
  _atom_site_fract_y
  _atom_site_fract_z
  _atom_site_occupancy
  F   F1        1.0  0.7385510206222534  0.04728126525878906  0.34539175033569336  1.0000
  Pd  Pd1       1.0  0.9512636065483092  0.8308126926422119  0.008249291218817234  1.0000
  S   S1        1.0  0.6425372362136841  0.29213306307792664  0.06253172457218166  1.0000
  S   S2        1.0  0.10559145361185072  0.006700338330119848  0.49145752191543574  1.0000
  U   U1        1.0  0.6747890710830688  0.5493195652961731  0.6222111582756042  1.0000
  U   U2        1.0  0.6470990180969238  0.30127236247062683  0.04439728707075119  1.0000
  U   U3        1.0  0.4201475381851196  0.51484614610672  0.9952651858329772  1.0000
  U   U4        1.0  0.19206662476062775  0.31512758135795593  0.6915789842605591  1.0000
  V   V1        1.0  0.02049277350306511  0.02839488536119461  0.7067819833755493  1.0000
