data_image0
_chemical_formula_structural       GeTb10
_chemical_formula_sum              "Ge1 Tb10"
_cell_length_a       7.6641092436951554
_cell_length_b       7.73358263864701
_cell_length_c       8.592487335205078
_cell_angle_alpha    68.5760064385013
_cell_angle_beta     65.08614476587405
_cell_angle_gamma    63.724157825290206

_space_group_name_H-M_alt    "P 1"
_space_group_IT_number       1

loop_
  _space_group_symop_operation_xyz
  'x, y, z'

loop_
  _atom_site_type_symbol
  _atom_site_label
  _atom_site_symmetry_multiplicity
  _atom_site_fract_x
  _atom_site_fract_y
  _atom_site_fract_z
  _atom_site_occupancy
  Ge  Ge1       1.0  0.8053917288780212  0.8369389176368714  0.04894319549202919  1.0000
  Tb  Tb1       1.0  0.33832406997680664  0.7907654643058778  0.7577184438705444  1.0000
  Tb  Tb2       1.0  0.2955950200557708  0.9349629878997804  0.8762660026550293  1.0000
  Tb  Tb3       1.0  0.8329759240150452  0.09782334417104722  0.6105650663375854  1.0000
  Tb  Tb4       1.0  0.8076631426811218  0.21612781286239627  0.6099278926849365  1.0000
  Tb  Tb5       1.0  0.0039008706808089572  0.9459137916564943  0.2529503405094147  1.0000
  Tb  Tb6       1.0  0.29711663722991943  0.5200915336608887  0.6788472533226013  1.0000
  Tb  Tb7       1.0  0.2988158166408539  0.445309728384018  0.5214961767196655  1.0000
  Tb  Tb8       1.0  0.3129757046699524  0.22297160327434543  0.8936046361923218  1.0000
  Tb  Tb9       1.0  0.790848970413208  0.47681364417076116  0.20961260795593262  1.0000
  Tb  Tb10      1.0  0.772210419178009  0.9784539341926576  0.01778751239180565  1.0000
