data_image0
_chemical_formula_structural       CRbTb9
_chemical_formula_sum              "C1 Rb1 Tb9"
_cell_length_a       5.85198839533562
_cell_length_b       8.370921377296805
_cell_length_c       9.036491394042969
_cell_angle_alpha    125.72374736875257
_cell_angle_beta     90.02498928334256
_cell_angle_gamma    88.91538119175073

_space_group_name_H-M_alt    "P 1"
_space_group_IT_number       1

loop_
  _space_group_symop_operation_xyz
  'x, y, z'

loop_
  _atom_site_type_symbol
  _atom_site_label
  _atom_site_symmetry_multiplicity
  _atom_site_fract_x
  _atom_site_fract_y
  _atom_site_fract_z
  _atom_site_occupancy
  C   C1        1.0  0.13862092792987823  0.830941617488861  0.6631996035575866  1.0000
  Rb  Rb1       1.0  0.13810425996780396  0.6583293080329894  0.2901472747325897  1.0000
  Tb  Tb1       1.0  0.6367791891098024  0.19171382486820218  0.2740751802921295  1.0000
  Tb  Tb2       1.0  0.6428698897361755  0.06791713088750839  0.5764399170875549  1.0000
  Tb  Tb3       1.0  0.141733780503273  0.10671179741621016  0.5489660501480103  1.0000
  Tb  Tb4       1.0  0.14019571244716644  0.3566309511661529  0.21538498997688293  1.0000
  Tb  Tb5       1.0  0.6401256322860718  0.5569970607757568  0.6382949948310852  1.0000
  Tb  Tb6       1.0  0.6396641731262207  0.7423422932624816  0.8074219822883606  1.0000
  Tb  Tb7       1.0  0.6403113007545471  0.4731512069702148  0.8362230062484741  1.0000
  Tb  Tb8       1.0  0.14177852869033813  0.4409919381141662  0.7272990942001343  1.0000
  Tb  Tb9       1.0  0.6408913135528564  0.8373057842254638  0.09469649940729141  1.0000
