data_image0
_chemical_formula_structural       RhTb10
_chemical_formula_sum              "Rh1 Tb10"
_cell_length_a       4.711899869151769
_cell_length_b       7.792335966015667
_cell_length_c       8.252391815185547
_cell_angle_alpha    133.21817699996345
_cell_angle_beta     94.07683420810419
_cell_angle_gamma    81.46560494284186

_space_group_name_H-M_alt    "P 1"
_space_group_IT_number       1

loop_
  _space_group_symop_operation_xyz
  'x, y, z'

loop_
  _atom_site_type_symbol
  _atom_site_label
  _atom_site_symmetry_multiplicity
  _atom_site_fract_x
  _atom_site_fract_y
  _atom_site_fract_z
  _atom_site_occupancy
  Rh  Rh1       1.0  0.6862943768501282  0.48157379031181335  0.7826259732246399  1.0000
  Tb  Tb1       1.0  0.1865004003047943  0.343578577041626  0.76719731092453  1.0000
  Tb  Tb2       1.0  0.18816342949867249  0.7394211888313293  0.8945297598838806  1.0000
  Tb  Tb3       1.0  0.683095395565033  0.6907861232757568  0.0012564018834381758  1.0000
  Tb  Tb4       1.0  0.6912080645561218  0.7275482416152954  0.25844332575798035  1.0000
  Tb  Tb5       1.0  0.16394391655921936  0.5200482606887817  0.985811710357666  1.0000
  Tb  Tb6       1.0  0.17516596615314484  0.7304307222366333  0.4924831986427307  1.0000
  Tb  Tb7       1.0  0.7057853937149048  0.2544202208518982  0.02399733103811741  1.0000
  Tb  Tb8       1.0  0.2797391712665558  0.7194039821624756  0.38008961081504816  1.0000
  Tb  Tb9       1.0  0.18155203759670258  0.502622127532959  0.6973817944526672  1.0000
  Tb  Tb10      1.0  0.17655368149280548  0.11725087463855743  0.8009334206581116  1.0000
