data_image0
_chemical_formula_structural       Tb11
_chemical_formula_sum              "Tb11"
_cell_length_a       6.083793135309802
_cell_length_b       9.297300783055832
_cell_length_c       10.074893951416016
_cell_angle_alpha    125.06362092718723
_cell_angle_beta     92.67877746724115
_cell_angle_gamma    86.14018965669855

_space_group_name_H-M_alt    "P 1"
_space_group_IT_number       1

loop_
  _space_group_symop_operation_xyz
  'x, y, z'

loop_
  _atom_site_type_symbol
  _atom_site_label
  _atom_site_symmetry_multiplicity
  _atom_site_fract_x
  _atom_site_fract_y
  _atom_site_fract_z
  _atom_site_occupancy
  Tb  Tb1       1.0  0.39041271805763245  0.4256207942962647  0.2893991172313691  1.0000
  Tb  Tb2       1.0  0.8731447458267212  0.8509672284126283  0.04629209637641916  1.0000
  Tb  Tb3       1.0  0.8946514129638672  0.9445571303367616  0.7311512827873231  1.0000
  Tb  Tb4       1.0  0.8647611141204834  0.5226322412490845  0.5210477113723755  1.0000
  Tb  Tb5       1.0  0.36679792404174805  0.8476527333259584  0.9419535398483276  1.0000
  Tb  Tb6       1.0  0.863920271396637  0.78925359249115  0.8283985257148743  1.0000
  Tb  Tb7       1.0  0.867097795009613  0.2479147166013718  0.8532704710960388  1.0000
  Tb  Tb8       1.0  0.37459230422973633  0.30939593911170965  0.5716099143028259  1.0000
  Tb  Tb9       1.0  0.36448362469673157  0.005129007156938315  0.3436712324619293  1.0000
  Tb  Tb10      1.0  0.3807334005832672  0.7170644998550416  0.012316260486841245  1.0000
  Tb  Tb11      1.0  0.4022989273071289  0.8810467720031739  0.6443797945976257  1.0000
