data_image0
_chemical_formula_structural       CTb10
_chemical_formula_sum              "C1 Tb10"
_cell_length_a       6.022026618506341
_cell_length_b       7.617646776032183
_cell_length_c       7.98581075668335
_cell_angle_alpha    131.39287042383845
_cell_angle_beta     90.26013707395548
_cell_angle_gamma    86.33275958953558

_space_group_name_H-M_alt    "P 1"
_space_group_IT_number       1

loop_
  _space_group_symop_operation_xyz
  'x, y, z'

loop_
  _atom_site_type_symbol
  _atom_site_label
  _atom_site_symmetry_multiplicity
  _atom_site_fract_x
  _atom_site_fract_y
  _atom_site_fract_z
  _atom_site_occupancy
  C   C1        1.0  0.8972384929656982  0.4365767538547516  0.9700140953063965  1.0000
  Tb  Tb1       1.0  0.22864656150341034  0.8838030099868774  0.8257479667663574  1.0000
  Tb  Tb2       1.0  0.7283279895782471  0.36511972546577454  0.7705137729644775  1.0000
  Tb  Tb3       1.0  0.7273306846618652  0.7952008843421936  0.10425706207752239  1.0000
  Tb  Tb4       1.0  0.23172947764396667  0.37035998702049255  0.2533021569252014  1.0000
  Tb  Tb5       1.0  0.7286168932914734  0.6989824175834656  0.38096320629119873  1.0000
  Tb  Tb6       1.0  0.7287084460258484  0.5105355978012085  0.38803985714912415  1.0000
  Tb  Tb7       1.0  0.7273927927017212  0.304343581199646  0.6876186728477478  1.0000
  Tb  Tb8       1.0  0.22981499135494232  0.004529278725385666  0.5630062818527222  1.0000
  Tb  Tb9       1.0  0.22844365239143372  0.16723155975341797  0.018484728410840034  1.0000
  Tb  Tb10      1.0  0.7253463268280029  0.9479950070381165  0.30822083353996277  1.0000
