data_image0
_chemical_formula_structural       Tb11
_chemical_formula_sum              "Tb11"
_cell_length_a       5.759126539845501
_cell_length_b       8.131256147227175
_cell_length_c       8.562329292297363
_cell_angle_alpha    124.59628898415514
_cell_angle_beta     89.79049593724332
_cell_angle_gamma    89.43996211107034

_space_group_name_H-M_alt    "P 1"
_space_group_IT_number       1

loop_
  _space_group_symop_operation_xyz
  'x, y, z'

loop_
  _atom_site_type_symbol
  _atom_site_label
  _atom_site_symmetry_multiplicity
  _atom_site_fract_x
  _atom_site_fract_y
  _atom_site_fract_z
  _atom_site_occupancy
  Tb  Tb1       1.0  0.9000897407531738  0.6889359354972839  0.38170439004898077  1.0000
  Tb  Tb2       1.0  0.39079728722572327  0.13782724738121033  0.6969612836837769  1.0000
  Tb  Tb3       1.0  0.41015157103538513  0.6008051037788391  0.7533408403396606  1.0000
  Tb  Tb4       1.0  0.9064378142356873  0.8858458399772644  0.5852016806602478  1.0000
  Tb  Tb5       1.0  0.3994769752025604  0.5426872372627258  0.8842555284500122  1.0000
  Tb  Tb6       1.0  0.39011046290397644  0.7495526075363159  0.8149287104606628  1.0000
  Tb  Tb7       1.0  0.39437511563301086  0.11535873264074326  0.5944424271583557  1.0000
  Tb  Tb8       1.0  0.8932005167007446  0.7242875695228577  0.528892457485199  1.0000
  Tb  Tb9       1.0  0.8930652737617493  0.45167413353919983  0.23921729624271393  1.0000
  Tb  Tb10      1.0  0.9006877541542053  0.7519655227661133  0.43026706576347357  1.0000
  Tb  Tb11      1.0  0.899570107460022  0.38873788714408875  0.8831692934036255  1.0000
