data_image0
_chemical_formula_structural       As2C2ClY
_chemical_formula_sum              "As2 C2 Cl1 Y1"
_cell_length_a       4.186082700872516
_cell_length_b       4.917214016378883
_cell_length_c       6.2698798179626465
_cell_angle_alpha    114.64089713539721
_cell_angle_beta     107.60779089450028
_cell_angle_gamma    90.6753678406369

_space_group_name_H-M_alt    "P 1"
_space_group_IT_number       1

loop_
  _space_group_symop_operation_xyz
  'x, y, z'

loop_
  _atom_site_type_symbol
  _atom_site_label
  _atom_site_symmetry_multiplicity
  _atom_site_fract_x
  _atom_site_fract_y
  _atom_site_fract_z
  _atom_site_occupancy
  As  As1       1.0  0.34182509779930115  0.06153974309563637  0.25206300616264343  1.0000
  As  As2       1.0  0.8032710552215576  0.1266128122806549  0.9645376801490784  1.0000
  C   C1        1.0  0.7063841223716736  0.711284339427948  0.51261043548584  1.0000
  C   C2        1.0  0.27205243706703186  0.4821263253688812  0.00801513716578487  1.0000
  Cl  Cl1       1.0  0.2553252577781677  0.7160800099372864  0.6544491052627563  1.0000
  Y   Y1        1.0  0.961264431476593  0.48797735571861267  0.8356226682662964  1.0000
