data_image0
_chemical_formula_structural       As4C2
_chemical_formula_sum              "As4 C2"
_cell_length_a       3.003718641358093
_cell_length_b       2.9335471043421033
_cell_length_c       6.6409382820129395
_cell_angle_alpha    101.3851858024037
_cell_angle_beta     98.16238050545624
_cell_angle_gamma    82.22397468776211

_space_group_name_H-M_alt    "P 1"
_space_group_IT_number       1

loop_
  _space_group_symop_operation_xyz
  'x, y, z'

loop_
  _atom_site_type_symbol
  _atom_site_label
  _atom_site_symmetry_multiplicity
  _atom_site_fract_x
  _atom_site_fract_y
  _atom_site_fract_z
  _atom_site_occupancy
  As  As1       1.0  0.08590073883533478  0.05766764283180237  0.7905210852622987  1.0000
  As  As2       1.0  0.07493329048156738  0.16985979676246643  0.6131189465522766  1.0000
  As  As3       1.0  0.6138454675674438  0.8571122884750366  0.26611989736557007  1.0000
  As  As4       1.0  0.0972842127084732  0.8761974573135376  0.19934658706188205  1.0000
  C   C1        1.0  0.6082658171653748  0.27210038900375366  0.8462435603141786  1.0000
  C   C2        1.0  0.5942701697349548  0.6676027774810791  0.8288545012474061  1.0000
