data_image0
_chemical_formula_structural       As3C3
_chemical_formula_sum              "As3 C3"
_cell_length_a       2.4373889971748417
_cell_length_b       3.0569894012137344
_cell_length_c       7.400461673736572
_cell_angle_alpha    93.12369541268387
_cell_angle_beta     92.40788085165298
_cell_angle_gamma    103.3560891805283

_space_group_name_H-M_alt    "P 1"
_space_group_IT_number       1

loop_
  _space_group_symop_operation_xyz
  'x, y, z'

loop_
  _atom_site_type_symbol
  _atom_site_label
  _atom_site_symmetry_multiplicity
  _atom_site_fract_x
  _atom_site_fract_y
  _atom_site_fract_z
  _atom_site_occupancy
  As  As1       1.0  0.8264432549476624  0.7803184390068054  0.1452169418334961  1.0000
  As  As2       1.0  0.14065411686897278  0.381603866815567  0.8214978575706482  1.0000
  As  As3       1.0  0.7194755673408508  0.15378129482269287  0.22551949322223663  1.0000
  C   C1        1.0  0.18891112506389618  0.29544976353645325  0.5720629096031189  1.0000
  C   C2        1.0  0.28772035241127014  0.3069341480731964  0.40042823553085327  1.0000
  C   C3        1.0  0.6578293442726135  0.2987772226333618  0.6544384956359863  1.0000
