data_image0
_chemical_formula_structural       As3C3
_chemical_formula_sum              "As3 C3"
_cell_length_a       3.795150847303654
_cell_length_b       4.113072066374796
_cell_length_c       7.412374496459961
_cell_angle_alpha    107.76911369787418
_cell_angle_beta     106.1698813041146
_cell_angle_gamma    86.55921459398424

_space_group_name_H-M_alt    "P 1"
_space_group_IT_number       1

loop_
  _space_group_symop_operation_xyz
  'x, y, z'

loop_
  _atom_site_type_symbol
  _atom_site_label
  _atom_site_symmetry_multiplicity
  _atom_site_fract_x
  _atom_site_fract_y
  _atom_site_fract_z
  _atom_site_occupancy
  As  As1       1.0  0.9107056260108947  0.04032054916024209  0.6437671184539795  1.0000
  As  As2       1.0  0.4405474662780761  0.7045124173164369  0.6065630912780762  1.0000
  As  As3       1.0  0.8669911623001098  0.41418629884719854  0.42174673080444336  1.0000
  C   C1        1.0  0.9473283886909484  0.8053881525993348  0.9141317009925842  1.0000
  C   C2        1.0  0.9526227712631224  0.32328215241432195  0.567478358745575  1.0000
  C   C3        1.0  0.7118815779685975  0.08953842520713808  0.1193264350295067  1.0000
