data_image0
_chemical_formula_structural       AlBa6Zr2
_chemical_formula_sum              "Al1 Ba6 Zr2"
_cell_length_a       4.568817423719298
_cell_length_b       6.535618933629904
_cell_length_c       8.597962379455566
_cell_angle_alpha    113.63375759528728
_cell_angle_beta     91.07410393285065
_cell_angle_gamma    89.53232712609959

_space_group_name_H-M_alt    "P 1"
_space_group_IT_number       1

loop_
  _space_group_symop_operation_xyz
  'x, y, z'

loop_
  _atom_site_type_symbol
  _atom_site_label
  _atom_site_symmetry_multiplicity
  _atom_site_fract_x
  _atom_site_fract_y
  _atom_site_fract_z
  _atom_site_occupancy
  Al  Al1       1.0  0.9067155718803406  0.6075074076652527  0.5399263501167297  1.0000
  Ba  Ba1       1.0  0.9094181656837463  0.8268275260925293  0.2136942744255066  1.0000
  Ba  Ba2       1.0  0.4130261242389679  0.3285713791847229  0.8267490267753601  1.0000
  Ba  Ba3       1.0  0.4178233742713928  0.811774492263794  0.8625468611717224  1.0000
  Ba  Ba4       1.0  0.9072856903076172  0.2877839207649231  0.03464926406741142  1.0000
  Ba  Ba5       1.0  0.9099945425987244  0.9955664873123169  0.7795594334602356  1.0000
  Ba  Ba6       1.0  0.9091970324516296  0.3010181188583374  0.04052359610795975  1.0000
  Zr  Zr1       1.0  0.40627768635749817  0.5688934326171875  0.6062576770782471  1.0000
  Zr  Zr2       1.0  0.4077301025390625  0.5562363266944885  0.6092565059661865  1.0000
