data_image0
_chemical_formula_structural       Ba5GePdVZr
_chemical_formula_sum              "Ba5 Ge1 Pd1 V1 Zr1"
_cell_length_a       4.296660069215252
_cell_length_b       6.4167201231169635
_cell_length_c       8.150959968566895
_cell_angle_alpha    115.70172798223656
_cell_angle_beta     93.65044278066064
_cell_angle_gamma    88.36647804348173

_space_group_name_H-M_alt    "P 1"
_space_group_IT_number       1

loop_
  _space_group_symop_operation_xyz
  'x, y, z'

loop_
  _atom_site_type_symbol
  _atom_site_label
  _atom_site_symmetry_multiplicity
  _atom_site_fract_x
  _atom_site_fract_y
  _atom_site_fract_z
  _atom_site_occupancy
  Ba  Ba1       1.0  0.21546602249145508  0.6053796410560608  0.844964861869812  1.0000
  Ba  Ba2       1.0  0.2175537496805191  0.33299049735069275  0.48020225763320923  1.0000
  Ba  Ba3       1.0  0.7175971865653992  0.09399599581956863  0.4954185485839844  1.0000
  Ba  Ba4       1.0  0.21674731373786926  0.12367769330739975  0.9199880957603455  1.0000
  Ba  Ba5       1.0  0.7154144048690796  0.5958861708641052  0.5936555862426758  1.0000
  Ge  Ge1       1.0  0.2228449583053589  0.23780186474323273  0.6383881568908691  1.0000
  Pd  Pd1       1.0  0.21586553752422333  0.8001643419265747  0.38740023970603943  1.0000
  V   V1        1.0  0.7210621237754822  0.5924291610717773  0.29445698857307434  1.0000
  Zr  Zr1       1.0  0.7168452739715576  0.08403825014829636  0.5473693609237671  1.0000
