data_image0
_chemical_formula_structural       Ba7Zr2
_chemical_formula_sum              "Ba7 Zr2"
_cell_length_a       4.909921596303739
_cell_length_b       6.1810111917531705
_cell_length_c       8.170283317565918
_cell_angle_alpha    114.40853816010042
_cell_angle_beta     100.82865844950075
_cell_angle_gamma    88.30786547975313

_space_group_name_H-M_alt    "P 1"
_space_group_IT_number       1

loop_
  _space_group_symop_operation_xyz
  'x, y, z'

loop_
  _atom_site_type_symbol
  _atom_site_label
  _atom_site_symmetry_multiplicity
  _atom_site_fract_x
  _atom_site_fract_y
  _atom_site_fract_z
  _atom_site_occupancy
  Ba  Ba1       1.0  0.39812442660331726  0.45473766326904297  0.5060171484947205  1.0000
  Ba  Ba2       1.0  0.39348724484443665  0.00911205355077982  0.9736273884773254  1.0000
  Ba  Ba3       1.0  0.39893877506256104  0.4354632496833801  0.7292101383209229  1.0000
  Ba  Ba4       1.0  0.8947120308876038  0.7068166136741638  0.6526944041252136  1.0000
  Ba  Ba5       1.0  0.8958979249000549  0.675557553768158  0.9506434202194214  1.0000
  Ba  Ba6       1.0  0.9008874297142029  0.22541114687919617  0.32082483172416687  1.0000
  Ba  Ba7       1.0  0.6626949310302734  0.709531307220459  0.3155471384525299  1.0000
  Zr  Zr1       1.0  0.8989996314048767  0.9683613777160645  0.7375226616859436  1.0000
  Zr  Zr2       1.0  0.1549643874168396  0.17041945457458496  0.15552352368831635  1.0000
