data_image0
_chemical_formula_structural       Ba5F2RhZr
_chemical_formula_sum              "Ba5 F2 Rh1 Zr1"
_cell_length_a       5.243841469873963
_cell_length_b       6.645268953918722
_cell_length_c       7.745121955871582
_cell_angle_alpha    119.12185346318033
_cell_angle_beta     93.69008885592262
_cell_angle_gamma    86.22781502807992

_space_group_name_H-M_alt    "P 1"
_space_group_IT_number       1

loop_
  _space_group_symop_operation_xyz
  'x, y, z'

loop_
  _atom_site_type_symbol
  _atom_site_label
  _atom_site_symmetry_multiplicity
  _atom_site_fract_x
  _atom_site_fract_y
  _atom_site_fract_z
  _atom_site_occupancy
  Ba  Ba1       1.0  0.39107218384742737  0.21653163433074954  0.599841833114624  1.0000
  Ba  Ba2       1.0  0.5948530435562134  0.0010311603546142578  0.3264920711517334  1.0000
  Ba  Ba3       1.0  0.3605894446372986  0.5161272287368774  0.5762370824813843  1.0000
  Ba  Ba4       1.0  0.5851618647575378  0.5201532244682312  0.9259699583053589  1.0000
  Ba  Ba5       1.0  0.08909184485673904  0.5094709992408752  0.23224131762981415  1.0000
  F   F1        1.0  0.591374933719635  0.005684442818164826  0.19133855402469635  1.0000
  F   F2        1.0  0.091107577085495  0.5139898061752319  0.5415323376655579  1.0000
  Rh  Rh1       1.0  0.09282836318016052  0.9941194653511048  0.10064207762479782  1.0000
  Zr  Zr1       1.0  0.8956496715545654  0.19023098051548007  0.9403811693191528  1.0000
