data_image0
_chemical_formula_structural       Ba6GeRhZr
_chemical_formula_sum              "Ba6 Ge1 Rh1 Zr1"
_cell_length_a       4.66953214640881
_cell_length_b       6.2461385370695
_cell_length_c       8.933979988098145
_cell_angle_alpha    113.70002677420395
_cell_angle_beta     92.07652998264663
_cell_angle_gamma    90.26009541052227

_space_group_name_H-M_alt    "P 1"
_space_group_IT_number       1

loop_
  _space_group_symop_operation_xyz
  'x, y, z'

loop_
  _atom_site_type_symbol
  _atom_site_label
  _atom_site_symmetry_multiplicity
  _atom_site_fract_x
  _atom_site_fract_y
  _atom_site_fract_z
  _atom_site_occupancy
  Ba  Ba1       1.0  0.42626693844795227  0.2589147686958313  0.32607612013816833  1.0000
  Ba  Ba2       1.0  0.431160569190979  0.8343663811683655  0.14295735955238342  1.0000
  Ba  Ba3       1.0  0.9207492470741273  0.7407245635986328  0.7922417521476746  1.0000
  Ba  Ba4       1.0  0.4230079650878906  0.2413351833820343  0.5562530159950256  1.0000
  Ba  Ba5       1.0  0.922581434249878  0.9070223569869995  0.9932954907417297  1.0000
  Ba  Ba6       1.0  0.9205485582351686  0.9233315587043762  0.5463790893554688  1.0000
  Ge  Ge1       1.0  0.41829925775527954  0.2512117922306061  0.8373572826385498  1.0000
  Rh  Rh1       1.0  0.41886866092681885  0.6042476296424866  0.1914776712656021  1.0000
  Zr  Zr1       1.0  0.9239528179168702  0.26445215940475464  0.5553501844406128  1.0000
