data_image0
_chemical_formula_structural       Ba5FHfRhZr
_chemical_formula_sum              "Ba5 F1 Hf1 Rh1 Zr1"
_cell_length_a       4.820937164020465
_cell_length_b       6.855910691136455
_cell_length_c       7.3067121505737305
_cell_angle_alpha    120.13627242263351
_cell_angle_beta     90.08064753957743
_cell_angle_gamma    89.78306334132434

_space_group_name_H-M_alt    "P 1"
_space_group_IT_number       1

loop_
  _space_group_symop_operation_xyz
  'x, y, z'

loop_
  _atom_site_type_symbol
  _atom_site_label
  _atom_site_symmetry_multiplicity
  _atom_site_fract_x
  _atom_site_fract_y
  _atom_site_fract_z
  _atom_site_occupancy
  Ba  Ba1       1.0  0.43916776776313776  0.34361565113067627  0.8235965371131896  1.0000
  Ba  Ba2       1.0  0.9284610748291015  0.8490704894065857  0.1834813803434372  1.0000
  Ba  Ba3       1.0  0.9510194659233092  0.23248985409736633  0.22791840136051175  1.0000
  Ba  Ba4       1.0  0.44613477587699885  0.997776210308075  0.9868506789207457  1.0000
  Ba  Ba5       1.0  0.4588464498519897  0.23891185224056244  0.7009686827659607  1.0000
  F   F1        1.0  0.9273867607116698  0.7623181343078613  0.7675394415855407  1.0000
  Hf  Hf1       1.0  0.9360947012901305  0.5016056895256042  0.19920189678668973  1.0000
  Rh  Rh1       1.0  0.44728833436965937  0.25447481870651245  0.9648174047470092  1.0000
  Zr  Zr1       1.0  0.4285438656806945  0.49791911244392395  0.332594096660614  1.0000
