data_image0
_chemical_formula_structural       Cu2IInPdSe10
_chemical_formula_sum              "Cu2 I1 In1 Pd1 Se10"
_cell_length_a       4.583983479533387
_cell_length_b       9.582175765873261
_cell_length_c       12.63463020324707
_cell_angle_alpha    99.99301878503195
_cell_angle_beta     95.37873650605397
_cell_angle_gamma    89.64494303366892

_space_group_name_H-M_alt    "P 1"
_space_group_IT_number       1

loop_
  _space_group_symop_operation_xyz
  'x, y, z'

loop_
  _atom_site_type_symbol
  _atom_site_label
  _atom_site_symmetry_multiplicity
  _atom_site_fract_x
  _atom_site_fract_y
  _atom_site_fract_z
  _atom_site_occupancy
  Cu  Cu1       1.0  0.057756293565034866  0.2877143323421478  0.7607340216636658  1.0000
  Cu  Cu2       1.0  0.35601806640625  0.25705960392951965  0.07210513204336166  1.0000
  I   I1        1.0  0.5476537942886353  0.5572955012321472  0.6586310267448425  1.0000
  In  In1       1.0  0.6479928493499756  0.9741050004959106  0.8117836713790894  1.0000
  Pd  Pd1       1.0  0.26724183559417725  0.7143397927284241  0.25275668501853943  1.0000
  Se  Se1       1.0  0.3873957693576813  0.9330066442489624  0.007721918635070323  1.0000
  Se  Se2       1.0  0.8467919230461121  0.235835000872612  0.2710968554019928  1.0000
  Se  Se3       1.0  0.29504165053367615  0.4884380102157593  0.11529822647571562  1.0000
  Se  Se4       1.0  0.21644429862499237  0.8407863974571228  0.7042921781539917  1.0000
  Se  Se5       1.0  0.7557299733161926  0.7650139927864075  0.9744539260864257  1.0000
  Se  Se6       1.0  0.33949607610702515  0.7549019455909729  0.9826476573944091  1.0000
  Se  Se7       1.0  0.7243729829788208  0.2552203834056854  0.9775254726409911  1.0000
  Se  Se8       1.0  0.26813608407974243  0.4616161286830902  0.7278091311454773  1.0000
  Se  Se9       1.0  0.788350522518158  0.7587457895278931  0.6166912317276001  1.0000
  Se  Se10      1.0  0.794273853302002  0.007029363419860601  0.3174310624599457  1.0000
