data_image0
_chemical_formula_structural       CsCuISe12
_chemical_formula_sum              "Cs1 Cu1 I1 Se12"
_cell_length_a       4.705999856404089
_cell_length_b       10.422791852659705
_cell_length_c       14.60566234588623
_cell_angle_alpha    91.12232480030033
_cell_angle_beta     94.40204585520753
_cell_angle_gamma    90.23405997653438

_space_group_name_H-M_alt    "P 1"
_space_group_IT_number       1

loop_
  _space_group_symop_operation_xyz
  'x, y, z'

loop_
  _atom_site_type_symbol
  _atom_site_label
  _atom_site_symmetry_multiplicity
  _atom_site_fract_x
  _atom_site_fract_y
  _atom_site_fract_z
  _atom_site_occupancy
  Cs  Cs1       1.0  0.16441252827644348  0.08272167295217514  0.21302781999111176  1.0000
  Cu  Cu1       1.0  0.6679443717002869  0.3506746292114258  0.47278115153312683  1.0000
  I   I1        1.0  0.6838849186897278  0.31741029024124146  0.7250893712043762  1.0000
  Se  Se1       1.0  0.6638592481613159  0.3598581850528717  0.3249901831150055  1.0000
  Se  Se2       1.0  0.6130207180976868  0.47361043095588684  0.4686305522918701  1.0000
  Se  Se3       1.0  0.31980100274086  0.22325055301189423  0.30643948912620544  1.0000
  Se  Se4       1.0  0.1840725541114807  0.7108829617500305  0.08283324539661407  1.0000
  Se  Se5       1.0  0.20237849652767181  0.5818605422973633  0.22765012085437775  1.0000
  Se  Se6       1.0  0.9872068762779236  0.8670216202735901  0.3882935345172882  1.0000
  Se  Se7       1.0  0.18249273300170898  0.25214719772338867  0.9079154133796692  1.0000
  Se  Se8       1.0  0.6552523374557495  0.9880379438400269  0.7905163168907166  1.0000
  Se  Se9       1.0  0.8222500681877136  0.0683785229921341  0.6598215103149414  1.0000
  Se  Se10      1.0  0.6913624405860901  0.8189809322357178  0.8324997425079346  1.0000
  Se  Se11      1.0  0.6387302875518799  0.5842384696006775  0.03603916987776756  1.0000
  Se  Se12      1.0  0.6726163625717163  0.09899614751338959  0.2735058069229126  1.0000
