data_image0
_chemical_formula_structural       Ce2In6Se7
_chemical_formula_sum              "Ce2 In6 Se7"
_cell_length_a       4.746992924392926
_cell_length_b       8.805126948357891
_cell_length_c       9.680678367614746
_cell_angle_alpha    120.06335111018765
_cell_angle_beta     98.01255017343729
_cell_angle_gamma    88.43114752064473

_space_group_name_H-M_alt    "P 1"
_space_group_IT_number       1

loop_
  _space_group_symop_operation_xyz
  'x, y, z'

loop_
  _atom_site_type_symbol
  _atom_site_label
  _atom_site_symmetry_multiplicity
  _atom_site_fract_x
  _atom_site_fract_y
  _atom_site_fract_z
  _atom_site_occupancy
  Ce  Ce1       1.0  0.33248698711395264  0.339400976896286  0.8918865323066711  1.0000
  Ce  Ce2       1.0  0.6469029784202576  0.9263445734977722  0.0428113378584384  1.0000
  In  In1       1.0  0.1324150562286377  0.45099180936813354  0.10806085914373394  1.0000
  In  In2       1.0  0.1569914072751999  0.7307879328727722  0.07207284122705455  1.0000
  In  In3       1.0  0.6814270615577698  0.9245039820671082  0.3297286629676819  1.0000
  In  In4       1.0  0.1543729305267334  0.26485446095466614  0.3375750482082367  1.0000
  In  In5       1.0  0.6471092700958252  0.4735882878303528  0.7884613275527954  1.0000
  In  In6       1.0  0.1304386407136917  0.4508521556854248  0.13038155436515803  1.0000
  Se  Se1       1.0  0.12237516790628433  0.14037258923053741  0.7459152936935425  1.0000
  Se  Se2       1.0  0.6913145184516907  0.7753164768218994  0.43740615248680115  1.0000
  Se  Se3       1.0  0.707771897315979  0.4248563349246979  0.95155930519104  1.0000
  Se  Se4       1.0  0.6347378492355347  0.829775869846344  0.4463971257209778  1.0000
  Se  Se5       1.0  0.6548753380775452  0.06975074112415314  0.38093316555023193  1.0000
  Se  Se6       1.0  0.1474912315607071  0.5141448974609375  0.48934030532836914  1.0000
  Se  Se7       1.0  0.1439148187637329  0.9432336688041687  0.31556981801986694  1.0000
