data_image0
_chemical_formula_structural       Ce3In3Se9
_chemical_formula_sum              "Ce3 In3 Se9"
_cell_length_a       4.64888950765309
_cell_length_b       9.779104757683607
_cell_length_c       14.5698881149292
_cell_angle_alpha    108.57527500131312
_cell_angle_beta     96.21495572870123
_cell_angle_gamma    87.84992452859409

_space_group_name_H-M_alt    "P 1"
_space_group_IT_number       1

loop_
  _space_group_symop_operation_xyz
  'x, y, z'

loop_
  _atom_site_type_symbol
  _atom_site_label
  _atom_site_symmetry_multiplicity
  _atom_site_fract_x
  _atom_site_fract_y
  _atom_site_fract_z
  _atom_site_occupancy
  Ce  Ce1       1.0  0.8973161578178406  0.6203103065490723  0.5485225915908813  1.0000
  Ce  Ce2       1.0  0.7008023858070374  0.0832318663597107  0.7237957119941711  1.0000
  Ce  Ce3       1.0  0.18722403049468994  0.6013795137405396  0.7964850664138794  1.0000
  In  In1       1.0  0.7300273776054382  0.0030854763463139534  0.32323864102363586  1.0000
  In  In2       1.0  0.6848659515380859  0.7444398403167725  0.3051353394985199  1.0000
  In  In3       1.0  0.18515914678573608  0.4023124873638153  0.1521238535642624  1.0000
  Se  Se1       1.0  0.18220598995685577  0.9103975296020508  0.18597154319286346  1.0000
  Se  Se2       1.0  0.7059023380279541  0.06679672002792358  0.699531614780426  1.0000
  Se  Se3       1.0  0.18649913370609283  0.46041378378868103  0.14739388227462769  1.0000
  Se  Se4       1.0  0.0031657202634960413  0.7837792634963989  0.9205366969108582  1.0000
  Se  Se5       1.0  0.23318436741828918  0.40067538619041443  0.713066577911377  1.0000
  Se  Se6       1.0  0.19648171961307526  0.8524462580680847  0.48546427488327026  1.0000
  Se  Se7       1.0  0.4673134386539459  0.14118751883506775  0.9458617568016052  1.0000
  Se  Se8       1.0  0.6702662110328674  0.33722543716430664  0.8667552471160889  1.0000
  Se  Se9       1.0  0.752081573009491  0.29009050130844116  0.35381385684013367  1.0000
