data_image0
_chemical_formula_structural       Ce3InSe11
_chemical_formula_sum              "Ce3 In1 Se11"
_cell_length_a       4.675513312215117
_cell_length_b       10.55974517089521
_cell_length_c       11.78508472442627
_cell_angle_alpha    105.68331627421408
_cell_angle_beta     96.57913934664353
_cell_angle_gamma    88.37046258903165

_space_group_name_H-M_alt    "P 1"
_space_group_IT_number       1

loop_
  _space_group_symop_operation_xyz
  'x, y, z'

loop_
  _atom_site_type_symbol
  _atom_site_label
  _atom_site_symmetry_multiplicity
  _atom_site_fract_x
  _atom_site_fract_y
  _atom_site_fract_z
  _atom_site_occupancy
  Ce  Ce1       1.0  0.607940137386322  0.6510160565376282  0.26184311509132385  1.0000
  Ce  Ce2       1.0  0.24871613085269928  0.1614198237657547  0.9540092349052429  1.0000
  Ce  Ce3       1.0  0.20829471945762634  0.2231595814228058  0.6140085458755493  1.0000
  In  In1       1.0  0.8183470964431763  0.16112582385540009  0.03359200805425644  1.0000
  Se  Se1       1.0  0.8100155591964722  0.5279680490493774  0.6494413614273071  1.0000
  Se  Se2       1.0  0.0473422035574913  0.6749173998832703  0.1621982455253601  1.0000
  Se  Se3       1.0  0.8286871910095215  0.9487093687057495  0.20787394046783447  1.0000
  Se  Se4       1.0  0.31030648946762085  0.23750950396060944  0.24932889640331268  1.0000
  Se  Se5       1.0  0.3291928172111511  0.4558965563774109  0.16445134580135345  1.0000
  Se  Se6       1.0  0.31583496928215027  0.8791172504425049  0.25463315844535833  1.0000
  Se  Se7       1.0  0.338661253452301  0.820099413394928  0.3334226608276368  1.0000
  Se  Se8       1.0  0.31818103790283203  0.35570722818374634  0.20135600864887238  1.0000
  Se  Se9       1.0  0.6901363730430603  0.870080828666687  0.6552501916885376  1.0000
  Se  Se10      1.0  0.7272021174430847  0.9816831350326538  0.6033021807670593  1.0000
  Se  Se11      1.0  0.7973238229751587  0.2909539043903351  0.15765045583248138  1.0000
