data_image0
_chemical_formula_structural       Ce2In6Se7
_chemical_formula_sum              "Ce2 In6 Se7"
_cell_length_a       4.121993674279987
_cell_length_b       9.154703062178095
_cell_length_c       10.53759479522705
_cell_angle_alpha    119.17560332403283
_cell_angle_beta     101.97055158043862
_cell_angle_gamma    83.9649146050068

_space_group_name_H-M_alt    "P 1"
_space_group_IT_number       1

loop_
  _space_group_symop_operation_xyz
  'x, y, z'

loop_
  _atom_site_type_symbol
  _atom_site_label
  _atom_site_symmetry_multiplicity
  _atom_site_fract_x
  _atom_site_fract_y
  _atom_site_fract_z
  _atom_site_occupancy
  Ce  Ce1       1.0  0.7223480939865112  0.7783114314079285  0.35994434356689453  1.0000
  Ce  Ce2       1.0  0.2288864403963089  0.7704657912254333  0.15579897165298467  1.0000
  In  In1       1.0  0.720247209072113  0.22287416458129883  0.15159468352794647  1.0000
  In  In2       1.0  0.2236892282962799  0.3599899411201477  0.2922011613845825  1.0000
  In  In3       1.0  0.7160840630531311  0.41065558791160583  0.6034395694732666  1.0000
  In  In4       1.0  0.7388028502464294  0.5749515891075134  0.22562839090824133  1.0000
  In  In5       1.0  0.7327399849891663  0.9939406514167786  0.24767933785915383  1.0000
  In  In6       1.0  0.7155824303627014  0.8893730044364929  0.5152634382247925  1.0000
  Se  Se1       1.0  0.21891263127326965  0.08042129129171371  0.6326636672019958  1.0000
  Se  Se2       1.0  0.7417731881141663  0.09929922968149185  0.6528094410896301  1.0000
  Se  Se3       1.0  0.23409141600131989  0.23302286863327026  0.258688747882843  1.0000
  Se  Se4       1.0  0.7226890921592712  0.7939293384552002  0.6117447018623352  1.0000
  Se  Se5       1.0  0.7159150838851929  0.01622476987540722  0.1360616683959961  1.0000
  Se  Se6       1.0  0.7191210389137268  0.01869916543364525  0.858389675617218  1.0000
  Se  Se7       1.0  0.2236049324274063  0.99825119972229  0.3714345395565034  1.0000
