data_image0
_chemical_formula_structural       AuIKLiMn5P
_chemical_formula_sum              "Au1 I1 K1 Li1 Mn5 P1"
_cell_length_a       4.880050686938069
_cell_length_b       4.976455192641632
_cell_length_c       5.77730131149292
_cell_angle_alpha    91.1886366297761
_cell_angle_beta     91.7198082104803
_cell_angle_gamma    114.40333672221689

_space_group_name_H-M_alt    "P 1"
_space_group_IT_number       1

loop_
  _space_group_symop_operation_xyz
  'x, y, z'

loop_
  _atom_site_type_symbol
  _atom_site_label
  _atom_site_symmetry_multiplicity
  _atom_site_fract_x
  _atom_site_fract_y
  _atom_site_fract_z
  _atom_site_occupancy
  Au  Au1       1.0  0.030558479949831963  0.6694242358207703  0.19946429133415225  1.0000
  I   I1        1.0  0.019623244181275368  0.041594211012125015  0.5808499455451965  1.0000
  K   K1        1.0  0.5267294049263  0.600185751914978  0.012830563820898535  1.0000
  Li  Li1       1.0  0.030988337472081184  0.5488539934158325  0.3609333038330078  1.0000
  Mn  Mn1       1.0  0.6910694241523743  0.1677335798740387  0.8428832292556764  1.0000
  Mn  Mn2       1.0  0.5432447195053101  0.6478466987609863  0.8636106252670289  1.0000
  Mn  Mn3       1.0  0.03663371875882149  0.5875085592269897  0.5844243168830872  1.0000
  Mn  Mn4       1.0  0.04737527668476105  0.7820957899093628  0.9827693700790406  1.0000
  Mn  Mn5       1.0  0.5301257371902466  0.3506821095943451  0.6508634090423584  1.0000
  P   P1        1.0  0.6262038946151733  0.2945948541164398  0.8929533362388612  1.0000
