data_image0
_chemical_formula_structural       AsBiI2KMn3PSe
_chemical_formula_sum              "As1 Bi1 I2 K1 Mn3 P1 Se1"
_cell_length_a       4.932508600111503
_cell_length_b       4.209613616781624
_cell_length_c       7.314381122589111
_cell_angle_alpha    93.4749765235445
_cell_angle_beta     89.75152004227735
_cell_angle_gamma    130.52039057808162

_space_group_name_H-M_alt    "P 1"
_space_group_IT_number       1

loop_
  _space_group_symop_operation_xyz
  'x, y, z'

loop_
  _atom_site_type_symbol
  _atom_site_label
  _atom_site_symmetry_multiplicity
  _atom_site_fract_x
  _atom_site_fract_y
  _atom_site_fract_z
  _atom_site_occupancy
  As  As1       1.0  0.05565217137336731  0.17108260095119476  0.6620340347290039  1.0000
  Bi  Bi1       1.0  0.5493152141571045  0.09001071006059647  0.990012764930725  1.0000
  I   I1        1.0  0.5621407628059387  0.700136125087738  0.719822347164154  1.0000
  I   I2        1.0  0.08036195486783981  0.14323143661022186  0.6688183546066284  1.0000
  K   K1        1.0  0.5637097954750061  0.2266416698694229  0.6539428234100342  1.0000
  Mn  Mn1       1.0  0.08117736130952835  0.6256392598152161  0.7555981874465942  1.0000
  Mn  Mn2       1.0  0.08936995267868042  0.16620947420597076  0.28435930609703064  1.0000
  Mn  Mn3       1.0  0.09863308817148209  0.7160588502883911  0.8354479670524596  1.0000
  P   P1        1.0  0.5727212429046631  0.5847153067588806  0.2488741874694824  1.0000
  Se  Se1       1.0  0.5739631652832031  0.6926217079162598  0.7410244941711426  1.0000
