data_image0
_chemical_formula_structural       Ag2Mn5NPbSe
_chemical_formula_sum              "Ag2 Mn5 N1 Pb1 Se1"
_cell_length_a       5.242362686701626
_cell_length_b       5.59370890054642
_cell_length_c       6.470038890838623
_cell_angle_alpha    79.16229073584472
_cell_angle_beta     69.78595693686569
_cell_angle_gamma    66.37483353131864

_space_group_name_H-M_alt    "P 1"
_space_group_IT_number       1

loop_
  _space_group_symop_operation_xyz
  'x, y, z'

loop_
  _atom_site_type_symbol
  _atom_site_label
  _atom_site_symmetry_multiplicity
  _atom_site_fract_x
  _atom_site_fract_y
  _atom_site_fract_z
  _atom_site_occupancy
  Ag  Ag1       1.0  0.5603906512260437  0.6308638453483582  0.2894420921802521  1.0000
  Ag  Ag2       1.0  0.03934336081147192  0.4389121234416962  0.5219979882240295  1.0000
  Mn  Mn1       1.0  0.5452899932861328  0.6495804190635681  0.8043166995048523  1.0000
  Mn  Mn2       1.0  0.03218787536025047  0.1573287546634674  0.5960858464241028  1.0000
  Mn  Mn3       1.0  0.3348082602024078  0.8798833489418031  0.36376091837882996  1.0000
  Mn  Mn4       1.0  0.5845591425895691  0.08907569199800491  0.3605656027793884  1.0000
  Mn  Mn5       1.0  0.8080390095710754  0.2490685731172562  0.2310184836387634  1.0000
  N   N1        1.0  0.3244166672229767  0.7626982927322388  0.9961659908294679  1.0000
  Pb  Pb1       1.0  0.8812150359153748  0.9145552515983583  0.9495513439178468  1.0000
  Se  Se1       1.0  0.251161128282547  0.6429738998413086  0.08132913708686829  1.0000
