data_image0
_chemical_formula_structural       Ag2Mn7Se
_chemical_formula_sum              "Ag2 Mn7 Se1"
_cell_length_a       5.500851753906593
_cell_length_b       5.851442951296508
_cell_length_c       6.910140514373779
_cell_angle_alpha    89.87042655670892
_cell_angle_beta     87.03451364402991
_cell_angle_gamma    92.97966339441095

_space_group_name_H-M_alt    "P 1"
_space_group_IT_number       1

loop_
  _space_group_symop_operation_xyz
  'x, y, z'

loop_
  _atom_site_type_symbol
  _atom_site_label
  _atom_site_symmetry_multiplicity
  _atom_site_fract_x
  _atom_site_fract_y
  _atom_site_fract_z
  _atom_site_occupancy
  Ag  Ag1       1.0  0.37084129452705383  0.22223028540611267  0.25553733110427856  1.0000
  Ag  Ag2       1.0  0.7510148882865906  0.31754109263420105  0.008174358867108825  1.0000
  Mn  Mn1       1.0  0.2956754267215729  0.8281381726264954  0.9039378762245177  1.0000
  Mn  Mn2       1.0  0.3258286416530609  0.19846637547016144  0.05468383431434631  1.0000
  Mn  Mn3       1.0  0.24400623142719266  0.25584739446640015  0.5217927694320679  1.0000
  Mn  Mn4       1.0  0.7457708716392517  0.7478027939796448  0.5251028537750244  1.0000
  Mn  Mn5       1.0  0.8047199845314026  0.38840579986572266  0.3398089706897735  1.0000
  Mn  Mn6       1.0  0.29660239815711975  0.3988618552684784  0.26600033044815063  1.0000
  Mn  Mn7       1.0  0.7129414081573486  0.006701070815324783  0.8238756656646727  1.0000
  Se  Se1       1.0  0.8161563277244568  0.5626893043518066  0.24345478415489194  1.0000
