data_image0
_chemical_formula_structural       AsCoMnP2Pb2TbV2
_chemical_formula_sum              "As1 Co1 Mn1 P2 Pb2 Tb1 V2"
_cell_length_a       5.2915625407394105
_cell_length_b       4.842342743320663
_cell_length_c       6.645334243774414
_cell_angle_alpha    112.77486219514837
_cell_angle_beta     91.39774433195102
_cell_angle_gamma    117.78493849676889

_space_group_name_H-M_alt    "P 1"
_space_group_IT_number       1

loop_
  _space_group_symop_operation_xyz
  'x, y, z'

loop_
  _atom_site_type_symbol
  _atom_site_label
  _atom_site_symmetry_multiplicity
  _atom_site_fract_x
  _atom_site_fract_y
  _atom_site_fract_z
  _atom_site_occupancy
  As  As1       1.0  0.5295720100402832  0.5739004611968994  0.01437882799655199  1.0000
  Co  Co1       1.0  0.8358550071716309  0.041260458528995514  0.18681691586971283  1.0000
  Mn  Mn1       1.0  0.31413522362709045  0.4937364459037781  0.7819623351097107  1.0000
  P   P1        1.0  0.3355748951435089  0.9207409620285034  0.9513540267944336  1.0000
  P   P2        1.0  0.355751097202301  0.6214248538017273  0.75629723072052  1.0000
  Pb  Pb1       1.0  0.8555973768234253  0.9249520301818848  0.1406335681676865  1.0000
  Pb  Pb2       1.0  0.5176857113838196  0.8278011679649353  0.1878017634153366  1.0000
  Tb  Tb1       1.0  0.8268848657608032  0.8195438981056213  0.9479994177818298  1.0000
  V   V1        1.0  0.01568175107240677  0.36664852499961853  0.007996147498488426  1.0000
  V   V2        1.0  0.01088592316955328  0.683483362197876  0.9966356158256531  1.0000
