data_image0
_chemical_formula_structural       AsDyI2Mn5Zr
_chemical_formula_sum              "As1 Dy1 I2 Mn5 Zr1"
_cell_length_a       6.165511252524844
_cell_length_b       6.268450964062739
_cell_length_c       6.689242362976074
_cell_angle_alpha    77.42358629183957
_cell_angle_beta     67.3582114040681
_cell_angle_gamma    65.73385482372024

_space_group_name_H-M_alt    "P 1"
_space_group_IT_number       1

loop_
  _space_group_symop_operation_xyz
  'x, y, z'

loop_
  _atom_site_type_symbol
  _atom_site_label
  _atom_site_symmetry_multiplicity
  _atom_site_fract_x
  _atom_site_fract_y
  _atom_site_fract_z
  _atom_site_occupancy
  As  As1       1.0  0.3545820116996765  0.32503458857536316  0.4608020186424256  1.0000
  Dy  Dy1       1.0  0.15332858264446259  0.011998589150607586  0.8035647273063661  1.0000
  I   I1        1.0  0.6651319861412048  0.005611461121588945  0.3151995539665222  1.0000
  I   I2        1.0  0.6549201011657715  0.5253008008003235  0.3069797456264496  1.0000
  Mn  Mn1       1.0  0.37571030855178833  0.21953779458999634  0.11289092153310777  1.0000
  Mn  Mn2       1.0  0.6845765709877014  0.7389810085296631  0.30782100558280945  1.0000
  Mn  Mn3       1.0  0.16293781995773315  0.7075601816177368  0.5142511129379272  1.0000
  Mn  Mn4       1.0  0.683711051940918  0.3773651719093323  0.9610543847084047  1.0000
  Mn  Mn5       1.0  0.09762117266654968  0.021704750135540962  0.7402912378311158  1.0000
  Zr  Zr1       1.0  0.3639778196811676  0.792473554611206  0.46266949176788336  1.0000
