data_image0
_chemical_formula_structural       GaInPb2PrZn5Zr
_chemical_formula_sum              "Ga1 In1 Pb2 Pr1 Zn5 Zr1"
_cell_length_a       5.1656079254298986
_cell_length_b       7.743430763576036
_cell_length_c       8.299856185913086
_cell_angle_alpha    120.57978514398383
_cell_angle_beta     88.51875172496052
_cell_angle_gamma    89.10516453047867

_space_group_name_H-M_alt    "P 1"
_space_group_IT_number       1

loop_
  _space_group_symop_operation_xyz
  'x, y, z'

loop_
  _atom_site_type_symbol
  _atom_site_label
  _atom_site_symmetry_multiplicity
  _atom_site_fract_x
  _atom_site_fract_y
  _atom_site_fract_z
  _atom_site_occupancy
  Ga  Ga1       1.0  0.3268941342830658  0.45203301310539246  0.24847494065761566  1.0000
  In  In1       1.0  0.8312200903892517  0.10670306533575058  0.7189629673957825  1.0000
  Pb  Pb1       1.0  0.8196542859077454  0.31759363412857056  0.17093688249588013  1.0000
  Pb  Pb2       1.0  0.3144528865814209  0.4581969678401947  0.899972677230835  1.0000
  Pr  Pr1       1.0  0.3252294659614563  0.4916468262672425  0.8181561231613159  1.0000
  Zn  Zn1       1.0  0.3255620300769806  0.13231678307056427  0.07574424892663956  1.0000
  Zn  Zn2       1.0  0.8193566799163818  0.8401775360107422  0.8211912512779236  1.0000
  Zn  Zn3       1.0  0.8184710144996643  0.718547523021698  0.37377074360847473  1.0000
  Zn  Zn4       1.0  0.326066792011261  0.3060854971408844  0.2557355463504791  1.0000
  Zn  Zn5       1.0  0.3171393871307373  0.9762769341468812  0.539193332195282  1.0000
  Zr  Zr1       1.0  0.8228825926780701  0.3387165069580078  0.5170543193817139  1.0000
