data_image0
_chemical_formula_structural       NiPb4Pr2Zn4
_chemical_formula_sum              "Ni1 Pb4 Pr2 Zn4"
_cell_length_a       5.03473003920187
_cell_length_b       6.661347260299455
_cell_length_c       9.212050437927246
_cell_angle_alpha    91.55024429726448
_cell_angle_beta     90.85847802647044
_cell_angle_gamma    107.60918066261105

_space_group_name_H-M_alt    "P 1"
_space_group_IT_number       1

loop_
  _space_group_symop_operation_xyz
  'x, y, z'

loop_
  _atom_site_type_symbol
  _atom_site_label
  _atom_site_symmetry_multiplicity
  _atom_site_fract_x
  _atom_site_fract_y
  _atom_site_fract_z
  _atom_site_occupancy
  Ni  Ni1       1.0  0.5525245666503906  0.9553411602973938  0.2732982337474823  1.0000
  Pb  Pb1       1.0  0.04862628132104874  0.12566471099853516  0.6458145976066589  1.0000
  Pb  Pb2       1.0  0.05343819409608841  0.11195937544107437  0.8627541065216064  1.0000
  Pb  Pb3       1.0  0.5569105744361877  0.2659952938556671  0.4138224422931671  1.0000
  Pb  Pb4       1.0  0.05187254026532173  0.2935952842235565  0.30832943320274353  1.0000
  Pr  Pr1       1.0  0.5501849055290222  0.27454301714897156  0.6042406558990479  1.0000
  Pr  Pr2       1.0  0.050289757549762726  0.17972174286842346  0.596757709980011  1.0000
  Zn  Zn1       1.0  0.5503107309341431  0.13018019497394562  0.3478637635707855  1.0000
  Zn  Zn2       1.0  0.049479272216558456  0.6290332674980164  0.6973848342895508  1.0000
  Zn  Zn3       1.0  0.05007698014378548  0.2038949429988861  0.06990513205528259  1.0000
  Zn  Zn4       1.0  0.5497886538505554  0.38150185346603394  0.7730699777603149  1.0000
