data_image0
_chemical_formula_structural       FNpPr5SnZn3
_chemical_formula_sum              "F1 Np1 Pr5 Sn1 Zn3"
_cell_length_a       5.799416524557608
_cell_length_b       5.2941281685969015
_cell_length_c       9.188480377197266
_cell_angle_alpha    90.29734231794613
_cell_angle_beta     90.07693100141073
_cell_angle_gamma    90.3610851251607

_space_group_name_H-M_alt    "P 1"
_space_group_IT_number       1

loop_
  _space_group_symop_operation_xyz
  'x, y, z'

loop_
  _atom_site_type_symbol
  _atom_site_label
  _atom_site_symmetry_multiplicity
  _atom_site_fract_x
  _atom_site_fract_y
  _atom_site_fract_z
  _atom_site_occupancy
  F   F1        1.0  0.052890300750732415  0.8583435416221619  0.31646090745925903  1.0000
  Np  Np1       1.0  0.5496238470077515  0.433878630399704  0.07673904299736023  1.0000
  Pr  Pr1       1.0  0.04523643106222153  0.6542613506317139  0.39049696922302246  1.0000
  Pr  Pr2       1.0  0.542758584022522  0.0032369117252528667  0.6664332747459412  1.0000
  Pr  Pr3       1.0  0.04296966269612312  0.5232056379318237  0.9815580844879149  1.0000
  Pr  Pr4       1.0  0.5461587309837341  0.32155245542526245  0.9518688321113585  1.0000
  Pr  Pr5       1.0  0.04198577627539635  0.2551511228084564  0.6467551589012146  1.0000
  Sn  Sn1       1.0  0.04844135046005249  0.19566825032234192  0.577966034412384  1.0000
  Zn  Zn1       1.0  0.541057288646698  0.2535170912742615  0.5146171450614929  1.0000
  Zn  Zn2       1.0  0.5495918989181519  0.8888416886329651  0.3521330952644348  1.0000
  Zn  Zn3       1.0  0.5514945387840271  0.904431939125061  0.2345260679721832  1.0000
