data_image0
_chemical_formula_structural       FNp3Pr3Zn4
_chemical_formula_sum              "F1 Np3 Pr3 Zn4"
_cell_length_a       4.973099869615169
_cell_length_b       7.196365380166629
_cell_length_c       9.928959846496582
_cell_angle_alpha    113.71643875896072
_cell_angle_beta     91.3663326933225
_cell_angle_gamma    89.40289402105263

_space_group_name_H-M_alt    "P 1"
_space_group_IT_number       1

loop_
  _space_group_symop_operation_xyz
  'x, y, z'

loop_
  _atom_site_type_symbol
  _atom_site_label
  _atom_site_symmetry_multiplicity
  _atom_site_fract_x
  _atom_site_fract_y
  _atom_site_fract_z
  _atom_site_occupancy
  F   F1        1.0  0.6485083103179932  0.306303471326828  0.7595217227935791  1.0000
  Np  Np1       1.0  0.1442936658859253  0.16926927864551544  0.6316323280334473  1.0000
  Np  Np2       1.0  0.14512424170970917  0.12574240565299988  0.2449135631322861  1.0000
  Np  Np3       1.0  0.14384466409683228  0.7329824566841125  0.3476870656013489  1.0000
  Pr  Pr1       1.0  0.14518022537231445  0.7933700680732727  0.5848580002784729  1.0000
  Pr  Pr2       1.0  0.6440671682357788  0.6355695128440857  0.5410001873970032  1.0000
  Pr  Pr3       1.0  0.1446995735168457  0.42749351263046265  0.5081615447998047  1.0000
  Zn  Zn1       1.0  0.6422483325004578  0.24179622530937195  0.8967403769493104  1.0000
  Zn  Zn2       1.0  0.6443628072738647  0.34251663088798523  0.6118770837783813  1.0000
  Zn  Zn3       1.0  0.6423994898796082  0.2699059844017029  0.6872458457946777  1.0000
  Zn  Zn4       1.0  0.644029974937439  0.06293868273496628  0.9834980964660646  1.0000
