data_image0
_chemical_formula_structural       NpPr8Zn2
_chemical_formula_sum              "Np1 Pr8 Zn2"
_cell_length_a       5.024884709073379
_cell_length_b       4.7405801109742285
_cell_length_c       9.490280151367188
_cell_angle_alpha    91.67507394338529
_cell_angle_beta     88.87258562633518
_cell_angle_gamma    89.59423567791147

_space_group_name_H-M_alt    "P 1"
_space_group_IT_number       1

loop_
  _space_group_symop_operation_xyz
  'x, y, z'

loop_
  _atom_site_type_symbol
  _atom_site_label
  _atom_site_symmetry_multiplicity
  _atom_site_fract_x
  _atom_site_fract_y
  _atom_site_fract_z
  _atom_site_occupancy
  Np  Np1       1.0  0.8111515641212463  0.9781334400177002  0.9429705142974854  1.0000
  Pr  Pr1       1.0  0.3061407506465912  0.5735819935798645  0.4979024827480316  1.0000
  Pr  Pr2       1.0  0.8104119300842285  0.6274266839027405  0.45336708426475525  1.0000
  Pr  Pr3       1.0  0.30739516019821167  0.20638065040111542  0.805767834186554  1.0000
  Pr  Pr4       1.0  0.8164997696876526  0.47033530473709106  0.9085176587104797  1.0000
  Pr  Pr5       1.0  0.30813074111938477  0.8584815859794617  0.13715022802352905  1.0000
  Pr  Pr6       1.0  0.8085688352584839  0.6978036165237427  0.8516870141029358  1.0000
  Pr  Pr7       1.0  0.8104785680770874  0.07924359291791916  0.6085968017578125  1.0000
  Pr  Pr8       1.0  0.305943101644516  0.3299930989742279  0.8352563381195068  1.0000
  Zn  Zn1       1.0  0.30808642506599426  0.16893042623996735  0.07038655132055283  1.0000
  Zn  Zn2       1.0  0.3027306795120239  0.3306327164173126  0.7981728911399841  1.0000
