data_image0
_chemical_formula_structural       AsNp2Pb2Pr2Zn4
_chemical_formula_sum              "As1 Np2 Pb2 Pr2 Zn4"
_cell_length_a       4.4628437272535315
_cell_length_b       5.121798577886963
_cell_length_c       10.401890754699707
_cell_angle_alpha    106.24453060447385
_cell_angle_beta     89.54304894106824
_cell_angle_gamma    88.90100110012814

_space_group_name_H-M_alt    "P 1"
_space_group_IT_number       1

loop_
  _space_group_symop_operation_xyz
  'x, y, z'

loop_
  _atom_site_type_symbol
  _atom_site_label
  _atom_site_symmetry_multiplicity
  _atom_site_fract_x
  _atom_site_fract_y
  _atom_site_fract_z
  _atom_site_occupancy
  As  As1       1.0  0.674724817276001  0.15098421275615692  0.9450094103813171  1.0000
  Np  Np1       1.0  0.6763583421707153  0.6019634008407593  0.7773889899253845  1.0000
  Np  Np2       1.0  0.1765972226858139  0.39367571473121643  0.0537163205444813  1.0000
  Pb  Pb1       1.0  0.6800675988197327  0.7728322744369507  0.1233937069773674  1.0000
  Pb  Pb2       1.0  0.17338702082633972  0.6268013715744019  0.27977272868156433  1.0000
  Pr  Pr1       1.0  0.1788061559200287  0.411436527967453  0.1635555773973465  1.0000
  Pr  Pr2       1.0  0.17980223894119263  0.3946566581726074  0.16739986836910248  1.0000
  Zn  Zn1       1.0  0.17280618846416473  0.585477888584137  0.8517562747001648  1.0000
  Zn  Zn2       1.0  0.6745251417160034  0.9974229335784913  0.4940634071826935  1.0000
  Zn  Zn3       1.0  0.6745665669441223  0.10277384519577026  0.6956981420516968  1.0000
  Zn  Zn4       1.0  0.6754085421562195  0.717302143573761  0.5243057012557983  1.0000
