data_image0
_chemical_formula_structural       As2CaN2Y
_chemical_formula_sum              "As2 Ca1 N2 Y1"
_cell_length_a       4.39107607736454
_cell_length_b       5.234485254544297
_cell_length_c       6.327082633972168
_cell_angle_alpha    114.02317209685982
_cell_angle_beta     90.42553576710483
_cell_angle_gamma    110.77179878111585

_space_group_name_H-M_alt    "P 1"
_space_group_IT_number       1

loop_
  _space_group_symop_operation_xyz
  'x, y, z'

loop_
  _atom_site_type_symbol
  _atom_site_label
  _atom_site_symmetry_multiplicity
  _atom_site_fract_x
  _atom_site_fract_y
  _atom_site_fract_z
  _atom_site_occupancy
  As  As1       1.0  0.09857354313135147  0.5657039880752563  0.4510498046875  1.0000
  As  As2       1.0  0.3729013204574585  0.5249550342559814  0.9110239148139954  1.0000
  Ca  Ca1       1.0  0.6698693633079529  0.0673292949795723  0.49230495095252985  1.0000
  N   N1        1.0  0.03762959688901901  0.0649959072470665  0.841163158416748  1.0000
  N   N2        1.0  0.8465754985809326  0.5519455075263977  0.9319673180580139  1.0000
  Y   Y1        1.0  0.10224048793315887  0.06739407032728195  0.4272804260253906  1.0000
