data_image0
_chemical_formula_structural       As4N2
_chemical_formula_sum              "As4 N2"
_cell_length_a       4.078542075138538
_cell_length_b       5.903846798048115
_cell_length_c       6.2995476722717285
_cell_angle_alpha    121.9732881447146
_cell_angle_beta     90.93614973830239
_cell_angle_gamma    91.97791415594503

_space_group_name_H-M_alt    "P 1"
_space_group_IT_number       1

loop_
  _space_group_symop_operation_xyz
  'x, y, z'

loop_
  _atom_site_type_symbol
  _atom_site_label
  _atom_site_symmetry_multiplicity
  _atom_site_fract_x
  _atom_site_fract_y
  _atom_site_fract_z
  _atom_site_occupancy
  As  As1       1.0  0.22912845015525818  0.2070113718509674  0.9750193357467652  1.0000
  As  As2       1.0  0.7801676988601685  0.5102863907814026  0.5057664513587952  1.0000
  As  As3       1.0  0.7767792344093323  0.08050072938203812  0.5295746326446533  1.0000
  As  As4       1.0  0.7760291695594788  0.8550326824188232  0.7998441457748413  1.0000
  N   N1        1.0  0.4418153464794159  0.11944954097270966  0.5239734649658203  1.0000
  N   N2        1.0  0.24098210036754608  0.7158562541007996  0.07276728004217148  1.0000
