data_image0
_chemical_formula_structural       As3Np3
_chemical_formula_sum              "As3 Np3"
_cell_length_a       3.925745382371427
_cell_length_b       5.568894411289263
_cell_length_c       6.8986334800720215
_cell_angle_alpha    125.95410804503982
_cell_angle_beta     88.16546891682839
_cell_angle_gamma    86.18010832574176

_space_group_name_H-M_alt    "P 1"
_space_group_IT_number       1

loop_
  _space_group_symop_operation_xyz
  'x, y, z'

loop_
  _atom_site_type_symbol
  _atom_site_label
  _atom_site_symmetry_multiplicity
  _atom_site_fract_x
  _atom_site_fract_y
  _atom_site_fract_z
  _atom_site_occupancy
  As  As1       1.0  0.677552819252014  0.03319080173969269  0.16025793552398682  1.0000
  As  As2       1.0  0.1632079482078552  0.5692201256752014  0.9688615798950196  1.0000
  As  As3       1.0  0.6734049320220946  0.07452540844678879  0.37847116589546204  1.0000
  Np  Np1       1.0  0.16124504804611203  0.30881011486053467  0.9967371821403505  1.0000
  Np  Np2       1.0  0.6711464524269103  0.7228725552558899  0.3699381649494171  1.0000
  Np  Np3       1.0  0.15901453793048856  0.49320417642593384  0.6636472344398499  1.0000
