data_image0
_chemical_formula_structural       AlAs3HoN
_chemical_formula_sum              "Al1 As3 Ho1 N1"
_cell_length_a       4.728950659379384
_cell_length_b       5.780047415378212
_cell_length_c       6.166596412658691
_cell_angle_alpha    112.15158194356074
_cell_angle_beta     91.35063314737825
_cell_angle_gamma    110.61905729291782

_space_group_name_H-M_alt    "P 1"
_space_group_IT_number       1

loop_
  _space_group_symop_operation_xyz
  'x, y, z'

loop_
  _atom_site_type_symbol
  _atom_site_label
  _atom_site_symmetry_multiplicity
  _atom_site_fract_x
  _atom_site_fract_y
  _atom_site_fract_z
  _atom_site_occupancy
  Al  Al1       1.0  0.27646735310554504  0.7809475660324097  0.687628984451294  1.0000
  As  As1       1.0  0.03640115261077881  0.38993945717811584  0.3079907298088074  1.0000
  As  As2       1.0  0.6101530194282532  0.3724004328250885  0.14483262598514557  1.0000
  As  As3       1.0  0.03638334944844246  0.3895813524723053  0.9334144592285156  1.0000
  Ho  Ho1       1.0  0.2831600606441498  0.8891120553016663  0.48962876200675964  1.0000
  N   N1        1.0  0.6130619049072266  0.8539897203445435  0.3456439673900604  1.0000
