data_image0
_chemical_formula_structural       CO3Tb4Ti
_chemical_formula_sum              "C1 O3 Tb4 Ti1"
_cell_length_a       3.6621272187705456
_cell_length_b       5.337732430158499
_cell_length_c       8.032764434814453
_cell_angle_alpha    105.26259395042199
_cell_angle_beta     104.30916641058238
_cell_angle_gamma    88.80246251397958

_space_group_name_H-M_alt    "P 1"
_space_group_IT_number       1

loop_
  _space_group_symop_operation_xyz
  'x, y, z'

loop_
  _atom_site_type_symbol
  _atom_site_label
  _atom_site_symmetry_multiplicity
  _atom_site_fract_x
  _atom_site_fract_y
  _atom_site_fract_z
  _atom_site_occupancy
  C   C1        1.0  0.6520534157752991  0.19171841442584991  0.8326132297515869  1.0000
  O   O1        1.0  0.04659157618880272  0.794270396232605  0.3189166486263275  1.0000
  O   O2        1.0  0.49083858728408813  0.8799100518226624  0.17586374282836914  1.0000
  O   O3        1.0  0.6957532167434692  0.36354899406433105  0.6380922794342041  1.0000
  Tb  Tb1       1.0  0.26815131306648254  0.5368772745132446  0.05443090200424194  1.0000
  Tb  Tb2       1.0  0.7371993660926819  0.27034738659858704  0.7352651357650757  1.0000
  Tb  Tb3       1.0  0.16985256969928741  0.23664149641990662  0.7919933199882507  1.0000
  Tb  Tb4       1.0  0.31749120354652405  0.2675916850566864  0.5384100079536438  1.0000
  Ti  Ti1       1.0  0.7937992811203003  0.7555598020553589  0.5322936177253723  1.0000
