data_image0
_chemical_formula_structural       CO2SbTb4Ti
_chemical_formula_sum              "C1 O2 Sb1 Tb4 Ti1"
_cell_length_a       4.638892990444348
_cell_length_b       6.493439550803822
_cell_length_c       8.147608757019043
_cell_angle_alpha    113.66833903274943
_cell_angle_beta     98.99917851098587
_cell_angle_gamma    89.3676084940347

_space_group_name_H-M_alt    "P 1"
_space_group_IT_number       1

loop_
  _space_group_symop_operation_xyz
  'x, y, z'

loop_
  _atom_site_type_symbol
  _atom_site_label
  _atom_site_symmetry_multiplicity
  _atom_site_fract_x
  _atom_site_fract_y
  _atom_site_fract_z
  _atom_site_occupancy
  C   C1        1.0  0.23434199392795563  0.9743688106536866  0.31115970015525823  1.0000
  O   O1        1.0  0.9299106001853943  0.588217556476593  0.5646474957466125  1.0000
  O   O2        1.0  0.8448213338851929  0.19592584669589996  0.28431597352027893  1.0000
  Sb  Sb1       1.0  0.21745283901691437  0.4496065080165863  0.7989283204078674  1.0000
  Tb  Tb1       1.0  0.7107710838317871  0.9816612005233766  0.27711704373359686  1.0000
  Tb  Tb2       1.0  0.7160924077033997  0.44028225541114807  0.9705527424812317  1.0000
  Tb  Tb3       1.0  0.2175142914056778  0.9430072903633119  0.7923065423965454  1.0000
  Tb  Tb4       1.0  0.7198724746704102  0.9711359143257142  0.7678881287574768  1.0000
  Ti  Ti1       1.0  0.7169253826141357  0.46732392907142645  0.7783507704734802  1.0000
