data_image0
_chemical_formula_structural       C2OTb6
_chemical_formula_sum              "C2 O1 Tb6"
_cell_length_a       4.494385659607346
_cell_length_b       6.97224947737841
_cell_length_c       6.861615180969238
_cell_angle_alpha    123.17820094800118
_cell_angle_beta     89.2738899603033
_cell_angle_gamma    89.14449529434822

_space_group_name_H-M_alt    "P 1"
_space_group_IT_number       1

loop_
  _space_group_symop_operation_xyz
  'x, y, z'

loop_
  _atom_site_type_symbol
  _atom_site_label
  _atom_site_symmetry_multiplicity
  _atom_site_fract_x
  _atom_site_fract_y
  _atom_site_fract_z
  _atom_site_occupancy
  C   C1        1.0  0.3578345775604248  0.3017222285270691  0.31233617663383484  1.0000
  C   C2        1.0  0.8595009446144104  0.5637165307998657  0.705163836479187  1.0000
  O   O1        1.0  0.0932638868689537  0.1929962933063507  0.5889115929603577  1.0000
  Tb  Tb1       1.0  0.36870622634887695  0.8653681874275208  0.9439058303833008  1.0000
  Tb  Tb2       1.0  0.35311999917030334  0.5672663450241089  0.9429449439048767  1.0000
  Tb  Tb3       1.0  0.8638423085212708  0.16444319486618042  0.35517358779907227  1.0000
  Tb  Tb4       1.0  0.8615514039993286  0.5157997608184814  0.9925681948661804  1.0000
  Tb  Tb5       1.0  0.3513810336589813  0.7987185716629028  0.3585925102233887  1.0000
  Tb  Tb6       1.0  0.8697593212127686  0.5494257211685181  0.904732882976532  1.0000
