data_image0
_chemical_formula_structural       C2OTb6
_chemical_formula_sum              "C2 O1 Tb6"
_cell_length_a       4.535892024984763
_cell_length_b       6.7579423798303395
_cell_length_c       7.018918991088867
_cell_angle_alpha    122.33251709429192
_cell_angle_beta     91.48109373677876
_cell_angle_gamma    88.7757657894259

_space_group_name_H-M_alt    "P 1"
_space_group_IT_number       1

loop_
  _space_group_symop_operation_xyz
  'x, y, z'

loop_
  _atom_site_type_symbol
  _atom_site_label
  _atom_site_symmetry_multiplicity
  _atom_site_fract_x
  _atom_site_fract_y
  _atom_site_fract_z
  _atom_site_occupancy
  C   C1        1.0  0.07364973425865173  0.10326283425092697  0.7256429195404052  1.0000
  C   C2        1.0  0.07772787660360336  0.804726243019104  0.11246009171009062  1.0000
  O   O1        1.0  0.8374850153923035  0.11124368011951447  0.4076754748821258  1.0000
  Tb  Tb1       1.0  0.07768531143665314  0.29260310530662537  0.6105515360832213  1.0000
  Tb  Tb2       1.0  0.07954701781272888  0.5393189191818237  0.690283179283142  1.0000
  Tb  Tb3       1.0  0.5687817931175232  0.08066603541374207  0.3038696646690368  1.0000
  Tb  Tb4       1.0  0.5733892917633057  0.6194103360176086  0.8843029141426085  1.0000
  Tb  Tb5       1.0  0.5777071714401245  0.5634700059890747  0.6684880256652831  1.0000
  Tb  Tb6       1.0  0.575836718082428  0.6166762709617615  0.8957061767578124  1.0000
