data_image0
_chemical_formula_structural       DyFe2LiPb2
_chemical_formula_sum              "Dy1 Fe2 Li1 Pb2"
_cell_length_a       5.05523587653119
_cell_length_b       5.0647397487100765
_cell_length_c       6.00362491607666
_cell_angle_alpha    74.84094168446268
_cell_angle_beta     73.7421481719338
_cell_angle_gamma    70.91433388588749

_space_group_name_H-M_alt    "P 1"
_space_group_IT_number       1

loop_
  _space_group_symop_operation_xyz
  'x, y, z'

loop_
  _atom_site_type_symbol
  _atom_site_label
  _atom_site_symmetry_multiplicity
  _atom_site_fract_x
  _atom_site_fract_y
  _atom_site_fract_z
  _atom_site_occupancy
  Dy  Dy1       1.0  0.03378723934292793  0.839283287525177  0.8983752727508545  1.0000
  Fe  Fe1       1.0  0.7450014352798462  0.2878725230693817  0.32432493567466736  1.0000
  Fe  Fe2       1.0  0.24697637557983398  0.04217730835080147  0.41912350058555603  1.0000
  Li  Li1       1.0  0.5829680562019348  0.5812356472015381  0.7926242351531982  1.0000
  Pb  Pb1       1.0  0.7461577653884888  0.8395220041275024  0.40258336067199707  1.0000
  Pb  Pb2       1.0  0.24854539334774017  0.33566614985466003  0.3193860650062561  1.0000
