data_image0
_chemical_formula_structural       Fe2GaY3
_chemical_formula_sum              "Fe2 Ga1 Y3"
_cell_length_a       5.522799764224656
_cell_length_b       5.3262290038099716
_cell_length_c       6.856714248657227
_cell_angle_alpha    86.1352375709326
_cell_angle_beta     88.29088562410493
_cell_angle_gamma    82.61698365371757

_space_group_name_H-M_alt    "P 1"
_space_group_IT_number       1

loop_
  _space_group_symop_operation_xyz
  'x, y, z'

loop_
  _atom_site_type_symbol
  _atom_site_label
  _atom_site_symmetry_multiplicity
  _atom_site_fract_x
  _atom_site_fract_y
  _atom_site_fract_z
  _atom_site_occupancy
  Fe  Fe1       1.0  0.352020263671875  0.21668337285518646  0.012423030100762848  1.0000
  Fe  Fe2       1.0  0.8339703679084777  0.6148938536643982  0.47048610448837275  1.0000
  Ga  Ga1       1.0  0.1729319542646408  0.9771711230278015  0.26400935649871826  1.0000
  Y   Y1        1.0  0.18062198162078857  0.3769376873970032  0.07439113408327103  1.0000
  Y   Y2        1.0  0.6756275296211243  0.35489752888679504  0.902347445487976  1.0000
  Y   Y3        1.0  0.6834802031517029  0.9174518585205078  0.5713233947753906  1.0000
