data_image0
_chemical_formula_structural       Fe4Y2
_chemical_formula_sum              "Fe4 Y2"
_cell_length_a       3.605242746529582
_cell_length_b       3.513996266284555
_cell_length_c       4.619048118591309
_cell_angle_alpha    87.13259627439486
_cell_angle_beta     91.79038838501903
_cell_angle_gamma    93.42076591076994

_space_group_name_H-M_alt    "P 1"
_space_group_IT_number       1

loop_
  _space_group_symop_operation_xyz
  'x, y, z'

loop_
  _atom_site_type_symbol
  _atom_site_label
  _atom_site_symmetry_multiplicity
  _atom_site_fract_x
  _atom_site_fract_y
  _atom_site_fract_z
  _atom_site_occupancy
  Fe  Fe1       1.0  0.5972346663475037  0.2848309576511383  0.9333010911941528  1.0000
  Fe  Fe2       1.0  0.09277664870023727  0.7012549042701721  0.24943888187408447  1.0000
  Fe  Fe3       1.0  0.08605746924877167  0.3395102024078369  0.6081206798553467  1.0000
  Fe  Fe4       1.0  0.088161900639534  0.4460955858230591  0.07199189066886902  1.0000
  Y   Y1        1.0  0.08557616919279099  0.2840474247932434  0.7251477241516113  1.0000
  Y   Y2        1.0  0.5870912075042725  0.1746642291545868  0.29291772842407227  1.0000
