data_image0
_chemical_formula_structural       Fe3Ge3Pb2SbSm2
_chemical_formula_sum              "Fe3 Ge3 Pb2 Sb1 Sm2"
_cell_length_a       5.972403464780996
_cell_length_b       5.98404549614332
_cell_length_c       9.833211898803711
_cell_angle_alpha    94.8515169227377
_cell_angle_beta     92.19915031777704
_cell_angle_gamma    95.2837439202353

_space_group_name_H-M_alt    "P 1"
_space_group_IT_number       1

loop_
  _space_group_symop_operation_xyz
  'x, y, z'

loop_
  _atom_site_type_symbol
  _atom_site_label
  _atom_site_symmetry_multiplicity
  _atom_site_fract_x
  _atom_site_fract_y
  _atom_site_fract_z
  _atom_site_occupancy
  Fe  Fe1       1.0  0.7883156538009645  0.9299544095993043  0.8384665846824646  1.0000
  Fe  Fe2       1.0  0.6259744167327881  0.7068426012992859  0.9022530913352966  1.0000
  Fe  Fe3       1.0  0.384448528289795  0.22927747666835788  0.41765639185905457  1.0000
  Ge  Ge1       1.0  0.8877044916152955  0.09935045242309572  0.3487791121006012  1.0000
  Ge  Ge2       1.0  0.8848212361335756  0.5694589018821716  0.01405361108481884  1.0000
  Ge  Ge3       1.0  0.8817831873893739  0.5344759821891785  0.7042905688285828  1.0000
  Pb  Pb1       1.0  0.12833574414253235  0.8204300403594972  0.8597267866134644  1.0000
  Pb  Pb2       1.0  0.3750017881393433  0.1945079565048218  0.6280814409255981  1.0000
  Sb  Sb1       1.0  0.656579852104187  0.903041958808899  0.034100454300642014  1.0000
  Sm  Sm1       1.0  0.3773744106292725  0.7797765731811525  0.8384854197502136  1.0000
  Sm  Sm2       1.0  0.19588436186313632  0.8018078804016114  0.5237661004066467  1.0000
