data_image0
_chemical_formula_structural       Fe2GaGeIPbSm4Tb
_chemical_formula_sum              "Fe2 Ga1 Ge1 I1 Pb1 Sm4 Tb1"
_cell_length_a       5.9309910817971385
_cell_length_b       6.271610521291552
_cell_length_c       8.870085716247559
_cell_angle_alpha    117.78268938278615
_cell_angle_beta     93.58027641790628
_cell_angle_gamma    91.42913241472483

_space_group_name_H-M_alt    "P 1"
_space_group_IT_number       1

loop_
  _space_group_symop_operation_xyz
  'x, y, z'

loop_
  _atom_site_type_symbol
  _atom_site_label
  _atom_site_symmetry_multiplicity
  _atom_site_fract_x
  _atom_site_fract_y
  _atom_site_fract_z
  _atom_site_occupancy
  Fe  Fe1       1.0  0.7378268241882325  0.932493269443512  0.45249468088150024  1.0000
  Fe  Fe2       1.0  0.22791175544261935  0.6373818516731262  0.6258536577224731  1.0000
  Ga  Ga1       1.0  0.737851917743683  0.8116543889045715  0.03875800967216492  1.0000
  Ge  Ge1       1.0  0.9969429969787599  0.7479723691940308  0.9360391497612  1.0000
  I   I1        1.0  0.3418522775173187  0.7738164663314819  0.565424919128418  1.0000
  Pb  Pb1       1.0  0.48122859001159674  0.5977054834365845  0.04857957735657692  1.0000
  Sm  Sm1       1.0  0.24251171946525577  0.42583200335502625  0.3508838415145874  1.0000
  Sm  Sm2       1.0  0.9950703382492067  0.43805181980133057  0.06871368736028671  1.0000
  Sm  Sm3       1.0  0.5015684962272644  0.31162986159324646  0.7320736646652222  1.0000
  Sm  Sm4       1.0  0.9952536821365358  0.4310395121574402  0.4397794008255005  1.0000
  Tb  Tb1       1.0  0.48910912871360784  0.008641737513244152  0.8604897260665894  1.0000
