data_image0
_chemical_formula_structural       AsCoCuFe3PSm4
_chemical_formula_sum              "As1 Co1 Cu1 Fe3 P1 Sm4"
_cell_length_a       5.8191515786474435
_cell_length_b       5.7037620133844005
_cell_length_c       8.973489761352539
_cell_angle_alpha    115.15652000043542
_cell_angle_beta     96.93199309479158
_cell_angle_gamma    93.05090572832985

_space_group_name_H-M_alt    "P 1"
_space_group_IT_number       1

loop_
  _space_group_symop_operation_xyz
  'x, y, z'

loop_
  _atom_site_type_symbol
  _atom_site_label
  _atom_site_symmetry_multiplicity
  _atom_site_fract_x
  _atom_site_fract_y
  _atom_site_fract_z
  _atom_site_occupancy
  As  As1       1.0  0.5706969499588013  0.6222286224365234  0.46294939517974854  1.0000
  Co  Co1       1.0  0.6853379607200623  0.6709300875663757  0.9873473644256592  1.0000
  Cu  Cu1       1.0  0.5744994282722473  0.3214958608150482  0.3100205361843109  1.0000
  Fe  Fe1       1.0  0.19763828814029694  0.9248365163803102  0.7405897378921509  1.0000
  Fe  Fe2       1.0  0.651987612247467  0.4850579202175141  0.7328113913536072  1.0000
  Fe  Fe3       1.0  0.20453885197639465  0.9136446118354798  0.5170741677284241  1.0000
  P   P1        1.0  0.10889142006635667  0.015963146463036537  0.45385977625846863  1.0000
  Sm  Sm1       1.0  0.5914391875267029  0.5919674038887024  0.43469315767288214  1.0000
  Sm  Sm2       1.0  0.04238276928663256  0.876421093940735  0.9518827199935913  1.0000
  Sm  Sm3       1.0  0.09507391601800919  0.04635632410645485  0.25439414381980896  1.0000
  Sm  Sm4       1.0  0.30033692717552185  0.5202671885490417  0.9075008034706116  1.0000
