data_image0
_chemical_formula_structural       B3Fe5GeSm2
_chemical_formula_sum              "B3 Fe5 Ge1 Sm2"
_cell_length_a       3.3821219683755492
_cell_length_b       4.956836973491877
_cell_length_c       5.005039215087891
_cell_angle_alpha    95.95035676201347
_cell_angle_beta     92.53413034094473
_cell_angle_gamma    88.73014232127116

_space_group_name_H-M_alt    "P 1"
_space_group_IT_number       1

loop_
  _space_group_symop_operation_xyz
  'x, y, z'

loop_
  _atom_site_type_symbol
  _atom_site_label
  _atom_site_symmetry_multiplicity
  _atom_site_fract_x
  _atom_site_fract_y
  _atom_site_fract_z
  _atom_site_occupancy
  B   B1        1.0  0.21515576541423795  0.3160487115383148  0.9216638207435608  1.0000
  B   B2        1.0  0.22498926520347592  0.24565482139587402  0.5920571088790894  1.0000
  B   B3        1.0  0.7000401616096497  0.25115516781806946  0.12728899717330933  1.0000
  Fe  Fe1       1.0  0.40401199460029596  0.18830092251300812  0.7151889801025391  1.0000
  Fe  Fe2       1.0  0.660731852054596  0.2728726863861084  0.45436352491378784  1.0000
  Fe  Fe3       1.0  0.20291134715080258  0.13678774237632751  0.6905176043510437  1.0000
  Fe  Fe4       1.0  0.20475623011589048  0.6285222768783569  0.4310009479522705  1.0000
  Fe  Fe5       1.0  0.17648188769817352  0.7626670002937317  0.1015874519944191  1.0000
  Ge  Ge1       1.0  0.1911652237176895  0.40051811933517456  0.049599625170230865  1.0000
  Sm  Sm1       1.0  0.6990219354629517  0.5810211896896362  0.7094664573669434  1.0000
  Sm  Sm2       1.0  0.7053931951522827  0.6119633913040161  0.6482099890708923  1.0000
