data_image0
_chemical_formula_structural       Fe2GePPb3Sm3Tb
_chemical_formula_sum              "Fe2 Ge1 P1 Pb3 Sm3 Tb1"
_cell_length_a       5.431071335918306
_cell_length_b       7.340647793549051
_cell_length_c       8.935808181762695
_cell_angle_alpha    122.33346700683546
_cell_angle_beta     91.64186459980901
_cell_angle_gamma    88.84016495333657

_space_group_name_H-M_alt    "P 1"
_space_group_IT_number       1

loop_
  _space_group_symop_operation_xyz
  'x, y, z'

loop_
  _atom_site_type_symbol
  _atom_site_label
  _atom_site_symmetry_multiplicity
  _atom_site_fract_x
  _atom_site_fract_y
  _atom_site_fract_z
  _atom_site_occupancy
  Fe  Fe1       1.0  0.6036626696586609  0.3233259320259094  0.039236437529325485  1.0000
  Fe  Fe2       1.0  0.07307086884975433  0.23448184132575986  0.21063844859600067  1.0000
  Ge  Ge1       1.0  0.5982797145843506  0.1714804619550705  0.35247087478637695  1.0000
  P   P1        1.0  0.5019245147705078  0.4521481096744537  0.5347012877464294  1.0000
  Pb  Pb1       1.0  0.0894986167550087  0.8708149790763854  0.7988612055778503  1.0000
  Pb  Pb2       1.0  0.09959962218999863  0.24245442450046537  0.9826297760009766  1.0000
  Pb  Pb3       1.0  0.596648097038269  0.4234000444412231  0.6297830939292908  1.0000
  Sm  Sm1       1.0  0.09422288835048676  0.05418918281793594  0.26123118400573725  1.0000
  Sm  Sm2       1.0  0.5983340740203857  0.06906670331954956  0.9840002059936523  1.0000
  Sm  Sm3       1.0  0.5934897065162659  0.2854163348674774  0.31694477796554565  1.0000
  Tb  Tb1       1.0  0.8625051975250244  0.5071031451225281  0.20123358070850372  1.0000
