data_image0
_chemical_formula_structural       B3Fe5Sm3
_chemical_formula_sum              "B3 Fe5 Sm3"
_cell_length_a       4.3232977951611655
_cell_length_b       5.232459181915956
_cell_length_c       5.52534294128418
_cell_angle_alpha    88.06925977803272
_cell_angle_beta     90.51455307302598
_cell_angle_gamma    94.2903096071604

_space_group_name_H-M_alt    "P 1"
_space_group_IT_number       1

loop_
  _space_group_symop_operation_xyz
  'x, y, z'

loop_
  _atom_site_type_symbol
  _atom_site_label
  _atom_site_symmetry_multiplicity
  _atom_site_fract_x
  _atom_site_fract_y
  _atom_site_fract_z
  _atom_site_occupancy
  B   B1        1.0  0.8479979038238525  0.9017446041107178  0.591726541519165  1.0000
  B   B2        1.0  0.8579282760620117  0.5140523314476013  0.331429123878479  1.0000
  B   B3        1.0  0.854872465133667  0.49171656370162964  0.3299501836299896  1.0000
  Fe  Fe1       1.0  0.3229597806930542  0.8195838332176208  0.6066252589225769  1.0000
  Fe  Fe2       1.0  0.36610063910484314  0.13727296888828278  0.4510287046432495  1.0000
  Fe  Fe3       1.0  0.8471709489822388  0.9462298154830933  0.42424526810646057  1.0000
  Fe  Fe4       1.0  0.1620398908853531  0.08570844680070877  0.7487954497337341  1.0000
  Fe  Fe5       1.0  0.3489254415035248  0.9521729350090027  0.07972189784049988  1.0000
  Sm  Sm1       1.0  0.8421236872673035  0.5644412040710449  0.3390403687953949  1.0000
  Sm  Sm2       1.0  0.3554859757423401  0.9422922730445862  0.23383137583732605  1.0000
  Sm  Sm3       1.0  0.3611549139022827  0.8121452331542969  0.9458263516426086  1.0000
