data_image0
_chemical_formula_structural       GaIPbSb4TiU
_chemical_formula_sum              "Ga1 I1 Pb1 Sb4 Ti1 U1"
_cell_length_a       5.094129721671364
_cell_length_b       5.2911385937842335
_cell_length_c       6.494635581970215
_cell_angle_alpha    130.88143283601948
_cell_angle_beta     100.35476334732596
_cell_angle_gamma    91.43529396527902

_space_group_name_H-M_alt    "P 1"
_space_group_IT_number       1

loop_
  _space_group_symop_operation_xyz
  'x, y, z'

loop_
  _atom_site_type_symbol
  _atom_site_label
  _atom_site_symmetry_multiplicity
  _atom_site_fract_x
  _atom_site_fract_y
  _atom_site_fract_z
  _atom_site_occupancy
  Ga  Ga1       1.0  0.5216944217681885  0.32554149627685547  0.3747280538082123  1.0000
  I   I1        1.0  0.02589496411383152  0.04458264634013176  0.9817858338356018  1.0000
  Pb  Pb1       1.0  0.025798451155424118  0.2940588593482971  0.36777424812316895  1.0000
  Sb  Sb1       1.0  0.5264366269111633  0.8101577758789062  0.5032679438591002  1.0000
  Sb  Sb2       1.0  0.527948260307312  0.5901764035224915  0.21433325111865997  1.0000
  Sb  Sb3       1.0  0.5191704034805298  0.21153615415096283  0.565372884273529  1.0000
  Sb  Sb4       1.0  0.5246293544769287  0.8040527105331421  0.28689527511596674  1.0000
  Ti  Ti1       1.0  0.026164134964346886  0.743619441986084  0.4386597275733947  1.0000
  U   U1        1.0  0.5152400732040405  0.19318369030952454  0.08145896345376968  1.0000
