data_image0
_chemical_formula_structural       CoDy2HPbPtSb2Zn
_chemical_formula_sum              "Co1 Dy2 H1 Pb1 Pt1 Sb2 Zn1"
_cell_length_a       4.826193883192744
_cell_length_b       3.019405671604806
_cell_length_c       8.194635391235352
_cell_angle_alpha    105.76676108941061
_cell_angle_beta     91.04772270161726
_cell_angle_gamma    113.05211057451253

_space_group_name_H-M_alt    "P 1"
_space_group_IT_number       1

loop_
  _space_group_symop_operation_xyz
  'x, y, z'

loop_
  _atom_site_type_symbol
  _atom_site_label
  _atom_site_symmetry_multiplicity
  _atom_site_fract_x
  _atom_site_fract_y
  _atom_site_fract_z
  _atom_site_occupancy
  Co  Co1       1.0  0.9382901787757874  0.3550923466682434  0.10744617879390717  1.0000
  Dy  Dy1       1.0  0.4448109269142151  0.8504319787025452  0.4055788516998291  1.0000
  Dy  Dy2       1.0  0.9311036467552185  0.9050790667533875  0.683831512928009  1.0000
  H   H1        1.0  0.23814590275287628  0.5640761852264404  0.727421224117279  1.0000
  Pb  Pb1       1.0  0.9346958994865417  0.35756924748420715  0.7970349192619324  1.0000
  Pt  Pt1       1.0  0.9091343879699707  0.2200642228126526  0.030039383098483086  1.0000
  Sb  Sb1       1.0  0.44466689229011536  0.4165535867214203  0.9822656512260437  1.0000
  Sb  Sb2       1.0  0.9175549149513245  0.9936259984970092  0.8286841511726379  1.0000
  Zn  Zn1       1.0  0.4359782338142395  0.8078141212463379  0.7126942276954651  1.0000
