data_image0
_chemical_formula_structural       CdGaInLaLu2NbReTa
_chemical_formula_sum              "Cd1 Ga1 In1 La1 Lu2 Nb1 Re1 Ta1"
_cell_length_a       3.929985734012191
_cell_length_b       4.0273298217140745
_cell_length_c       9.389939308166504
_cell_angle_alpha    88.99029744288113
_cell_angle_beta     91.36402394080993
_cell_angle_gamma    90.53061490467059

_space_group_name_H-M_alt    "P 1"
_space_group_IT_number       1

loop_
  _space_group_symop_operation_xyz
  'x, y, z'

loop_
  _atom_site_type_symbol
  _atom_site_label
  _atom_site_symmetry_multiplicity
  _atom_site_fract_x
  _atom_site_fract_y
  _atom_site_fract_z
  _atom_site_occupancy
  Cd  Cd1       1.0  0.34807139635086054  0.2660701870918274  0.678719937801361  1.0000
  Ga  Ga1       1.0  0.8241300582885741  0.8380007147789001  0.6127488017082214  1.0000
  In  In1       1.0  0.32898336648941034  0.17980775237083435  0.11822797358036041  1.0000
  La  La1       1.0  0.8465309739112853  0.44370678067207336  0.8406147360801697  1.0000
  Lu  Lu1       1.0  0.3479337096214294  0.24678221344947815  0.16200363636016846  1.0000
  Lu  Lu2       1.0  0.8402906656265258  0.5187808871269226  0.8659719228744507  1.0000
  Nb  Nb1       1.0  0.8381128311157225  0.6603066921234131  0.780630886554718  1.0000
  Re  Re1       1.0  0.3422079384326934  0.16811500489711761  0.2805531620979309  1.0000
  Ta  Ta1       1.0  0.8230890631675719  0.4957946836948395  0.6227369904518127  1.0000
