data_image0
_chemical_formula_structural       CoILu2Re2Sb3
_chemical_formula_sum              "Co1 I1 Lu2 Re2 Sb3"
_cell_length_a       6.364585558450682
_cell_length_b       6.448226317048506
_cell_length_c       6.757338523864746
_cell_angle_alpha    91.64900926978324
_cell_angle_beta     88.77183818739654
_cell_angle_gamma    90.37967541261284

_space_group_name_H-M_alt    "P 1"
_space_group_IT_number       1

loop_
  _space_group_symop_operation_xyz
  'x, y, z'

loop_
  _atom_site_type_symbol
  _atom_site_label
  _atom_site_symmetry_multiplicity
  _atom_site_fract_x
  _atom_site_fract_y
  _atom_site_fract_z
  _atom_site_occupancy
  Co  Co1       1.0  0.05292424559593201  0.4968822598457337  0.24082446098327634  1.0000
  I   I1        1.0  0.8773549795150757  0.7925758957862855  0.022826587781310078  1.0000
  Lu  Lu1       1.0  0.39210906624794006  0.20879121124744418  0.11267001926898955  1.0000
  Lu  Lu2       1.0  0.8049371838569641  0.14080744981765747  0.2916199564933777  1.0000
  Re  Re1       1.0  0.3248235583305359  0.12864571809768677  0.32994791865348816  1.0000
  Re  Re2       1.0  0.38546520471572876  0.8734577298164369  0.5033069849014282  1.0000
  Sb  Sb1       1.0  0.9757961630821228  0.8360354900360109  0.04452460259199142  1.0000
  Sb  Sb2       1.0  0.38240569829940796  0.5127182602882385  0.6867170929908751  1.0000
  Sb  Sb3       1.0  0.38328918814659124  0.7313141226768495  0.07882000505924225  1.0000
