data_image0
_chemical_formula_structural       GeI2LuPtSb3Zn
_chemical_formula_sum              "Ge1 I2 Lu1 Pt1 Sb3 Zn1"
_cell_length_a       6.034512176809159
_cell_length_b       6.349236902199866
_cell_length_c       6.809009552001953
_cell_angle_alpha    91.43388657292408
_cell_angle_beta     89.58231058173922
_cell_angle_gamma    90.84600897916793

_space_group_name_H-M_alt    "P 1"
_space_group_IT_number       1

loop_
  _space_group_symop_operation_xyz
  'x, y, z'

loop_
  _atom_site_type_symbol
  _atom_site_label
  _atom_site_symmetry_multiplicity
  _atom_site_fract_x
  _atom_site_fract_y
  _atom_site_fract_z
  _atom_site_occupancy
  Ge  Ge1       1.0  0.0169944129884243  0.19343961775302887  0.39030489325523376  1.0000
  I   I1        1.0  0.7718252539634705  0.8542489409446716  0.46974125504493713  1.0000
  I   I2        1.0  0.2824154198169708  0.04390713945031166  0.44733697175979614  1.0000
  Lu  Lu1       1.0  0.03487531468272209  0.39705973863601685  0.6129025220870972  1.0000
  Pt  Pt1       1.0  0.021520841866731644  0.6180775165557861  0.022375699132680893  1.0000
  Sb  Sb1       1.0  0.24485167860984802  0.9328420758247374  0.43438294529914856  1.0000
  Sb  Sb2       1.0  0.02531793899834156  0.6671454310417175  0.6506379246711731  1.0000
  Sb  Sb3       1.0  0.5179532766342163  0.2351281642913818  0.2335493564605713  1.0000
  Zn  Zn1       1.0  0.769382894039154  0.09657935053110123  0.3206208050251007  1.0000
