data_image0
_chemical_formula_structural       BrF2GeLaNaSiSmZr
_chemical_formula_sum              "Br1 F2 Ge1 La1 Na1 Si1 Sm1 Zr1"
_cell_length_a       5.957777473635241
_cell_length_b       5.938550886098632
_cell_length_c       5.92356014251709
_cell_angle_alpha    100.64824779036998
_cell_angle_beta     100.42344384148252
_cell_angle_gamma    100.22873109235533

_space_group_name_H-M_alt    "P 1"
_space_group_IT_number       1

loop_
  _space_group_symop_operation_xyz
  'x, y, z'

loop_
  _atom_site_type_symbol
  _atom_site_label
  _atom_site_symmetry_multiplicity
  _atom_site_fract_x
  _atom_site_fract_y
  _atom_site_fract_z
  _atom_site_occupancy
  Br  Br1       1.0  0.1385003924369812  0.8408413529396057  0.7475641965866089  1.0000
  F   F1        1.0  0.037547364830970764  0.21471647918224335  0.1867716908454895  1.0000
  F   F2        1.0  0.55587238073349  0.21403080224990845  0.1872640997171402  1.0000
  Ge  Ge1       1.0  0.7325993180274963  0.36368340253829956  0.787903368473053  1.0000
  La  La1       1.0  0.7055044770240784  0.8996263742446899  0.9548928737640381  1.0000
  Na  Na1       1.0  0.31125497817993164  0.06919781118631363  0.4036685824394226  1.0000
  Si  Si1       1.0  0.5561711192131042  0.71877521276474  0.3619140684604645  1.0000
  Sm  Sm1       1.0  0.2651468515396118  0.39937546849250793  0.9504914879798889  1.0000
  Zr  Zr1       1.0  0.8769252300262451  0.47074225544929504  0.37347137928009033  1.0000
