data_image0
_chemical_formula_structural       ClCoGeHHgNaSmTeZr
_chemical_formula_sum              "Cl1 Co1 Ge1 H1 Hg1 Na1 Sm1 Te1 Zr1"
_cell_length_a       5.866567683226712
_cell_length_b       5.860734501188936
_cell_length_c       5.873828411102295
_cell_angle_alpha    101.5188504483713
_cell_angle_beta     100.80826566426238
_cell_angle_gamma    99.91242082291946

_space_group_name_H-M_alt    "P 1"
_space_group_IT_number       1

loop_
  _space_group_symop_operation_xyz
  'x, y, z'

loop_
  _atom_site_type_symbol
  _atom_site_label
  _atom_site_symmetry_multiplicity
  _atom_site_fract_x
  _atom_site_fract_y
  _atom_site_fract_z
  _atom_site_occupancy
  Cl  Cl1       1.0  0.13129478693008423  0.31213536858558655  0.40284520387649536  1.0000
  Co  Co1       1.0  0.1455497145652771  0.8492803573608398  0.9972345232963562  1.0000
  Ge  Ge1       1.0  0.8753370046615601  0.5401200652122498  0.9961361289024353  1.0000
  H   H1        1.0  0.2980697453022003  0.9933021664619446  0.8068528771400452  1.0000
  Hg  Hg1       1.0  0.7901135683059692  0.026946941390633583  0.8145125508308411  1.0000
  Na  Na1       1.0  0.6546620726585388  0.3865046501159668  0.4556525945663452  1.0000
  Sm  Sm1       1.0  0.3447648584842682  0.3947838246822357  0.9278983473777771  1.0000
  Te  Te1       1.0  0.5456863641738892  0.8482407927513123  0.28442996740341187  1.0000
  Zr  Zr1       1.0  0.12286505848169327  0.8321076035499573  0.4556371569633484  1.0000
