data_image0
_chemical_formula_structural       Co4NaOSm2Tm
_chemical_formula_sum              "Co4 Na1 O1 Sm2 Tm1"
_cell_length_a       3.9925015051304604
_cell_length_b       5.851774146824392
_cell_length_c       8.308206558227539
_cell_angle_alpha    106.96065634918536
_cell_angle_beta     90.0282326163263
_cell_angle_gamma    109.96113325287675

_space_group_name_H-M_alt    "P 1"
_space_group_IT_number       1

loop_
  _space_group_symop_operation_xyz
  'x, y, z'

loop_
  _atom_site_type_symbol
  _atom_site_label
  _atom_site_symmetry_multiplicity
  _atom_site_fract_x
  _atom_site_fract_y
  _atom_site_fract_z
  _atom_site_occupancy
  Co  Co1       1.0  0.8875248432159424  0.14488163590431213  0.9473102092742921  1.0000
  Co  Co2       1.0  0.6980603933334351  0.750094473361969  0.2855021059513092  1.0000
  Co  Co3       1.0  0.07604044675827026  0.5018572807312012  0.2104669213294983  1.0000
  Co  Co4       1.0  0.23863762617111206  0.8328319191932678  0.4393857717514037  1.0000
  Na  Na1       1.0  0.5903427004814148  0.5255513787269592  0.5357851386070251  1.0000
  O   O1        1.0  0.27601295709609985  0.9003057479858398  0.7988094687461854  1.0000
  Sm  Sm1       1.0  0.581778883934021  0.524443507194519  0.9374077320098877  1.0000
  Sm  Sm2       1.0  0.3854249119758606  0.11373298615217209  0.18945297598838806  1.0000
  Tm  Tm1       1.0  0.8851593732833862  0.12785133719444275  0.6004016995429994  1.0000
