data_image0
_chemical_formula_structural       La2P2PrSiTe
_chemical_formula_sum              "La2 P2 Pr1 Si1 Te1"
_cell_length_a       4.569423205273056
_cell_length_b       4.737021100122376
_cell_length_c       10.607623100280762
_cell_angle_alpha    89.3603707616078
_cell_angle_beta     89.88001023469107
_cell_angle_gamma    100.83711290340165

_space_group_name_H-M_alt    "P 1"
_space_group_IT_number       1

loop_
  _space_group_symop_operation_xyz
  'x, y, z'

loop_
  _atom_site_type_symbol
  _atom_site_label
  _atom_site_symmetry_multiplicity
  _atom_site_fract_x
  _atom_site_fract_y
  _atom_site_fract_z
  _atom_site_occupancy
  La  La1       1.0  0.20593219995498657  0.4105992913246155  0.4948813617229461  1.0000
  La  La2       1.0  0.9868239760398865  0.7515778541564941  0.7913771271705627  1.0000
  P   P1        1.0  0.9906697869300842  0.7560774683952332  0.1613791435956955  1.0000
  P   P2        1.0  0.5784158706665039  0.09117261320352554  0.24322810769081116  1.0000
  Pr  Pr1       1.0  0.9778618812561035  0.7455236911773682  0.09042659401893616  1.0000
  Si  Si1       1.0  0.26623162627220154  0.49236398935317993  0.38851398229599  1.0000
  Te  Te1       1.0  0.5341278314590454  0.25167420506477356  0.877021849155426  1.0000
