data_image0
_chemical_formula_structural       Cu2P2TaTeTi
_chemical_formula_sum              "Cu2 P2 Ta1 Te1 Ti1"
_cell_length_a       4.097973113308174
_cell_length_b       4.8742327338388005
_cell_length_c       9.017716407775879
_cell_angle_alpha    89.52577403990637
_cell_angle_beta     89.64873149537442
_cell_angle_gamma    102.43851263766639

_space_group_name_H-M_alt    "P 1"
_space_group_IT_number       1

loop_
  _space_group_symop_operation_xyz
  'x, y, z'

loop_
  _atom_site_type_symbol
  _atom_site_label
  _atom_site_symmetry_multiplicity
  _atom_site_fract_x
  _atom_site_fract_y
  _atom_site_fract_z
  _atom_site_occupancy
  Cu  Cu1       1.0  0.570229172706604  0.7080091834068298  0.05444281920790672  1.0000
  Cu  Cu2       1.0  0.9124183058738708  0.22058792412281036  0.8277417421340942  1.0000
  P   P1        1.0  0.0007072687149047852  0.702975869178772  0.17370149493217468  1.0000
  P   P2        1.0  0.389293372631073  0.7636345624923706  0.9113811254501343  1.0000
  Ta  Ta1       1.0  0.0067098140716552734  0.9570785760879517  0.5473739504814148  1.0000
  Te  Te1       1.0  0.5346735119819641  0.4642861783504486  0.3840327262878418  1.0000
  Ti  Ti1       1.0  0.5316388607025146  0.9659528732299805  0.5319641828536987  1.0000
