data_image0
_chemical_formula_structural       BaCuPPbPtTeTi
_chemical_formula_sum              "Ba1 Cu1 P1 Pb1 Pt1 Te1 Ti1"
_cell_length_a       4.62517601202388
_cell_length_b       5.558306308941811
_cell_length_c       9.101313591003418
_cell_angle_alpha    109.23754898297132
_cell_angle_beta     97.96159647892782
_cell_angle_gamma    88.80271317602678

_space_group_name_H-M_alt    "P 1"
_space_group_IT_number       1

loop_
  _space_group_symop_operation_xyz
  'x, y, z'

loop_
  _atom_site_type_symbol
  _atom_site_label
  _atom_site_symmetry_multiplicity
  _atom_site_fract_x
  _atom_site_fract_y
  _atom_site_fract_z
  _atom_site_occupancy
  Ba  Ba1       1.0  0.9619170427322388  0.4826350510120392  0.3738009035587311  1.0000
  Cu  Cu1       1.0  0.4477812945842743  0.5902299880981445  0.2220059484243393  1.0000
  P   P1        1.0  0.8709349632263184  0.5810670256614685  0.6984178423881531  1.0000
  Pb  Pb1       1.0  0.3918010890483856  0.49163636565208435  0.4814080595970154  1.0000
  Pt  Pt1       1.0  0.752566397190094  0.947544276714325  0.39635592699050903  1.0000
  Te  Te1       1.0  0.9051764011383057  0.45232701301574707  0.21314716339111328  1.0000
  Ti  Ti1       1.0  0.43163344264030457  0.062087282538414  0.6691356897354126  1.0000
