data_image0
_chemical_formula_structural       FPb2SbTe3
_chemical_formula_sum              "F1 Pb2 Sb1 Te3"
_cell_length_a       4.607891853318838
_cell_length_b       4.817719070825499
_cell_length_c       11.422584533691406
_cell_angle_alpha    92.39571705515932
_cell_angle_beta     93.8366128368788
_cell_angle_gamma    113.32857497034001

_space_group_name_H-M_alt    "P 1"
_space_group_IT_number       1

loop_
  _space_group_symop_operation_xyz
  'x, y, z'

loop_
  _atom_site_type_symbol
  _atom_site_label
  _atom_site_symmetry_multiplicity
  _atom_site_fract_x
  _atom_site_fract_y
  _atom_site_fract_z
  _atom_site_occupancy
  F   F1        1.0  0.766011655330658  0.5920639634132385  0.07054157555103302  1.0000
  Pb  Pb1       1.0  0.8043716549873352  0.3751477599143982  0.719811737537384  1.0000
  Pb  Pb2       1.0  0.41261836886405945  0.3666686713695526  0.04751666635274887  1.0000
  Sb  Sb1       1.0  0.42846131324768066  0.03521358221769333  0.5305953621864319  1.0000
  Te  Te1       1.0  0.11955314874649048  0.030209211632609367  0.7329196929931641  1.0000
  Te  Te2       1.0  0.40709158778190613  0.04849133640527725  0.7901626229286194  1.0000
  Te  Te3       1.0  0.08003238588571548  0.8555895686149597  0.2222021073102951  1.0000
