data_image0
_chemical_formula_structural       BaCuPbPt2SeTe
_chemical_formula_sum              "Ba1 Cu1 Pb1 Pt2 Se1 Te1"
_cell_length_a       4.263505818789496
_cell_length_b       7.391629214149121
_cell_length_c       7.967919826507568
_cell_angle_alpha    120.6248865316266
_cell_angle_beta     89.84729802523275
_cell_angle_gamma    90.65368951441005

_space_group_name_H-M_alt    "P 1"
_space_group_IT_number       1

loop_
  _space_group_symop_operation_xyz
  'x, y, z'

loop_
  _atom_site_type_symbol
  _atom_site_label
  _atom_site_symmetry_multiplicity
  _atom_site_fract_x
  _atom_site_fract_y
  _atom_site_fract_z
  _atom_site_occupancy
  Ba  Ba1       1.0  0.8932577967643738  0.2516801655292511  0.6089639663696289  1.0000
  Cu  Cu1       1.0  0.3882615566253662  0.2246144860982895  0.11155607551336288  1.0000
  Pb  Pb1       1.0  0.4024290442466736  0.23115412890911102  0.07820143550634384  1.0000
  Pt  Pt1       1.0  0.8942135572433472  0.1620919406414032  0.3634515106678009  1.0000
  Pt  Pt2       1.0  0.3932274281978607  0.7102144360542297  0.8226289749145508  1.0000
  Se  Se1       1.0  0.8917890787124634  0.8931183218955994  0.5017141103744507  1.0000
  Te  Te1       1.0  0.8840410709381104  0.7245272994041443  0.6719193458557129  1.0000
