data_image0
_chemical_formula_structural       PPr4S2
_chemical_formula_sum              "P1 Pr4 S2"
_cell_length_a       5.315320004617659
_cell_length_b       5.474939337132568
_cell_length_c       7.3088765144348145
_cell_angle_alpha    92.8158328056964
_cell_angle_beta     89.67622590217889
_cell_angle_gamma    88.61138886432816

_space_group_name_H-M_alt    "P 1"
_space_group_IT_number       1

loop_
  _space_group_symop_operation_xyz
  'x, y, z'

loop_
  _atom_site_type_symbol
  _atom_site_label
  _atom_site_symmetry_multiplicity
  _atom_site_fract_x
  _atom_site_fract_y
  _atom_site_fract_z
  _atom_site_occupancy
  P   P1        1.0  0.7558554410934448  0.8252589106559752  0.9508150219917296  1.0000
  Pr  Pr1       1.0  0.2603459060192108  0.5790464282035828  0.7467343807220458  1.0000
  Pr  Pr2       1.0  0.2577465772628784  0.07991180568933487  0.7115787267684935  1.0000
  Pr  Pr3       1.0  0.2637585401535034  0.5825715661048889  0.45506408810615534  1.0000
  Pr  Pr4       1.0  0.7547390460968018  0.08286291360855103  0.71588796377182  1.0000
  S   S1        1.0  0.05809884518384933  0.6041049957275391  0.021605273708701134  1.0000
  S   S2        1.0  0.5922142863273621  0.3291001617908478  0.05927798897027969  1.0000
