data_image0
_chemical_formula_structural       AgBrNp2Pr2Ru
_chemical_formula_sum              "Ag1 Br1 Np2 Pr2 Ru1"
_cell_length_a       5.669261693529081
_cell_length_b       6.034074177512372
_cell_length_c       8.170014381408691
_cell_angle_alpha    90.90179654515798
_cell_angle_beta     90.0287723857577
_cell_angle_gamma    96.73373648789976

_space_group_name_H-M_alt    "P 1"
_space_group_IT_number       1

loop_
  _space_group_symop_operation_xyz
  'x, y, z'

loop_
  _atom_site_type_symbol
  _atom_site_label
  _atom_site_symmetry_multiplicity
  _atom_site_fract_x
  _atom_site_fract_y
  _atom_site_fract_z
  _atom_site_occupancy
  Ag  Ag1       1.0  0.3807164430618286  0.23446646332740784  0.0996805876493454  1.0000
  Br  Br1       1.0  0.9057206511497498  0.22027194499969482  0.8043496608734131  1.0000
  Np  Np1       1.0  0.363917738199234  0.721489667892456  0.0982348695397377  1.0000
  Np  Np2       1.0  0.8800865411758423  0.7338553667068481  0.10299000144004822  1.0000
  Pr  Pr1       1.0  0.3542991280555725  0.7144827842712402  0.5995473861694336  1.0000
  Pr  Pr2       1.0  0.862727165222168  0.8080238699913025  0.6037546396255493  1.0000
  Ru  Ru1       1.0  0.03629959747195244  0.230882465839386  0.1088833287358284  1.0000
