data_image0
_chemical_formula_structural       Cs2Li5Mg2Zn
_chemical_formula_sum              "Cs2 Li5 Mg2 Zn1"
_cell_length_a       5.676176121960059
_cell_length_b       5.832190544922592
_cell_length_c       6.337817192077637
_cell_angle_alpha    63.42133623218096
_cell_angle_beta     61.56279865019159
_cell_angle_gamma    60.682387415450044

_space_group_name_H-M_alt    "P 1"
_space_group_IT_number       1

loop_
  _space_group_symop_operation_xyz
  'x, y, z'

loop_
  _atom_site_type_symbol
  _atom_site_label
  _atom_site_symmetry_multiplicity
  _atom_site_fract_x
  _atom_site_fract_y
  _atom_site_fract_z
  _atom_site_occupancy
  Cs  Cs1       1.0  0.9940999746322632  0.04145141318440437  0.892808198928833  1.0000
  Cs  Cs2       1.0  0.5208290815353394  0.5319935083389282  0.9154532551765442  1.0000
  Li  Li1       1.0  0.9934042692184448  0.7723303437232971  0.41198065876960754  1.0000
  Li  Li2       1.0  0.48657238483428955  0.22098921239376068  0.16855527460575107  1.0000
  Li  Li3       1.0  0.525712251663208  0.5362879037857056  0.16764786839485168  1.0000
  Li  Li4       1.0  0.8298448920249939  0.41919416189193726  0.662093460559845  1.0000
  Li  Li5       1.0  0.8254401087760925  0.9142491221427917  0.6612090468406677  1.0000
  Mg  Mg1       1.0  0.461557000875473  0.8987135887145996  0.16150203347206116  1.0000
  Mg  Mg2       1.0  0.339933842420578  0.9067015051841736  0.3994521200656891  1.0000
  Zn  Zn1       1.0  0.01587686315178871  0.2374294251203537  0.12683841586112976  1.0000
