data_image0
_chemical_formula_structural       Cs2Li4Mg2NiZn
_chemical_formula_sum              "Cs2 Li4 Mg2 Ni1 Zn1"
_cell_length_a       5.876262625735492
_cell_length_b       6.0289502227928145
_cell_length_c       6.254188537597656
_cell_angle_alpha    62.36281523329722
_cell_angle_beta     60.99194135137889
_cell_angle_gamma    59.70521224800717

_space_group_name_H-M_alt    "P 1"
_space_group_IT_number       1

loop_
  _space_group_symop_operation_xyz
  'x, y, z'

loop_
  _atom_site_type_symbol
  _atom_site_label
  _atom_site_symmetry_multiplicity
  _atom_site_fract_x
  _atom_site_fract_y
  _atom_site_fract_z
  _atom_site_occupancy
  Cs  Cs1       1.0  0.07461554557085037  0.0475035086274147  0.6935375928878784  1.0000
  Cs  Cs2       1.0  0.2632514238357544  0.6613246202468872  0.9831439852714539  1.0000
  Li  Li1       1.0  0.07401639968156815  0.0481516532599926  0.7395434975624084  1.0000
  Li  Li2       1.0  0.7597426176071167  0.20584996044635773  0.00033629880636002694  1.0000
  Li  Li3       1.0  0.5828803181648254  0.048000626266002655  0.2581871449947357  1.0000
  Li  Li4       1.0  0.5452854037284851  0.5549005270004272  0.97580486536026  1.0000
  Mg  Mg1       1.0  0.7437790036201477  0.7060052156448364  0.9878706932067871  1.0000
  Mg  Mg2       1.0  0.3212747573852539  0.20802456140518188  0.2722349464893341  1.0000
  Ni  Ni1       1.0  0.7785449624061584  0.7150865793228149  0.5094223618507385  1.0000
  Zn  Zn1       1.0  0.04878775030374527  0.9446893930435181  0.4593021273612976  1.0000
