data_image0
_chemical_formula_structural       GeLi5MgNiZn2
_chemical_formula_sum              "Ge1 Li5 Mg1 Ni1 Zn2"
_cell_length_a       5.472765881563883
_cell_length_b       5.893837748676532
_cell_length_c       6.115172386169434
_cell_angle_alpha    64.16212508250041
_cell_angle_beta     62.40872771526176
_cell_angle_gamma    62.04144598344478

_space_group_name_H-M_alt    "P 1"
_space_group_IT_number       1

loop_
  _space_group_symop_operation_xyz
  'x, y, z'

loop_
  _atom_site_type_symbol
  _atom_site_label
  _atom_site_symmetry_multiplicity
  _atom_site_fract_x
  _atom_site_fract_y
  _atom_site_fract_z
  _atom_site_occupancy
  Ge  Ge1       1.0  0.37460070848464966  0.7976667284965515  0.7881432771682738  1.0000
  Li  Li1       1.0  0.8558096289634705  0.29499414563179016  0.6783944368362427  1.0000
  Li  Li2       1.0  0.190243661403656  0.12751436233520508  0.5047907829284668  1.0000
  Li  Li3       1.0  0.613679826259613  0.8830326795578003  0.47588384151458735  1.0000
  Li  Li4       1.0  0.13320742547512054  0.8108779788017273  0.20319545269012448  1.0000
  Li  Li5       1.0  0.8859881162643433  0.1167091429233551  0.42697507143020624  1.0000
  Mg  Mg1       1.0  0.6066826581954956  0.8066622018814087  0.9760191440582274  1.0000
  Ni  Ni1       1.0  0.17630469799041748  0.6233789324760437  0.9308979511260985  1.0000
  Zn  Zn1       1.0  0.31822794675827026  0.40584275126457214  0.08248531818389893  1.0000
  Zn  Zn2       1.0  0.7808200716972351  0.27843913435935974  0.0740874856710434  1.0000
