data_image0
_chemical_formula_structural       Li4Mg6
_chemical_formula_sum              "Li4 Mg6"
_cell_length_a       5.13866226049177
_cell_length_b       5.4682039195727015
_cell_length_c       5.2656097412109375
_cell_angle_alpha    69.02871707129478
_cell_angle_beta     67.01618485402278
_cell_angle_gamma    63.91998270143802

_space_group_name_H-M_alt    "P 1"
_space_group_IT_number       1

loop_
  _space_group_symop_operation_xyz
  'x, y, z'

loop_
  _atom_site_type_symbol
  _atom_site_label
  _atom_site_symmetry_multiplicity
  _atom_site_fract_x
  _atom_site_fract_y
  _atom_site_fract_z
  _atom_site_occupancy
  Li  Li1       1.0  0.5176631212234497  0.13140654563903809  0.36268505454063416  1.0000
  Li  Li2       1.0  0.8655531406402588  0.7808484435081482  0.25404736399650574  1.0000
  Li  Li3       1.0  0.15133313834667206  0.5651980638504028  0.7651023864746094  1.0000
  Li  Li4       1.0  0.3408248722553253  0.2878219187259674  0.48431202769279486  1.0000
  Mg  Mg1       1.0  0.19065922498703003  0.030223634093999863  0.11794427782297134  1.0000
  Mg  Mg2       1.0  0.5152662396430969  0.11447687447071075  0.6016884446144104  1.0000
  Mg  Mg3       1.0  0.8937832117080688  0.2710105776786804  0.6084387302398682  1.0000
  Mg  Mg4       1.0  0.8458399772644043  0.702383816242218  0.04273544251918793  1.0000
  Mg  Mg5       1.0  0.5150951147079468  0.6600792407989502  0.825652003288269  1.0000
  Mg  Mg6       1.0  0.882368266582489  0.7684171199798584  0.5111938118934631  1.0000
