data_image0
_chemical_formula_structural       Li6Mg4
_chemical_formula_sum              "Li6 Mg4"
_cell_length_a       5.744301608678246
_cell_length_b       5.693170377143023
_cell_length_c       6.1251020431518555
_cell_angle_alpha    64.66985546858834
_cell_angle_beta     61.35071459168754
_cell_angle_gamma    60.57500041383634

_space_group_name_H-M_alt    "P 1"
_space_group_IT_number       1

loop_
  _space_group_symop_operation_xyz
  'x, y, z'

loop_
  _atom_site_type_symbol
  _atom_site_label
  _atom_site_symmetry_multiplicity
  _atom_site_fract_x
  _atom_site_fract_y
  _atom_site_fract_z
  _atom_site_occupancy
  Li  Li1       1.0  0.05711706355214119  0.6290897727012634  0.11240182816982269  1.0000
  Li  Li2       1.0  0.39250174164772034  0.7772125601768494  0.9222273826599121  1.0000
  Li  Li3       1.0  0.8238612413406372  0.28844770789146423  0.8941129446029663  1.0000
  Li  Li4       1.0  0.9020470976829529  0.27968040108680725  0.6115874648094177  1.0000
  Li  Li5       1.0  0.900209903717041  0.7917728424072266  0.7310606837272644  1.0000
  Li  Li6       1.0  0.3912432789802551  0.7412350177764893  0.5996953248977661  1.0000
  Mg  Mg1       1.0  0.03636917844414711  0.7808639407157898  0.40398991107940674  1.0000
  Mg  Mg2       1.0  0.06601670384407043  0.1454811543226242  0.10959193855524063  1.0000
  Mg  Mg3       1.0  0.4032621681690216  0.27640780806541443  0.6113499999046326  1.0000
  Mg  Mg4       1.0  0.3838997185230255  0.7738827466964722  0.26100459694862366  1.0000
