data_image0
_chemical_formula_structural       CsLi5Mg2Zn2
_chemical_formula_sum              "Cs1 Li5 Mg2 Zn2"
_cell_length_a       5.570022583834953
_cell_length_b       6.010267523182574
_cell_length_c       6.016529083251953
_cell_angle_alpha    63.54379896223692
_cell_angle_beta     61.458504607196176
_cell_angle_gamma    59.024004577237875

_space_group_name_H-M_alt    "P 1"
_space_group_IT_number       1

loop_
  _space_group_symop_operation_xyz
  'x, y, z'

loop_
  _atom_site_type_symbol
  _atom_site_label
  _atom_site_symmetry_multiplicity
  _atom_site_fract_x
  _atom_site_fract_y
  _atom_site_fract_z
  _atom_site_occupancy
  Cs  Cs1       1.0  0.22092695534229279  0.34899309277534485  0.20174045860767365  1.0000
  Li  Li1       1.0  0.8161504864692688  0.3602767586708069  0.31464967131614685  1.0000
  Li  Li2       1.0  0.20044632256031036  0.36927491426467896  0.12138441205024719  1.0000
  Li  Li3       1.0  0.21718958020210266  0.3636120557785034  0.28757768869400024  1.0000
  Li  Li4       1.0  0.519855260848999  0.8817359209060669  0.8715460300445557  1.0000
  Li  Li5       1.0  0.708687424659729  0.8660236597061157  0.6665747761726379  1.0000
  Mg  Mg1       1.0  0.888174831867218  0.08359591662883759  0.29870304465293884  1.0000
  Mg  Mg2       1.0  0.5409849882125854  0.6501483917236328  0.8814007043838501  1.0000
  Zn  Zn1       1.0  0.18525052070617676  0.870259165763855  0.806091845035553  1.0000
  Zn  Zn2       1.0  0.25408732891082764  0.5889630913734436  0.9703763723373413  1.0000
