data_image0
_chemical_formula_structural       AsGe3H6NPbRu
_chemical_formula_sum              "As1 Ge3 H6 N1 Pb1 Ru1"
_cell_length_a       4.904560871290042
_cell_length_b       6.864041318533983
_cell_length_c       6.842301368713379
_cell_angle_alpha    115.87247647806117
_cell_angle_beta     89.8852160441633
_cell_angle_gamma    89.32378469197654

_space_group_name_H-M_alt    "P 1"
_space_group_IT_number       1

loop_
  _space_group_symop_operation_xyz
  'x, y, z'

loop_
  _atom_site_type_symbol
  _atom_site_label
  _atom_site_symmetry_multiplicity
  _atom_site_fract_x
  _atom_site_fract_y
  _atom_site_fract_z
  _atom_site_occupancy
  As  As1       1.0  0.508021891117096  0.5388527512550354  0.4753332436084747  1.0000
  Ge  Ge1       1.0  0.5145422220230103  0.20091260969638824  0.9046436548233031  1.0000
  Ge  Ge2       1.0  0.004434359259903428  0.9917780160903932  0.5055452585220337  1.0000
  Ge  Ge3       1.0  0.006259082816541195  0.3395742177963257  0.34388577938079834  1.0000
  H   H1        1.0  0.5161381363868713  0.44509872794151306  0.641201376914978  1.0000
  H   H2        1.0  0.9904603958129883  0.8090528845787048  0.24887251853942877  1.0000
  H   H3        1.0  0.5036041736602783  0.5178616046905518  0.4849832355976104  1.0000
  H   H4        1.0  0.5255171060562134  0.561882495880127  0.9644055366516112  1.0000
  H   H5        1.0  0.5033277273178101  0.4273937940597534  0.07580836862325671  1.0000
  H   H6        1.0  0.2824387848377228  0.0988532304763794  0.4472836852073669  1.0000
  N   N1        1.0  0.000513911247253418  0.41376084089279175  0.37124642729759216  1.0000
  Pb  Pb1       1.0  0.012242713943123817  0.02793169394135475  0.4473770856857299  1.0000
  Ru  Ru1       1.0  0.009057039394974709  0.707878589630127  0.40330842137336737  1.0000
