data_image0
_chemical_formula_structural       CdH7Pt4Zn
_chemical_formula_sum              "Cd1 H7 Pt4 Zn1"
_cell_length_a       5.191563121028607
_cell_length_b       5.26458447411998
_cell_length_c       5.6371331214904785
_cell_angle_alpha    136.16876253682503
_cell_angle_beta     89.3836322518335
_cell_angle_gamma    89.09518165237905

_space_group_name_H-M_alt    "P 1"
_space_group_IT_number       1

loop_
  _space_group_symop_operation_xyz
  'x, y, z'

loop_
  _atom_site_type_symbol
  _atom_site_label
  _atom_site_symmetry_multiplicity
  _atom_site_fract_x
  _atom_site_fract_y
  _atom_site_fract_z
  _atom_site_occupancy
  Cd  Cd1       1.0  0.3667876124382019  0.8161281347274781  0.9539079666137695  1.0000
  H   H1        1.0  0.8912976980209351  0.1687233150005341  0.6937049627304077  1.0000
  H   H2        1.0  0.40018031001091003  0.1338906288146973  0.6673948168754578  1.0000
  H   H3        1.0  0.3878411650657654  0.9717645645141602  0.3661277890205382  1.0000
  H   H4        1.0  0.9030829071998596  0.10199754685163501  0.3136900067329407  1.0000
  H   H5        1.0  0.37302660942077637  0.6052548289299012  0.20539800822734833  1.0000
  H   H6        1.0  0.40478301048278803  0.4777176678180695  0.7140132784843445  1.0000
  H   H7        1.0  0.8836004137992859  0.08240385353565213  0.3154718875885009  1.0000
  Pt  Pt1       1.0  0.8893617987632751  0.18228974938392634  0.851309061050415  1.0000
  Pt  Pt2       1.0  0.8999966979026794  0.6915137767791748  0.7000765800476073  1.0000
  Pt  Pt3       1.0  0.896186888217926  0.5327608585357666  0.8560741543769836  1.0000
  Pt  Pt4       1.0  0.4058842360973358  0.37701946496963484  0.7976202964782714  1.0000
  Zn  Zn1       1.0  0.8981754779815674  0.2130833864212036  0.2969002425670624  1.0000
