data_image0
_chemical_formula_structural       Cl2H5Rh6
_chemical_formula_sum              "Cl2 H5 Rh6"
_cell_length_a       6.175960022393281
_cell_length_b       5.967405910753291
_cell_length_c       6.467194080352783
_cell_angle_alpha    59.94471381665146
_cell_angle_beta     64.43744601689576
_cell_angle_gamma    57.62148490095213

_space_group_name_H-M_alt    "P 1"
_space_group_IT_number       1

loop_
  _space_group_symop_operation_xyz
  'x, y, z'

loop_
  _atom_site_type_symbol
  _atom_site_label
  _atom_site_symmetry_multiplicity
  _atom_site_fract_x
  _atom_site_fract_y
  _atom_site_fract_z
  _atom_site_occupancy
  Cl  Cl1       1.0  0.3272390365600586  0.36737576127052307  0.5405974388122559  1.0000
  Cl  Cl2       1.0  0.4777628481388092  0.14068913459777832  0.9723913073539734  1.0000
  H   H1        1.0  0.9685914516448975  0.7853472828865051  0.9228298664093018  1.0000
  H   H2        1.0  0.19052769243717194  0.09416372328996658  0.35183465480804443  1.0000
  H   H3        1.0  0.8139235973358154  0.2790980637073517  0.08234265446662903  1.0000
  H   H4        1.0  0.1887064427137375  0.825681209564209  0.7606255412101746  1.0000
  H   H5        1.0  0.9235085844993591  0.5961408019065857  0.6792673468589783  1.0000
  Rh  Rh1       1.0  0.053009528666734695  0.28349336981773376  0.7080017328262329  1.0000
  Rh  Rh2       1.0  0.20142626762390137  0.591752827167511  0.9278373718261719  1.0000
  Rh  Rh3       1.0  0.6934164762496948  0.12804637849330902  0.2646927535533905  1.0000
  Rh  Rh4       1.0  0.6773154139518738  0.9707066416740417  0.924958348274231  1.0000
  Rh  Rh5       1.0  0.7050555944442749  0.12004006654024124  0.6263166666030884  1.0000
  Rh  Rh6       1.0  0.2154710441827774  0.6754228472709656  0.8931773900985718  1.0000
