data_image0
_chemical_formula_structural       ClH8NOPPt
_chemical_formula_sum              "Cl1 H8 N1 O1 P1 Pt1"
_cell_length_a       5.534069870286692
_cell_length_b       5.8889054128574125
_cell_length_c       7.127516269683838
_cell_angle_alpha    71.72513931787091
_cell_angle_beta     75.58005106339556
_cell_angle_gamma    72.51485735264923

_space_group_name_H-M_alt    "P 1"
_space_group_IT_number       1

loop_
  _space_group_symop_operation_xyz
  'x, y, z'

loop_
  _atom_site_type_symbol
  _atom_site_label
  _atom_site_symmetry_multiplicity
  _atom_site_fract_x
  _atom_site_fract_y
  _atom_site_fract_z
  _atom_site_occupancy
  Cl  Cl1       1.0  0.3336511254310608  0.1894245445728302  0.3060602843761444  1.0000
  H   H1        1.0  0.8524361252784729  0.5528074502944946  0.08137505501508713  1.0000
  H   H2        1.0  0.6777768135070801  0.8038192391395569  0.609551727771759  1.0000
  H   H3        1.0  0.341674268245697  0.112674780189991  0.027127757668495178  1.0000
  H   H4        1.0  0.852823793888092  0.17657196521759033  0.45723727345466614  1.0000
  H   H5        1.0  0.24236847460269928  0.721793532371521  0.6011829376220703  1.0000
  H   H6        1.0  0.34034717082977295  0.32512161135673523  0.40736445784568787  1.0000
  H   H7        1.0  0.3227078914642334  0.6671545505523682  0.7500110268592834  1.0000
  H   H8        1.0  0.8339794874191284  0.43491703271865845  0.7612876296043396  1.0000
  N   N1        1.0  0.25097107887268066  0.7916179895401001  0.9040996432304382  1.0000
  O   O1        1.0  0.10074493288993835  0.6075089573860168  0.28802937269210815  1.0000
  P   P1        1.0  0.5917967557907104  0.7093002796173096  0.7415315508842468  1.0000
  Pt  Pt1       1.0  0.8266057968139648  0.9406302571296692  0.3580348789691925  1.0000
