data_image0
_chemical_formula_structural       CoGeH4InLaN2PbPt2
_chemical_formula_sum              "Co1 Ge1 H4 In1 La1 N2 Pb1 Pt2"
_cell_length_a       5.673187073696705
_cell_length_b       6.522968041160961
_cell_length_c       8.13815689086914
_cell_angle_alpha    89.99525036027765
_cell_angle_beta     89.59473452336196
_cell_angle_gamma    105.71757395202319

_space_group_name_H-M_alt    "P 1"
_space_group_IT_number       1

loop_
  _space_group_symop_operation_xyz
  'x, y, z'

loop_
  _atom_site_type_symbol
  _atom_site_label
  _atom_site_symmetry_multiplicity
  _atom_site_fract_x
  _atom_site_fract_y
  _atom_site_fract_z
  _atom_site_occupancy
  Co  Co1       1.0  0.7047283053398132  0.8518436551094055  0.33740586042404175  1.0000
  Ge  Ge1       1.0  0.20286540687084198  0.0036924683954566717  0.7564018964767456  1.0000
  H   H1        1.0  0.21945062279701233  0.14244885742664337  0.5604104995727539  1.0000
  H   H2        1.0  0.7311500310897827  0.653075635433197  0.7337602376937866  1.0000
  H   H3        1.0  0.21018557250499725  0.9851531386375427  0.8128083348274231  1.0000
  H   H4        1.0  0.7275747656822205  0.09611086547374725  0.4984302222728729  1.0000
  In  In1       1.0  0.21413350105285645  0.6472415328025818  0.468437522649765  1.0000
  La  La1       1.0  0.22087542712688446  0.9593957662582397  0.7167625427246094  1.0000
  N   N1        1.0  0.19056455790996552  0.4030202627182007  0.48236116766929626  1.0000
  N   N2        1.0  0.6892832517623901  0.24778436124324799  0.6251102685928345  1.0000
  Pb  Pb1       1.0  0.31724750995635986  0.9449256658554077  0.23855796456336975  1.0000
  Pt  Pt1       1.0  0.8215028643608093  0.10256560891866684  0.2989225685596466  1.0000
  Pt  Pt2       1.0  0.2175637185573578  0.07825649529695511  0.6370329260826111  1.0000
