data_image0
_chemical_formula_structural       ClH6Rh5Se
_chemical_formula_sum              "Cl1 H6 Rh5 Se1"
_cell_length_a       6.066873463042063
_cell_length_b       6.2469956898082115
_cell_length_c       6.478103160858154
_cell_angle_alpha    63.55635475500039
_cell_angle_beta     59.932158885669466
_cell_angle_gamma    59.72604814475508

_space_group_name_H-M_alt    "P 1"
_space_group_IT_number       1

loop_
  _space_group_symop_operation_xyz
  'x, y, z'

loop_
  _atom_site_type_symbol
  _atom_site_label
  _atom_site_symmetry_multiplicity
  _atom_site_fract_x
  _atom_site_fract_y
  _atom_site_fract_z
  _atom_site_occupancy
  Cl  Cl1       1.0  0.7476793527603149  0.10819988697767258  0.6678690314292908  1.0000
  H   H1        1.0  0.7428712248802185  0.6084641814231873  0.27309298515319824  1.0000
  H   H2        1.0  0.6261893510818481  0.2869669497013092  0.43876904249191284  1.0000
  H   H3        1.0  0.24284364283084867  0.9592583179473877  0.9741772413253785  1.0000
  H   H4        1.0  0.9704273939132689  0.01746267080307007  0.8406734466552734  1.0000
  H   H5        1.0  0.7491336464881897  0.07856029272079468  0.7373656034469604  1.0000
  H   H6        1.0  0.005966310389339924  0.22836293280124664  0.07392887026071548  1.0000
  Rh  Rh1       1.0  0.3299930989742279  0.8896910548210144  0.5410186052322388  1.0000
  Rh  Rh2       1.0  0.24540933966636655  0.24384751915931702  0.7507519125938416  1.0000
  Rh  Rh3       1.0  0.676598072052002  0.3475155234336853  0.8286240100860596  1.0000
  Rh  Rh4       1.0  0.24454326927661893  0.2219894677400589  0.9704045653343202  1.0000
  Rh  Rh5       1.0  0.18248270452022552  0.32708969712257385  0.7500303387641907  1.0000
  Se  Se1       1.0  0.7216233015060425  0.8948199152946472  0.871845006942749  1.0000
