data_image0
_chemical_formula_structural       Ge5Li2LuNiPV
_chemical_formula_sum              "Ge5 Li2 Lu1 Ni1 P1 V1"
_cell_length_a       5.420108237202963
_cell_length_b       6.5631219628729625
_cell_length_c       7.070047855377197
_cell_angle_alpha    65.75331494060114
_cell_angle_beta     63.71378338161983
_cell_angle_gamma    65.03532491178291

_space_group_name_H-M_alt    "P 1"
_space_group_IT_number       1

loop_
  _space_group_symop_operation_xyz
  'x, y, z'

loop_
  _atom_site_type_symbol
  _atom_site_label
  _atom_site_symmetry_multiplicity
  _atom_site_fract_x
  _atom_site_fract_y
  _atom_site_fract_z
  _atom_site_occupancy
  Ge  Ge1       1.0  0.2091059386730194  0.7390966415405273  0.49688273668289185  1.0000
  Ge  Ge2       1.0  0.19301870465278625  0.6629796624183655  0.20391608774662018  1.0000
  Ge  Ge3       1.0  0.6891815066337585  0.6683164238929749  0.8994007110595703  1.0000
  Ge  Ge4       1.0  0.668300211429596  0.6701823472976685  0.7045369744300842  1.0000
  Ge  Ge5       1.0  0.673019528388977  0.6568217277526855  0.7138211727142334  1.0000
  Li  Li1       1.0  0.3312246799468994  0.4651248157024383  0.04197527468204498  1.0000
  Li  Li2       1.0  0.673672616481781  0.16604800522327423  0.20981870591640472  1.0000
  Lu  Lu1       1.0  0.8267725110054016  0.49848061800003046  0.704725444316864  1.0000
  Ni  Ni1       1.0  0.6748524904251099  0.16990764439105988  0.4037425220012665  1.0000
  P   P1        1.0  0.33161777257919317  0.9915685653686522  0.5945835709571838  1.0000
  V   V1        1.0  0.1735730916261673  0.1669456958770752  0.769207239151001  1.0000
