data_image0
_chemical_formula_structural       Ge4Li4LuPY
_chemical_formula_sum              "Ge4 Li4 Lu1 P1 Y1"
_cell_length_a       3.997243473129599
_cell_length_b       6.252594651191064
_cell_length_c       9.801804542541504
_cell_angle_alpha    89.94513788576315
_cell_angle_beta     90.87684666929974
_cell_angle_gamma    89.32243545443364

_space_group_name_H-M_alt    "P 1"
_space_group_IT_number       1

loop_
  _space_group_symop_operation_xyz
  'x, y, z'

loop_
  _atom_site_type_symbol
  _atom_site_label
  _atom_site_symmetry_multiplicity
  _atom_site_fract_x
  _atom_site_fract_y
  _atom_site_fract_z
  _atom_site_occupancy
  Ge  Ge1       1.0  0.4698006510734558  0.21975520253181455  0.3537697196006775  1.0000
  Ge  Ge2       1.0  0.4756966233253479  0.73693710565567  0.4140254259109497  1.0000
  Ge  Ge3       1.0  0.983561635017395  0.03801892325282097  0.7279408574104309  1.0000
  Ge  Ge4       1.0  0.482727974653244  0.5305835604667664  0.5173792243003845  1.0000
  Li  Li1       1.0  0.9808998703956604  0.510523796081543  0.016989223659038544  1.0000
  Li  Li2       1.0  0.9707325100898744  0.23191252350807187  0.21188440918922424  1.0000
  Li  Li3       1.0  0.48049718141555786  0.35980784893035883  0.9555209279060364  1.0000
  Li  Li4       1.0  0.9776901006698608  0.6917214989662169  0.14385472238063812  1.0000
  Lu  Lu1       1.0  0.4810461699962616  0.5082564949989319  0.7778085470199585  1.0000
  P   P1        1.0  0.9709891080856323  0.731094717979431  0.6976307034492493  1.0000
  Y   Y1        1.0  0.47589433193206787  0.003530025482177734  0.7261324524879456  1.0000
