data_image0
_chemical_formula_structural       Ce3Ge8
_chemical_formula_sum              "Ce3 Ge8"
_cell_length_a       4.2197020634084526
_cell_length_b       7.203160659280949
_cell_length_c       8.250524520874023
_cell_angle_alpha    90.04016638014258
_cell_angle_beta     86.56478531066894
_cell_angle_gamma    96.48258451513622

_space_group_name_H-M_alt    "P 1"
_space_group_IT_number       1

loop_
  _space_group_symop_operation_xyz
  'x, y, z'

loop_
  _atom_site_type_symbol
  _atom_site_label
  _atom_site_symmetry_multiplicity
  _atom_site_fract_x
  _atom_site_fract_y
  _atom_site_fract_z
  _atom_site_occupancy
  Ce  Ce1       1.0  0.3868390917778015  0.7276434898376464  0.3390231132507324  1.0000
  Ce  Ce2       1.0  0.1660521328449249  0.7651599645614623  0.6804172992706299  1.0000
  Ce  Ce3       1.0  0.389444500207901  0.9316046833992003  0.4343564510345459  1.0000
  Ge  Ge1       1.0  0.8681812286376953  0.1651795506477356  0.5639143586158752  1.0000
  Ge  Ge2       1.0  0.3822569251060486  0.41869607567787165  0.799622118473053  1.0000
  Ge  Ge3       1.0  0.8807381391525269  0.33422088623046875  0.33910858631134033  1.0000
  Ge  Ge4       1.0  0.8893586993217468  0.19325536489486692  0.8757842183113098  1.0000
  Ge  Ge5       1.0  0.8793296217918396  0.6625185608863831  0.6090524792671204  1.0000
  Ge  Ge6       1.0  0.8773741126060486  0.07203900068998337  0.07679907977581024  1.0000
  Ge  Ge7       1.0  0.3718793988227844  0.5307862758636475  0.3420265316963196  1.0000
  Ge  Ge8       1.0  0.3932214677333832  0.7527918815612792  0.3866751194000244  1.0000
