data_image0
_chemical_formula_structural       Ce2Ge7LiMg
_chemical_formula_sum              "Ce2 Ge7 Li1 Mg1"
_cell_length_a       4.489845937037428
_cell_length_b       6.390882205227914
_cell_length_c       8.432225227355957
_cell_angle_alpha    90.17382176886657
_cell_angle_beta     86.68311759001463
_cell_angle_gamma    99.58256144625028

_space_group_name_H-M_alt    "P 1"
_space_group_IT_number       1

loop_
  _space_group_symop_operation_xyz
  'x, y, z'

loop_
  _atom_site_type_symbol
  _atom_site_label
  _atom_site_symmetry_multiplicity
  _atom_site_fract_x
  _atom_site_fract_y
  _atom_site_fract_z
  _atom_site_occupancy
  Ce  Ce1       1.0  0.036324720829725266  0.8266107439994812  0.2716168463230133  1.0000
  Ce  Ce2       1.0  0.4884343445301056  0.8287181854248047  0.32374781370162964  1.0000
  Ge  Ge1       1.0  0.7485107779502869  0.33327144384384155  0.8359842300415039  1.0000
  Ge  Ge2       1.0  0.6936388611793518  0.8250545859336853  0.8238656520843506  1.0000
  Ge  Ge3       1.0  0.2122364342212677  0.09640490263700485  0.03676247224211693  1.0000
  Ge  Ge4       1.0  0.09604024142026901  0.3314046263694763  0.3336198627948761  1.0000
  Ge  Ge5       1.0  0.7205932140350342  0.09245811402797699  0.6544415950775146  1.0000
  Ge  Ge6       1.0  0.463040828704834  0.327571302652359  0.26762276887893677  1.0000
  Ge  Ge7       1.0  0.8955286145210266  0.5556414127349854  0.5098625421524048  1.0000
  Li  Li1       1.0  0.7206234335899353  0.9637870192527771  0.49155643582344055  1.0000
  Mg  Mg1       1.0  0.9265049695968628  0.6303906440734863  0.6699168682098389  1.0000
