data_image0
_chemical_formula_structural       Ge6Li4Se
_chemical_formula_sum              "Ge6 Li4 Se1"
_cell_length_a       4.020576107607017
_cell_length_b       6.596326504249782
_cell_length_c       9.327181816101074
_cell_angle_alpha    88.80707892475206
_cell_angle_beta     91.04457233442461
_cell_angle_gamma    89.80493735993882

_space_group_name_H-M_alt    "P 1"
_space_group_IT_number       1

loop_
  _space_group_symop_operation_xyz
  'x, y, z'

loop_
  _atom_site_type_symbol
  _atom_site_label
  _atom_site_symmetry_multiplicity
  _atom_site_fract_x
  _atom_site_fract_y
  _atom_site_fract_z
  _atom_site_occupancy
  Ge  Ge1       1.0  0.37327244877815247  0.1358102411031723  0.14709722995758057  1.0000
  Ge  Ge2       1.0  0.8736144304275513  0.14276526868343353  0.8954897522926331  1.0000
  Ge  Ge3       1.0  0.37834346294403076  0.13766390085220337  0.872123122215271  1.0000
  Ge  Ge4       1.0  0.3663097620010376  0.13683882355690002  0.42251062393188477  1.0000
  Ge  Ge5       1.0  0.8841274380683899  0.6316571831703186  0.12283644825220108  1.0000
  Ge  Ge6       1.0  0.8725559711456299  0.6360504627227783  0.6546667218208313  1.0000
  Li  Li1       1.0  0.3716686964035034  0.6402373313903809  0.8714909553527834  1.0000
  Li  Li2       1.0  0.8748899698257446  0.13724830746650696  0.05230366438627243  1.0000
  Li  Li3       1.0  0.37321406602859497  0.638891875743866  0.3665020167827606  1.0000
  Li  Li4       1.0  0.8717329502105713  0.13799946010112762  0.4081003665924072  1.0000
  Se  Se1       1.0  0.38573208451271057  0.8249413371086121  0.0480821393430233  1.0000
