data_image0
_chemical_formula_structural       Ge7Li3Y
_chemical_formula_sum              "Ge7 Li3 Y1"
_cell_length_a       4.232777705211784
_cell_length_b       6.102393101047807
_cell_length_c       8.435380935668945
_cell_angle_alpha    87.60999133449751
_cell_angle_beta     89.98695596631373
_cell_angle_gamma    100.00100722082723

_space_group_name_H-M_alt    "P 1"
_space_group_IT_number       1

loop_
  _space_group_symop_operation_xyz
  'x, y, z'

loop_
  _atom_site_type_symbol
  _atom_site_label
  _atom_site_symmetry_multiplicity
  _atom_site_fract_x
  _atom_site_fract_y
  _atom_site_fract_z
  _atom_site_occupancy
  Ge  Ge1       1.0  0.3583446443080902  0.27768567204475403  0.9325377345085144  1.0000
  Ge  Ge2       1.0  0.8596359491348267  0.11920255422592163  0.07594243437051773  1.0000
  Ge  Ge3       1.0  0.8473590612411499  0.608267605304718  0.21367807686328885  1.0000
  Ge  Ge4       1.0  0.3455573320388794  0.6127681732177734  0.21680264174938202  1.0000
  Ge  Ge5       1.0  0.858181893825531  0.11917654424905777  0.9123542308807373  1.0000
  Ge  Ge6       1.0  0.3505702018737793  0.28548720479011536  0.4304434657096863  1.0000
  Ge  Ge7       1.0  0.8343241214752197  0.6428850293159485  0.9372629523277282  1.0000
  Li  Li1       1.0  0.3540555536746979  0.8444404602050781  0.4376581609249115  1.0000
  Li  Li2       1.0  0.34660378098487854  0.14798176288604736  0.43291375041007996  1.0000
  Li  Li3       1.0  0.8512592315673828  0.9007118940353394  0.4303050935268402  1.0000
  Y   Y1        1.0  0.8472885489463806  0.6275943517684937  0.42856475710868835  1.0000
