data_image0
_chemical_formula_structural       Ga2I3LiNPPbPt
_chemical_formula_sum              "Ga2 I3 Li1 N1 P1 Pb1 Pt1"
_cell_length_a       6.2368384725662525
_cell_length_b       6.960540017483248
_cell_length_c       8.014201164245605
_cell_angle_alpha    93.77494830329512
_cell_angle_beta     88.98574684011379
_cell_angle_gamma    91.35705549831918

_space_group_name_H-M_alt    "P 1"
_space_group_IT_number       1

loop_
  _space_group_symop_operation_xyz
  'x, y, z'

loop_
  _atom_site_type_symbol
  _atom_site_label
  _atom_site_symmetry_multiplicity
  _atom_site_fract_x
  _atom_site_fract_y
  _atom_site_fract_z
  _atom_site_occupancy
  Ga  Ga1       1.0  0.401485800743103  0.10259906947612764  0.29258236289024353  1.0000
  Ga  Ga2       1.0  0.40772250294685364  0.05016856640577317  0.12897978723049164  1.0000
  I   I1        1.0  0.3976958394050598  0.7074955105781556  0.23871007561683655  1.0000
  I   I2        1.0  0.7672085762023926  0.15018197894096375  0.10649783909320831  1.0000
  I   I3        1.0  0.38667112588882446  0.022562932223081592  0.9120000004768372  1.0000
  Li  Li1       1.0  0.9166300892829895  0.01593581587076187  0.9727233052253723  1.0000
  N   N1        1.0  0.9065778851509094  0.19244579970836642  0.7191590666770935  1.0000
  P   P1        1.0  0.8760817646980286  0.25092753767967224  0.9645341634750367  1.0000
  Pb  Pb1       1.0  0.9092810750007629  0.6835157275199891  0.6471481919288635  1.0000
  Pt  Pt1       1.0  0.27824223041534424  0.5258980393409729  0.8323524594306946  1.0000
