data_image0
_chemical_formula_structural       AsCa2I3NpPPbZn
_chemical_formula_sum              "As1 Ca2 I3 Np1 P1 Pb1 Zn1"
_cell_length_a       6.129385562357601
_cell_length_b       6.843989895070389
_cell_length_c       8.690132141113281
_cell_angle_alpha    89.5806409582957
_cell_angle_beta     90.37080461072479
_cell_angle_gamma    90.44962568785309

_space_group_name_H-M_alt    "P 1"
_space_group_IT_number       1

loop_
  _space_group_symop_operation_xyz
  'x, y, z'

loop_
  _atom_site_type_symbol
  _atom_site_label
  _atom_site_symmetry_multiplicity
  _atom_site_fract_x
  _atom_site_fract_y
  _atom_site_fract_z
  _atom_site_occupancy
  As  As1       1.0  0.33325958251953125  0.6218219995498658  0.4211237132549286  1.0000
  Ca  Ca1       1.0  0.33842238783836365  0.7586231827735902  0.7628027200698853  1.0000
  Ca  Ca2       1.0  0.8355857729911803  0.6375154852867128  0.760454535484314  1.0000
  I   I1        1.0  0.33862927556037903  0.44535270333290106  0.7336636781692505  1.0000
  I   I2        1.0  0.3300648331642151  0.26633551716804504  0.6522546410560608  1.0000
  I   I3        1.0  0.8312402367591857  0.8970495462417604  0.3685337007045746  1.0000
  Np  Np1       1.0  0.8245655894279479  0.12844218313694  0.13747628033161163  1.0000
  P   P1        1.0  0.330572247505188  0.16464662551879886  0.19537121057510376  1.0000
  Pb  Pb1       1.0  0.32121673226356506  0.7278861403465272  0.5679064989089966  1.0000
  Zn  Zn1       1.0  0.834975242614746  0.9749414324760438  0.4819578230381012  1.0000
