data_image0
_chemical_formula_structural       GaIrK3LiPPb2Pt
_chemical_formula_sum              "Ga1 Ir1 K3 Li1 P1 Pb2 Pt1"
_cell_length_a       7.796319851254475
_cell_length_b       8.014556252175105
_cell_length_c       9.547080039978027
_cell_angle_alpha    109.54669778408156
_cell_angle_beta     106.1635824416434
_cell_angle_gamma    108.27237975421956

_space_group_name_H-M_alt    "P 1"
_space_group_IT_number       1

loop_
  _space_group_symop_operation_xyz
  'x, y, z'

loop_
  _atom_site_type_symbol
  _atom_site_label
  _atom_site_symmetry_multiplicity
  _atom_site_fract_x
  _atom_site_fract_y
  _atom_site_fract_z
  _atom_site_occupancy
  Ga  Ga1       1.0  0.28512787818908686  0.9604860544204711  0.7076922059059143  1.0000
  Ir  Ir1       1.0  0.7860287427902222  0.16053341329097748  0.698943018913269  1.0000
  K   K1        1.0  0.7717307209968567  0.6102519631385803  0.8429208993911743  1.0000
  K   K2        1.0  0.27991393208503723  0.5772110223770142  0.1310147047042847  1.0000
  K   K3        1.0  0.990463137626648  0.47480791807174677  0.584932267665863  1.0000
  Li  Li1       1.0  0.28526854515075684  0.5996767282485962  0.6932076811790466  1.0000
  P   P1        1.0  0.783355176448822  0.22653628885746002  0.008694608695805073  1.0000
  Pb  Pb1       1.0  0.3122769892215729  0.25324758887290955  0.3002792000770569  1.0000
  Pb  Pb2       1.0  0.28945958614349365  0.874498724937439  0.20786318182945251  1.0000
  Pt  Pt1       1.0  0.790805459022522  0.8501113057136536  0.20925018191337585  1.0000
