data_image0
_chemical_formula_structural       Ag2K6Te2
_chemical_formula_sum              "Ag2 K6 Te2"
_cell_length_a       7.122489063225756
_cell_length_b       8.295602554411
_cell_length_c       8.724700927734375
_cell_angle_alpha    119.37846970825257
_cell_angle_beta     88.88186945853526
_cell_angle_gamma    102.23939405496792

_space_group_name_H-M_alt    "P 1"
_space_group_IT_number       1

loop_
  _space_group_symop_operation_xyz
  'x, y, z'

loop_
  _atom_site_type_symbol
  _atom_site_label
  _atom_site_symmetry_multiplicity
  _atom_site_fract_x
  _atom_site_fract_y
  _atom_site_fract_z
  _atom_site_occupancy
  Ag  Ag1       1.0  0.5601158142089844  0.4630898833274842  0.5354431867599487  1.0000
  Ag  Ag2       1.0  0.8946244716644288  0.7041849493980409  0.5763458609580994  1.0000
  K   K1        1.0  0.5749164819717407  0.6147356629371644  0.8415011167526245  1.0000
  K   K2        1.0  0.05158695578575135  0.06623288244009018  0.9560030102729797  1.0000
  K   K3        1.0  0.05085148662328721  0.04925647005438805  0.012362337671220306  1.0000
  K   K4        1.0  0.5565528869628906  0.17393530905246737  0.6316065192222595  1.0000
  K   K5        1.0  0.0518251582980156  0.29524311423301697  0.7241432666778564  1.0000
  K   K6        1.0  0.5567392706871033  0.13925324380397797  0.029760761186480522  1.0000
  Te  Te1       1.0  0.027169531211257016  0.7968240976333619  0.8285449147224426  1.0000
  Te  Te2       1.0  0.5465328693389893  0.31473866105079656  0.4572061002254486  1.0000
