data_image0
_chemical_formula_structural       Ag2K3MoNiTe3
_chemical_formula_sum              "Ag2 K3 Mo1 Ni1 Te3"
_cell_length_a       5.322798328195034
_cell_length_b       6.887266716556752
_cell_length_c       7.058878421783447
_cell_angle_alpha    124.46244367010581
_cell_angle_beta     82.99330831097711
_cell_angle_gamma    91.48434801184091

_space_group_name_H-M_alt    "P 1"
_space_group_IT_number       1

loop_
  _space_group_symop_operation_xyz
  'x, y, z'

loop_
  _atom_site_type_symbol
  _atom_site_label
  _atom_site_symmetry_multiplicity
  _atom_site_fract_x
  _atom_site_fract_y
  _atom_site_fract_z
  _atom_site_occupancy
  Ag  Ag1       1.0  0.8126727938652039  0.7529733180999756  0.6664794683456421  1.0000
  Ag  Ag2       1.0  0.8288177847862244  0.5012713670730591  0.19854708015918732  1.0000
  K   K1        1.0  0.32856497168540955  0.9003299474716187  0.3735405504703521  1.0000
  K   K2        1.0  0.8351584672927856  0.04291459172964096  0.9662773609161377  1.0000
  K   K3        1.0  0.3196840286254883  0.28021958470344543  0.5426300764083862  1.0000
  Mo  Mo1       1.0  0.8216974139213562  0.960927426815033  0.872971773147583  1.0000
  Ni  Ni1       1.0  0.330653578042984  0.9409018754959106  0.5472967028617859  1.0000
  Te  Te1       1.0  0.3111746907234192  0.8991125226020813  0.14833471179008478  1.0000
  Te  Te2       1.0  0.3290000557899475  0.178979754447937  0.8266116380691528  1.0000
  Te  Te3       1.0  0.8296579718589783  0.7629422545433044  0.06146101653575897  1.0000
