data_image0
_chemical_formula_structural       MnS2Sb3Si3Tl
_chemical_formula_sum              "Mn1 S2 Sb3 Si3 Tl1"
_cell_length_a       5.608538034404817
_cell_length_b       5.924167934249451
_cell_length_c       8.914629936218262
_cell_angle_alpha    90.35967202204748
_cell_angle_beta     90.64994721249342
_cell_angle_gamma    89.80939943600062

_space_group_name_H-M_alt    "P 1"
_space_group_IT_number       1

loop_
  _space_group_symop_operation_xyz
  'x, y, z'

loop_
  _atom_site_type_symbol
  _atom_site_label
  _atom_site_symmetry_multiplicity
  _atom_site_fract_x
  _atom_site_fract_y
  _atom_site_fract_z
  _atom_site_occupancy
  Mn  Mn1       1.0  0.10384361445903778  0.1424853652715683  0.6238150596618652  1.0000
  S   S1        1.0  0.8262838721275332  0.9823625087738036  0.037863943725824356  1.0000
  S   S2        1.0  0.8354590535163879  0.5373739004135132  0.5807254910469055  1.0000
  Sb  Sb1       1.0  0.38625118136405945  0.5445857048034668  0.5615543723106384  1.0000
  Sb  Sb2       1.0  0.10746525228023529  0.7564507722854614  0.30698004364967346  1.0000
  Sb  Sb3       1.0  0.3851700723171235  0.4547861814498901  0.29951703548431396  1.0000
  Si  Si1       1.0  0.09460105746984482  0.7313436269760132  0.30556708574295044  1.0000
  Si  Si2       1.0  0.8913349509239197  0.4390385150909423  0.3028395473957062  1.0000
  Si  Si3       1.0  0.6023871898651123  0.24089376628398892  0.3015066981315613  1.0000
  Tl  Tl1       1.0  0.35641044378280645  0.9388140439987182  0.8047857284545898  1.0000
