data_image0
_chemical_formula_structural       S2Sb6Si2
_chemical_formula_sum              "S2 Sb6 Si2"
_cell_length_a       6.825819463392598
_cell_length_b       6.989164306967392
_cell_length_c       7.78649377822876
_cell_angle_alpha    68.64520452910783
_cell_angle_beta     66.24482955876489
_cell_angle_gamma    62.6776497376098

_space_group_name_H-M_alt    "P 1"
_space_group_IT_number       1

loop_
  _space_group_symop_operation_xyz
  'x, y, z'

loop_
  _atom_site_type_symbol
  _atom_site_label
  _atom_site_symmetry_multiplicity
  _atom_site_fract_x
  _atom_site_fract_y
  _atom_site_fract_z
  _atom_site_occupancy
  S   S1        1.0  0.4536033868789673  0.7374265789985657  0.581612765789032  1.0000
  S   S2        1.0  0.8045194149017334  0.06840892136096954  0.8077079057693481  1.0000
  Sb  Sb1       1.0  0.08030986040830612  0.8170377612113953  0.43594121932983404  1.0000
  Sb  Sb2       1.0  0.6347680687904358  0.3552354574203491  0.5808638334274292  1.0000
  Sb  Sb3       1.0  0.787707507610321  0.07578705251216888  0.5809197425842285  1.0000
  Sb  Sb4       1.0  0.6473872661590576  0.9309675097465515  0.09533050656318665  1.0000
  Sb  Sb5       1.0  0.1099068745970726  0.41261976957321167  0.8376814723014833  1.0000
  Sb  Sb6       1.0  0.08792457729578018  0.8052240014076233  0.526419997215271  1.0000
  Si  Si1       1.0  0.2911924123764038  0.08230282366275787  0.568394124507904  1.0000
  Si  Si2       1.0  0.9467742443084717  0.5397205352783203  0.17834597826004023  1.0000
