data_image0
_chemical_formula_structural       RuS2Sb5Tl2
_chemical_formula_sum              "Ru1 S2 Sb5 Tl2"
_cell_length_a       5.406789787126254
_cell_length_b       5.75840268730965
_cell_length_c       10.04269027709961
_cell_angle_alpha    91.13955995258775
_cell_angle_beta     89.51453291759901
_cell_angle_gamma    89.87520182760453

_space_group_name_H-M_alt    "P 1"
_space_group_IT_number       1

loop_
  _space_group_symop_operation_xyz
  'x, y, z'

loop_
  _atom_site_type_symbol
  _atom_site_label
  _atom_site_symmetry_multiplicity
  _atom_site_fract_x
  _atom_site_fract_y
  _atom_site_fract_z
  _atom_site_occupancy
  Ru  Ru1       1.0  0.8538463115692138  0.008395985700190067  0.15597541630268097  1.0000
  S   S1        1.0  0.12729443609714508  0.6936466097831726  0.0561641901731491  1.0000
  S   S2        1.0  0.12524902820587158  0.4346325695514679  0.7780361175537109  1.0000
  Sb  Sb1       1.0  0.42163640260696406  0.8749191761016846  0.36225542426109314  1.0000
  Sb  Sb2       1.0  0.6224790215492249  0.5639497637748718  0.2710461914539337  1.0000
  Sb  Sb3       1.0  0.6256508231163025  0.20307646691799164  0.9181407690048217  1.0000
  Sb  Sb4       1.0  0.42111468315124506  0.8867430686950684  0.41061151027679443  1.0000
  Sb  Sb5       1.0  0.1261441856622696  0.19803117215633392  0.9127596616744994  1.0000
  Tl  Tl1       1.0  0.6117801070213318  0.19326727092266083  0.6420596241950989  1.0000
  Tl  Tl2       1.0  0.6164025068283081  0.6905034780502319  0.8672021627426146  1.0000
