data_image0
_chemical_formula_structural       S4Sb4Tl2
_chemical_formula_sum              "S4 Sb4 Tl2"
_cell_length_a       6.771801060085818
_cell_length_b       7.1024014570644205
_cell_length_c       7.915534973144531
_cell_angle_alpha    117.61344410604106
_cell_angle_beta     113.02111801802594
_cell_angle_gamma    87.65238433238868

_space_group_name_H-M_alt    "P 1"
_space_group_IT_number       1

loop_
  _space_group_symop_operation_xyz
  'x, y, z'

loop_
  _atom_site_type_symbol
  _atom_site_label
  _atom_site_symmetry_multiplicity
  _atom_site_fract_x
  _atom_site_fract_y
  _atom_site_fract_z
  _atom_site_occupancy
  S   S1        1.0  0.30700019001960754  0.37870001792907715  0.13874782621860504  1.0000
  S   S2        1.0  0.18499305844306946  0.013911816291511059  0.861326575279236  1.0000
  S   S3        1.0  0.6543886661529541  0.08006270974874496  0.7919201254844667  1.0000
  S   S4        1.0  0.7142159342765808  0.05848659947514534  0.12585821747779852  1.0000
  Sb  Sb1       1.0  0.9626713395118713  0.8514769673347473  0.4902810156345368  1.0000
  Sb  Sb2       1.0  0.6615074276924133  0.5118756890296936  0.14539174735546112  1.0000
  Sb  Sb3       1.0  0.958836019039154  0.3718719184398651  0.6404719352722168  1.0000
  Sb  Sb4       1.0  0.15053032338619232  0.5678691267967224  0.27988252043724066  1.0000
  Tl  Tl1       1.0  0.1805744469165802  0.12048931419849396  0.12692442536354065  1.0000
  Tl  Tl2       1.0  0.4537872076034546  0.6714375019073486  0.6338511109352112  1.0000
