data_image0
_chemical_formula_structural       MnS3Sb5Tl
_chemical_formula_sum              "Mn1 S3 Sb5 Tl1"
_cell_length_a       6.0249159150935485
_cell_length_b       6.448635179015655
_cell_length_c       8.170051574707031
_cell_angle_alpha    105.445849682436
_cell_angle_beta     103.89628823320216
_cell_angle_gamma    89.16896647117692

_space_group_name_H-M_alt    "P 1"
_space_group_IT_number       1

loop_
  _space_group_symop_operation_xyz
  'x, y, z'

loop_
  _atom_site_type_symbol
  _atom_site_label
  _atom_site_symmetry_multiplicity
  _atom_site_fract_x
  _atom_site_fract_y
  _atom_site_fract_z
  _atom_site_occupancy
  Mn  Mn1       1.0  0.6428810358047485  0.060090504586696625  0.9380202889442444  1.0000
  S   S1        1.0  0.028831848874688152  0.32611629366874695  0.9603272676467896  1.0000
  S   S2        1.0  0.8161430358886719  0.6941437125205994  0.37008124589920044  1.0000
  S   S3        1.0  0.5064650774002075  0.43035849928855896  0.377020001411438  1.0000
  Sb  Sb1       1.0  0.9861984252929689  0.8789911866188049  0.827778697013855  1.0000
  Sb  Sb2       1.0  0.48151776194572454  0.5594562292098999  0.9968705177307129  1.0000
  Sb  Sb3       1.0  0.9683009386062623  0.2632743716239929  0.11198982596397403  1.0000
  Sb  Sb4       1.0  0.15931656956672668  0.5549864768981934  0.3789079785346985  1.0000
  Sb  Sb5       1.0  0.9754810929298402  0.5410311222076416  0.10933631658554077  1.0000
  Tl  Tl1       1.0  0.4703760147094727  0.05461926385760307  0.5575527548789978  1.0000
