data_image0
_chemical_formula_structural       S2Sb5Si3
_chemical_formula_sum              "S2 Sb5 Si3"
_cell_length_a       5.504221541751755
_cell_length_b       6.804471178705105
_cell_length_c       8.9360933303833
_cell_angle_alpha    93.33375262952983
_cell_angle_beta     89.80302368341692
_cell_angle_gamma    90.1890529290278

_space_group_name_H-M_alt    "P 1"
_space_group_IT_number       1

loop_
  _space_group_symop_operation_xyz
  'x, y, z'

loop_
  _atom_site_type_symbol
  _atom_site_label
  _atom_site_symmetry_multiplicity
  _atom_site_fract_x
  _atom_site_fract_y
  _atom_site_fract_z
  _atom_site_occupancy
  S   S1        1.0  0.0557573065161705  0.47974857687950134  0.42762529850006104  1.0000
  S   S2        1.0  0.8385960459709167  0.7123703956604004  0.8398044109344482  1.0000
  Sb  Sb1       1.0  0.6653375029563904  0.7023231387138367  0.9625138640403749  1.0000
  Sb  Sb2       1.0  0.9897557497024536  0.48736464977264404  0.5559178590774536  1.0000
  Sb  Sb3       1.0  0.060701534152030945  0.9799567461013794  0.3264527916908264  1.0000
  Sb  Sb4       1.0  0.6619738936424255  0.22407345473766327  0.5836295485496521  1.0000
  Sb  Sb5       1.0  0.42233359813690186  0.9387803673744202  0.5549293160438538  1.0000
  Si  Si1       1.0  0.2679082751274109  0.21270188689231873  0.5617164373397827  1.0000
  Si  Si2       1.0  0.7638912796974182  0.8468523025512695  0.33868563175201416  1.0000
  Si  Si3       1.0  0.052808668464422226  0.7129198312759399  0.26322683691978455  1.0000
