data_image0
_chemical_formula_structural       Zr7
_chemical_formula_sum              "Zr7"
_cell_length_a       4.633128151292223
_cell_length_b       5.494528924341928
_cell_length_c       9.167835235595703
_cell_angle_alpha    120.83820833603016
_cell_angle_beta     102.3841478601048
_cell_angle_gamma    87.24891301367435

_space_group_name_H-M_alt    "P 1"
_space_group_IT_number       1

loop_
  _space_group_symop_operation_xyz
  'x, y, z'

loop_
  _atom_site_type_symbol
  _atom_site_label
  _atom_site_symmetry_multiplicity
  _atom_site_fract_x
  _atom_site_fract_y
  _atom_site_fract_z
  _atom_site_occupancy
  Zr  Zr1       1.0  0.2514010965824127  0.44350889325141907  0.2825319170951843  1.0000
  Zr  Zr2       1.0  0.7567902207374573  0.15157170593738556  0.5500361919403076  1.0000
  Zr  Zr3       1.0  0.781783401966095  0.8290882110595703  0.4552437663078308  1.0000
  Zr  Zr4       1.0  0.2727649211883545  0.9893190264701842  0.21420286595821375  1.0000
  Zr  Zr5       1.0  0.7665753960609436  0.7015869617462158  0.7861738204956055  1.0000
  Zr  Zr6       1.0  0.2755812704563141  0.4605917632579803  0.7527652978897095  1.0000
  Zr  Zr7       1.0  0.2725495994091034  0.35089436173439026  0.2695827782154083  1.0000
