data_image0
_chemical_formula_structural       Zr7
_chemical_formula_sum              "Zr7"
_cell_length_a       4.47060032438486
_cell_length_b       3.4158646089397653
_cell_length_c       5.917910575866699
_cell_angle_alpha    159.08762063390424
_cell_angle_beta     91.30275482156371
_cell_angle_gamma    106.05542531424597

_space_group_name_H-M_alt    "P 1"
_space_group_IT_number       1

loop_
  _space_group_symop_operation_xyz
  'x, y, z'

loop_
  _atom_site_type_symbol
  _atom_site_label
  _atom_site_symmetry_multiplicity
  _atom_site_fract_x
  _atom_site_fract_y
  _atom_site_fract_z
  _atom_site_occupancy
  Zr  Zr1       1.0  0.432224839925766  0.5825915336608888  0.6686244606971742  1.0000
  Zr  Zr2       1.0  0.9364866018295288  0.9406501054763795  0.6060959100723268  1.0000
  Zr  Zr3       1.0  0.44581499695777893  0.40018430352211004  0.05178617686033252  1.0000
  Zr  Zr4       1.0  0.9569862484931946  0.19672520458698278  0.19949075579643252  1.0000
  Zr  Zr5       1.0  0.9375442862510681  0.728864312171936  0.20238000154495245  1.0000
  Zr  Zr6       1.0  0.4596427381038666  0.1649100035429002  0.4612641334533692  1.0000
  Zr  Zr7       1.0  0.43636026978492737  0.8654050827026367  0.5087192654609681  1.0000
