data_image0
_chemical_formula_structural       La8SZn
_chemical_formula_sum              "La8 S1 Zn1"
_cell_length_a       5.466614020287101
_cell_length_b       8.131919010489028
_cell_length_c       8.974235534667969
_cell_angle_alpha    120.17980022685296
_cell_angle_beta     90.53002454100717
_cell_angle_gamma    90.30161882609075

_space_group_name_H-M_alt    "P 1"
_space_group_IT_number       1

loop_
  _space_group_symop_operation_xyz
  'x, y, z'

loop_
  _atom_site_type_symbol
  _atom_site_label
  _atom_site_symmetry_multiplicity
  _atom_site_fract_x
  _atom_site_fract_y
  _atom_site_fract_z
  _atom_site_occupancy
  La  La1       1.0  0.2761250436306  0.8398125171661376  0.9241204261779785  1.0000
  La  La2       1.0  0.7758036255836487  0.7081670761108398  0.05959984660148616  1.0000
  La  La3       1.0  0.27571240067481995  0.7200333476066589  0.3450011909008025  1.0000
  La  La4       1.0  0.7524624466896057  0.9895280599594115  0.96991366147995  1.0000
  La  La5       1.0  0.26725101470947266  0.6669514179229736  0.25528585910797114  1.0000
  La  La6       1.0  0.26968133449554443  0.18736019730567932  0.3551657497882843  1.0000
  La  La7       1.0  0.2733038067817688  0.36527952551841736  0.9492853283882141  1.0000
  La  La8       1.0  0.28166624903678894  0.4355186223983764  0.9772197604179382  1.0000
  S   S1        1.0  0.7806714177131653  0.7547275424003601  0.7446736097335815  1.0000
  Zn  Zn1       1.0  0.772563099861145  0.14299972355365753  0.7612348794937134  1.0000
