data_image0
_chemical_formula_structural       DyLa6PbSTb
_chemical_formula_sum              "Dy1 La6 Pb1 S1 Tb1"
_cell_length_a       5.767312199506031
_cell_length_b       6.597434500777654
_cell_length_c       9.007509231567383
_cell_angle_alpha    111.27187547088023
_cell_angle_beta     100.55363703943773
_cell_angle_gamma    108.87325599668063

_space_group_name_H-M_alt    "P 1"
_space_group_IT_number       1

loop_
  _space_group_symop_operation_xyz
  'x, y, z'

loop_
  _atom_site_type_symbol
  _atom_site_label
  _atom_site_symmetry_multiplicity
  _atom_site_fract_x
  _atom_site_fract_y
  _atom_site_fract_z
  _atom_site_occupancy
  Dy  Dy1       1.0  0.29163026809692383  0.2449585199356079  0.8795731663703918  1.0000
  La  La1       1.0  0.7143967151641846  0.8714572787284851  0.8714579343795776  1.0000
  La  La2       1.0  0.19140395522117615  0.19550351798534393  0.6207648515701294  1.0000
  La  La3       1.0  0.7285956740379333  0.6065860986709595  0.14388814568519592  1.0000
  La  La4       1.0  0.2108926624059677  0.6051391959190369  0.877581775188446  1.0000
  La  La5       1.0  0.7224201560020447  0.16348496079444885  0.5407196879386902  1.0000
  La  La6       1.0  0.21325458586215973  0.3749670684337616  0.5459612011909485  1.0000
  Pb  Pb1       1.0  0.5886310338973999  0.8373491168022156  0.06895036995410919  1.0000
  S   S1        1.0  0.20821839570999146  0.02266508899629116  0.034216467291116714  1.0000
  Tb  Tb1       1.0  0.1028168797492981  0.7820978760719299  0.4254308044910431  1.0000
