data_image0
_chemical_formula_structural       DyILa5SSbZn
_chemical_formula_sum              "Dy1 I1 La5 S1 Sb1 Zn1"
_cell_length_a       4.485786792720697
_cell_length_b       6.963583958449313
_cell_length_c       6.928067684173584
_cell_angle_alpha    123.72365445230463
_cell_angle_beta     94.05522325360221
_cell_angle_gamma    92.18558686991535

_space_group_name_H-M_alt    "P 1"
_space_group_IT_number       1

loop_
  _space_group_symop_operation_xyz
  'x, y, z'

loop_
  _atom_site_type_symbol
  _atom_site_label
  _atom_site_symmetry_multiplicity
  _atom_site_fract_x
  _atom_site_fract_y
  _atom_site_fract_z
  _atom_site_occupancy
  Dy  Dy1       1.0  0.30216091871261597  0.2723058760166168  0.6202775835990906  1.0000
  I   I1        1.0  0.8074384331703186  0.8542076945304871  0.7597649693489075  1.0000
  La  La1       1.0  0.12664906680583954  0.2767370343208313  0.36819446086883545  1.0000
  La  La2       1.0  0.3143062889575958  0.5643110275268555  0.26419720053672796  1.0000
  La  La3       1.0  0.5580683946609497  0.5019663572311401  0.3712370991706848  1.0000
  La  La4       1.0  0.2984123229980469  0.5908794403076172  0.9575605988502502  1.0000
  La  La5       1.0  0.4687481224536896  0.5081430077552795  0.6943210363388062  1.0000
  S   S1        1.0  0.9659221172332764  0.0379897840321064  0.7389149069786072  1.0000
  Sb  Sb1       1.0  0.2978411316871643  0.26982226967811584  0.08333483338356021  1.0000
  Zn  Zn1       1.0  0.8757388591766357  0.0012600867776200175  0.07581451535224915  1.0000
