data_image0
_chemical_formula_structural       La8S2
_chemical_formula_sum              "La8 S2"
_cell_length_a       6.051323876172415
_cell_length_b       10.805375590680315
_cell_length_c       10.865293502807617
_cell_angle_alpha    121.75910939483062
_cell_angle_beta     88.93701534263866
_cell_angle_gamma    90.5773996219621

_space_group_name_H-M_alt    "P 1"
_space_group_IT_number       1

loop_
  _space_group_symop_operation_xyz
  'x, y, z'

loop_
  _atom_site_type_symbol
  _atom_site_label
  _atom_site_symmetry_multiplicity
  _atom_site_fract_x
  _atom_site_fract_y
  _atom_site_fract_z
  _atom_site_occupancy
  La  La1       1.0  0.5228614807128906  0.24916915595531464  0.012858602218329906  1.0000
  La  La2       1.0  0.5271897315979004  0.1495310366153717  0.2074577361345291  1.0000
  La  La3       1.0  0.02575145661830902  0.8856194615364075  0.892508327960968  1.0000
  La  La4       1.0  0.02851724438369274  0.9130234718322754  0.4306843876838684  1.0000
  La  La5       1.0  0.5246294140815735  0.5767470598220825  0.08259852230548859  1.0000
  La  La6       1.0  0.026081407442688942  0.43529829382896423  0.5378950238227844  1.0000
  La  La7       1.0  0.5267536640167236  0.8124561905860901  0.48556530475616455  1.0000
  La  La8       1.0  0.028112920001149178  0.8016526699066162  0.17699798941612235  1.0000
  S   S1        1.0  0.7755082845687866  0.9871836304664612  0.505714178085327  1.0000
  S   S2        1.0  0.022566834464669228  0.9920638799667358  0.9449013471603394  1.0000
