data_image0
_chemical_formula_structural       La8S2
_chemical_formula_sum              "La8 S2"
_cell_length_a       4.97710791239518
_cell_length_b       5.4599753037260825
_cell_length_c       6.447500705718994
_cell_angle_alpha    91.79119765654161
_cell_angle_beta     91.17098489900665
_cell_angle_gamma    97.27421295540047

_space_group_name_H-M_alt    "P 1"
_space_group_IT_number       1

loop_
  _space_group_symop_operation_xyz
  'x, y, z'

loop_
  _atom_site_type_symbol
  _atom_site_label
  _atom_site_symmetry_multiplicity
  _atom_site_fract_x
  _atom_site_fract_y
  _atom_site_fract_z
  _atom_site_occupancy
  La  La1       1.0  0.7593914270401001  0.5493690967559814  0.010073048062622547  1.0000
  La  La2       1.0  0.027065781876444817  0.48519542813301086  0.23980289697647095  1.0000
  La  La3       1.0  0.01770203746855259  0.5110588073730469  0.20002730190753937  1.0000
  La  La4       1.0  0.480946809053421  0.05563467741012573  0.5246736407279968  1.0000
  La  La5       1.0  0.052787795662879944  0.3677062392234802  0.8704971075057983  1.0000
  La  La6       1.0  0.532922625541687  0.481212854385376  0.695865273475647  1.0000
  La  La7       1.0  0.03954441100358963  0.3404282033443451  0.7392523288726807  1.0000
  La  La8       1.0  0.5437653064727783  0.2867167592048645  0.7781530618667603  1.0000
  S   S1        1.0  0.9928421378135681  0.7259447574615479  0.12625166773796082  1.0000
  S   S2        1.0  0.29697632789611816  0.08097606152296066  0.5663272142410278  1.0000
