data_image0
_chemical_formula_structural       La9S
_chemical_formula_sum              "La9 S1"
_cell_length_a       4.62042067877813
_cell_length_b       4.503937945696515
_cell_length_c       8.849495887756348
_cell_angle_alpha    91.22288102624466
_cell_angle_beta     95.15461749661671
_cell_angle_gamma    117.22651163415519

_space_group_name_H-M_alt    "P 1"
_space_group_IT_number       1

loop_
  _space_group_symop_operation_xyz
  'x, y, z'

loop_
  _atom_site_type_symbol
  _atom_site_label
  _atom_site_symmetry_multiplicity
  _atom_site_fract_x
  _atom_site_fract_y
  _atom_site_fract_z
  _atom_site_occupancy
  La  La1       1.0  0.7799341082572936  0.970290184020996  0.9933846592903137  1.0000
  La  La2       1.0  0.6666752696037292  0.16727277636528015  0.9796074628829956  1.0000
  La  La3       1.0  0.8850079774856567  0.1834939867258072  0.3159007132053375  1.0000
  La  La4       1.0  0.6501625180244446  0.300735205411911  0.06343363970518112  1.0000
  La  La5       1.0  0.26285400986671437  0.9897226095199584  0.8962869644165039  1.0000
  La  La6       1.0  0.21427474915981293  0.17144519090652466  0.3088783919811249  1.0000
  La  La7       1.0  0.6749576330184937  0.8260536789894103  0.25870245695114136  1.0000
  La  La8       1.0  0.7372773289680481  0.7193496227264404  0.21882107853889465  1.0000
  La  La9       1.0  0.9588536024093628  0.7910306453704833  0.9255934953689575  1.0000
  S   S1        1.0  0.2577667236328125  0.047230914235115044  0.16238142549991605  1.0000
