data_image0
_chemical_formula_structural       GaI3P2
_chemical_formula_sum              "Ga1 I3 P2"
_cell_length_a       6.514786756855033
_cell_length_b       5.6222847958915745
_cell_length_c       8.765419960021973
_cell_angle_alpha    94.35522329584988
_cell_angle_beta     87.44734854914698
_cell_angle_gamma    64.24327841414802

_space_group_name_H-M_alt    "P 1"
_space_group_IT_number       1

loop_
  _space_group_symop_operation_xyz
  'x, y, z'

loop_
  _atom_site_type_symbol
  _atom_site_label
  _atom_site_symmetry_multiplicity
  _atom_site_fract_x
  _atom_site_fract_y
  _atom_site_fract_z
  _atom_site_occupancy
  Ga  Ga1       1.0  0.2717292308807373  0.23083993792533875  0.3816840946674347  1.0000
  I   I1        1.0  0.5191312432289124  0.9671614766120911  0.26188379526138306  1.0000
  I   I2        1.0  0.8895754218101503  0.4857911467552185  0.36992672085762024  1.0000
  I   I3        1.0  0.39726263284683233  0.49041759967803955  0.03993121162056923  1.0000
  P   P1        1.0  0.18035395443439484  0.7509614825248718  0.1051347479224205  1.0000
  P   P2        1.0  0.8860194087028505  0.8445673584938049  0.3410206437110901  1.0000
