data_image0
_chemical_formula_structural       ClSb4Si3Sn
_chemical_formula_sum              "Cl1 Sb4 Si3 Sn1"
_cell_length_a       5.960333336301108
_cell_length_b       6.446009683918113
_cell_length_c       6.79122257232666
_cell_angle_alpha    73.16118949169734
_cell_angle_beta     66.49572734531633
_cell_angle_gamma    62.45989766989439

_space_group_name_H-M_alt    "P 1"
_space_group_IT_number       1

loop_
  _space_group_symop_operation_xyz
  'x, y, z'

loop_
  _atom_site_type_symbol
  _atom_site_label
  _atom_site_symmetry_multiplicity
  _atom_site_fract_x
  _atom_site_fract_y
  _atom_site_fract_z
  _atom_site_occupancy
  Cl  Cl1       1.0  0.30872899293899536  0.19843721389770508  0.004009006544947624  1.0000
  Sb  Sb1       1.0  0.3103865087032318  0.6979028582572937  0.5063959956169128  1.0000
  Sb  Sb2       1.0  0.8715268969535828  0.5406203269958496  0.10152246803045273  1.0000
  Sb  Sb3       1.0  0.9921922087669373  0.18102842569351196  0.813345193862915  1.0000
  Sb  Sb4       1.0  0.9868183135986328  0.20018745958805084  0.5932143330574036  1.0000
  Si  Si1       1.0  0.885676383972168  0.05667077749967575  0.8145875930786133  1.0000
  Si  Si2       1.0  0.6293939352035522  0.9192336201667786  0.09713342040777206  1.0000
  Si  Si3       1.0  0.61812824010849  0.2061687856912613  0.049227964133024216  1.0000
  Sn  Sn1       1.0  0.23690883815288544  0.49391722679138184  0.3211188316345215  1.0000
