data_image0
_chemical_formula_structural       ClNbPdSbSi3TiTl
_chemical_formula_sum              "Cl1 Nb1 Pd1 Sb1 Si3 Ti1 Tl1"
_cell_length_a       4.8310278201557395
_cell_length_b       6.36484896707689
_cell_length_c       6.766717910766602
_cell_angle_alpha    118.11072598966442
_cell_angle_beta     98.72261361616495
_cell_angle_gamma    90.59295493516409

_space_group_name_H-M_alt    "P 1"
_space_group_IT_number       1

loop_
  _space_group_symop_operation_xyz
  'x, y, z'

loop_
  _atom_site_type_symbol
  _atom_site_label
  _atom_site_symmetry_multiplicity
  _atom_site_fract_x
  _atom_site_fract_y
  _atom_site_fract_z
  _atom_site_occupancy
  Cl  Cl1       1.0  0.4550645351409912  0.5299817323684692  0.2606993317604065  1.0000
  Nb  Nb1       1.0  0.967285692691803  0.3576992154121399  0.5655397176742554  1.0000
  Pd  Pd1       1.0  0.9775092005729675  0.6879770159721375  0.6337808966636658  1.0000
  Sb  Sb1       1.0  0.34338849782943726  0.8584561944007874  0.253833532333374  1.0000
  Si  Si1       1.0  0.8382009267807007  0.2879895269870758  0.9404184222221376  1.0000
  Si  Si2       1.0  0.5499795079231262  0.9916337728500366  0.6287331581115723  1.0000
  Si  Si3       1.0  0.22210903465747833  0.8888834714889526  0.8557808995246888  1.0000
  Ti  Ti1       1.0  0.7300742864608765  0.9117503762245178  0.10233197361230857  1.0000
  Tl  Tl1       1.0  0.8322851657867432  0.31127551198005676  0.35019573569297796  1.0000
