data_image0
_chemical_formula_structural       AgMoPd2SbSnSrTbTe
_chemical_formula_sum              "Ag1 Mo1 Pd2 Sb1 Sn1 Sr1 Tb1 Te1"
_cell_length_a       5.320640564056804
_cell_length_b       6.439644949525016
_cell_length_c       6.5882391929626465
_cell_angle_alpha    120.09060945048557
_cell_angle_beta     91.15268336735764
_cell_angle_gamma    89.80719738443041

_space_group_name_H-M_alt    "P 1"
_space_group_IT_number       1

loop_
  _space_group_symop_operation_xyz
  'x, y, z'

loop_
  _atom_site_type_symbol
  _atom_site_label
  _atom_site_symmetry_multiplicity
  _atom_site_fract_x
  _atom_site_fract_y
  _atom_site_fract_z
  _atom_site_occupancy
  Ag  Ag1       1.0  0.8325302004814148  0.6455118656158447  0.2880014479160309  1.0000
  Mo  Mo1       1.0  0.06580857187509537  0.32127025723457336  0.5813499093055725  1.0000
  Pd  Pd1       1.0  0.3288974165916443  0.5850386023521423  0.9925533533096311  1.0000
  Pd  Pd2       1.0  0.8225800395011902  0.9748859405517578  0.08342622965574258  1.0000
  Sb  Sb1       1.0  0.5600754618644714  0.11676256358623505  0.6959223151206968  1.0000
  Sn  Sn1       1.0  0.8242136836051941  0.9971323013305664  0.1603992134332656  1.0000
  Sr  Sr1       1.0  0.33328840136528015  0.622008740901947  0.5792579054832457  1.0000
  Tb  Tb1       1.0  0.3288673460483551  0.568677544593811  0.7896152734756469  1.0000
  Te  Te1       1.0  0.3517070412635803  0.31224921345710754  0.48990741372108454  1.0000
