data_image0
_chemical_formula_structural       ClNb2PdSb4Tb
_chemical_formula_sum              "Cl1 Nb2 Pd1 Sb4 Tb1"
_cell_length_a       5.743450747543891
_cell_length_b       6.988865205007371
_cell_length_c       7.0993218421936035
_cell_angle_alpha    120.32945972686228
_cell_angle_beta     89.08103763886803
_cell_angle_gamma    89.69862057079148

_space_group_name_H-M_alt    "P 1"
_space_group_IT_number       1

loop_
  _space_group_symop_operation_xyz
  'x, y, z'

loop_
  _atom_site_type_symbol
  _atom_site_label
  _atom_site_symmetry_multiplicity
  _atom_site_fract_x
  _atom_site_fract_y
  _atom_site_fract_z
  _atom_site_occupancy
  Cl  Cl1       1.0  0.9256786108016968  0.5520709156990051  0.13096743822097776  1.0000
  Nb  Nb1       1.0  0.4302123486995697  0.8247709274291991  0.6922453045845032  1.0000
  Nb  Nb2       1.0  0.4252581000328064  0.7387045621871948  0.16477105021476746  1.0000
  Pd  Pd1       1.0  0.9283305406570435  0.21379038691520688  0.971311092376709  1.0000
  Sb  Sb1       1.0  0.9252591729164124  0.2523804306983948  0.6751142740249634  1.0000
  Sb  Sb2       1.0  0.42974400520324707  0.5574474334716797  0.16789121925830838  1.0000
  Sb  Sb3       1.0  0.923700749874115  0.21504364907741544  0.6467206478118896  1.0000
  Sb  Sb4       1.0  0.9178441762924194  0.7330315709114075  0.7182082533836365  1.0000
  Tb  Tb1       1.0  0.4239732921123505  0.24516853690147397  0.6778789758682251  1.0000
