data_image0
_chemical_formula_structural       ClNbSb4Si2Ti
_chemical_formula_sum              "Cl1 Nb1 Sb4 Si2 Ti1"
_cell_length_a       6.236636771092548
_cell_length_b       6.871678663127404
_cell_length_c       6.763798236846924
_cell_angle_alpha    70.9419087358621
_cell_angle_beta     65.53135114935297
_cell_angle_gamma    63.13227289630875

_space_group_name_H-M_alt    "P 1"
_space_group_IT_number       1

loop_
  _space_group_symop_operation_xyz
  'x, y, z'

loop_
  _atom_site_type_symbol
  _atom_site_label
  _atom_site_symmetry_multiplicity
  _atom_site_fract_x
  _atom_site_fract_y
  _atom_site_fract_z
  _atom_site_occupancy
  Cl  Cl1       1.0  0.6561532020568848  0.7646475434303284  0.07218897342681885  1.0000
  Nb  Nb1       1.0  0.02415329776704311  0.0340961255133152  0.8207894563674927  1.0000
  Sb  Sb1       1.0  0.31676024198532104  0.9264543056488037  0.34177467226982117  1.0000
  Sb  Sb2       1.0  0.6868653893470764  0.265129029750824  0.8403895497322083  1.0000
  Sb  Sb3       1.0  0.9957920908927916  0.4505004286766052  0.840151309967041  1.0000
  Sb  Sb4       1.0  0.488881230354309  0.9944854378700256  0.18868589401245117  1.0000
  Si  Si1       1.0  0.5238024592399597  0.5466293096542358  0.33606165647506714  1.0000
  Si  Si2       1.0  0.6772090196609497  0.7706405520439148  0.496896356344223  1.0000
  Ti  Ti1       1.0  0.19614347815513608  0.7746348977088928  0.5573848485946655  1.0000
