data_image0
_chemical_formula_structural       Al4SSiTi5
_chemical_formula_sum              "Al4 S1 Si1 Ti5"
_cell_length_a       5.721231566216489
_cell_length_b       5.82661248467359
_cell_length_c       6.9308319091796875
_cell_angle_alpha    115.28937589764672
_cell_angle_beta     113.41779146185443
_cell_angle_gamma    94.63749288813963

_space_group_name_H-M_alt    "P 1"
_space_group_IT_number       1

loop_
  _space_group_symop_operation_xyz
  'x, y, z'

loop_
  _atom_site_type_symbol
  _atom_site_label
  _atom_site_symmetry_multiplicity
  _atom_site_fract_x
  _atom_site_fract_y
  _atom_site_fract_z
  _atom_site_occupancy
  Al  Al1       1.0  0.1829133927822113  0.2512078583240509  0.8907180428504944  1.0000
  Al  Al2       1.0  0.3518870174884796  0.3236316442489624  0.3695600926876068  1.0000
  Al  Al3       1.0  0.11013460904359818  0.11522439122200012  0.534417450428009  1.0000
  Al  Al4       1.0  0.06830179691314697  0.7619626522064209  0.6913945078849792  1.0000
  S   S1        1.0  0.23456346988677979  0.7506733536720276  0.6523014903068542  1.0000
  Si  Si1       1.0  0.49687767028808594  0.27128973603248596  0.3802540600299835  1.0000
  Ti  Ti1       1.0  0.3057742416858673  0.8064188361167908  0.037289418280124664  1.0000
  Ti  Ti2       1.0  0.7915977835655212  0.11762195825576782  0.03268301114439964  1.0000
  Ti  Ti3       1.0  0.7329843640327454  0.6143781542778015  0.7786124348640442  1.0000
  Ti  Ti4       1.0  0.24369601905345917  0.6180322766304016  0.2937055826187134  1.0000
  Ti  Ti5       1.0  0.03427068889141083  0.6087124943733215  0.03570454567670822  1.0000
