data_image0
_chemical_formula_structural       Al4HSTi5
_chemical_formula_sum              "Al4 H1 S1 Ti5"
_cell_length_a       5.492226534963945
_cell_length_b       5.694867337200918
_cell_length_c       6.908555507659912
_cell_angle_alpha    64.9562737610026
_cell_angle_beta     65.5709087911621
_cell_angle_gamma    60.24065617947373

_space_group_name_H-M_alt    "P 1"
_space_group_IT_number       1

loop_
  _space_group_symop_operation_xyz
  'x, y, z'

loop_
  _atom_site_type_symbol
  _atom_site_label
  _atom_site_symmetry_multiplicity
  _atom_site_fract_x
  _atom_site_fract_y
  _atom_site_fract_z
  _atom_site_occupancy
  Al  Al1       1.0  0.7390584945678711  0.3106710910797119  0.6834027171134949  1.0000
  Al  Al2       1.0  0.5843362212181091  0.7954296469688416  0.17978575825691223  1.0000
  Al  Al3       1.0  0.008708284236490726  0.06337806582450867  0.8737530708312988  1.0000
  Al  Al4       1.0  0.3989240527153015  0.07276828587055206  0.8691782355308533  1.0000
  H   H1        1.0  0.9496915340423584  0.3387897312641144  0.6762900352478027  1.0000
  S   S1        1.0  0.7313804030418396  0.0662623792886734  0.4263728857040405  1.0000
  Ti  Ti1       1.0  0.704663097858429  0.3178098201751709  0.17402979731559753  1.0000
  Ti  Ti2       1.0  0.2004517763853073  0.8046520352363586  0.18186059594154358  1.0000
  Ti  Ti3       1.0  0.6259046196937561  0.7487676739692688  0.5704807639122009  1.0000
  Ti  Ti4       1.0  0.7365028262138367  0.31481629610061646  0.6753044128417969  1.0000
  Ti  Ti5       1.0  0.38851723074913025  0.3297875225543976  0.3747938275337219  1.0000
