data_image0
_chemical_formula_structural       Al4Au2BiNaTi3
_chemical_formula_sum              "Al4 Au2 Bi1 Na1 Ti3"
_cell_length_a       5.3993957966725485
_cell_length_b       5.638785715326675
_cell_length_c       6.0217485427856445
_cell_angle_alpha    94.5986696974843
_cell_angle_beta     91.82325658219588
_cell_angle_gamma    88.99543196063486

_space_group_name_H-M_alt    "P 1"
_space_group_IT_number       1

loop_
  _space_group_symop_operation_xyz
  'x, y, z'

loop_
  _atom_site_type_symbol
  _atom_site_label
  _atom_site_symmetry_multiplicity
  _atom_site_fract_x
  _atom_site_fract_y
  _atom_site_fract_z
  _atom_site_occupancy
  Al  Al1       1.0  0.13749222457408905  0.5383973121643066  0.6733189821243286  1.0000
  Al  Al2       1.0  0.6557405591011047  0.5943973660469055  0.7071040868759155  1.0000
  Al  Al3       1.0  0.4914673566818238  0.8913301229476929  0.97585529088974  1.0000
  Al  Al4       1.0  0.42698043584823614  0.07538964599370956  0.09508629888296127  1.0000
  Au  Au1       1.0  0.6389119029045105  0.597041130065918  0.4479212462902069  1.0000
  Au  Au2       1.0  0.5667105913162231  0.5812560319900513  0.9412309527397156  1.0000
  Bi  Bi1       1.0  0.17115862667560577  0.5899086594581604  0.433501660823822  1.0000
  Na  Na1       1.0  0.8232644796371461  0.07726777344942093  0.16106201708316803  1.0000
  Ti  Ti1       1.0  0.7912722229957582  0.37755149602890015  0.6970791220664978  1.0000
  Ti  Ti2       1.0  0.07211704552173615  0.08265968412160873  0.9538425803184509  1.0000
  Ti  Ti3       1.0  0.7905195355415345  0.5870267748832703  0.44631925225257874  1.0000
