data_image0
_chemical_formula_structural       Al3OSTi6
_chemical_formula_sum              "Al3 O1 S1 Ti6"
_cell_length_a       5.284464223716104
_cell_length_b       5.582842094143829
_cell_length_c       7.4961371421813965
_cell_angle_alpha    69.52335982203729
_cell_angle_beta     69.55664042526232
_cell_angle_gamma    58.89747655868015

_space_group_name_H-M_alt    "P 1"
_space_group_IT_number       1

loop_
  _space_group_symop_operation_xyz
  'x, y, z'

loop_
  _atom_site_type_symbol
  _atom_site_label
  _atom_site_symmetry_multiplicity
  _atom_site_fract_x
  _atom_site_fract_y
  _atom_site_fract_z
  _atom_site_occupancy
  Al  Al1       1.0  0.611229658126831  0.33655834197998047  0.6819137930870056  1.0000
  Al  Al2       1.0  0.49747517704963684  0.44971293210983276  0.5225926041603088  1.0000
  Al  Al3       1.0  0.6233680248260498  0.8284711837768555  0.8632922768592834  1.0000
  O   O1        1.0  0.6949355006217957  0.6251776814460754  0.18233166635036469  1.0000
  S   S1        1.0  0.47649919986724854  0.47305920720100403  0.45802903175354004  1.0000
  Ti  Ti1       1.0  0.40965506434440613  0.9936611652374268  0.6237930655479431  1.0000
  Ti  Ti2       1.0  0.9280626773834229  0.49277451634407043  0.6063194870948792  1.0000
  Ti  Ti3       1.0  0.0777483806014061  0.6548470258712769  0.3296392858028412  1.0000
  Ti  Ti4       1.0  0.6278221607208252  0.32773885130882263  0.9649516940116882  1.0000
  Ti  Ti5       1.0  0.3141136169433594  0.2871094048023224  0.2713888883590698  1.0000
  Ti  Ti6       1.0  0.7556002736091614  0.1486855000257492  0.6924915909767151  1.0000
