data_image0
_chemical_formula_structural       Al2LiSSiTi6
_chemical_formula_sum              "Al2 Li1 S1 Si1 Ti6"
_cell_length_a       5.268740978009866
_cell_length_b       5.511192259699873
_cell_length_c       7.054194450378418
_cell_angle_alpha    112.16650944327618
_cell_angle_beta     113.03807066064617
_cell_angle_gamma    90.25226829908003

_space_group_name_H-M_alt    "P 1"
_space_group_IT_number       1

loop_
  _space_group_symop_operation_xyz
  'x, y, z'

loop_
  _atom_site_type_symbol
  _atom_site_label
  _atom_site_symmetry_multiplicity
  _atom_site_fract_x
  _atom_site_fract_y
  _atom_site_fract_z
  _atom_site_occupancy
  Al  Al1       1.0  0.4181157946586609  0.7811954021453857  0.8951151967048646  1.0000
  Al  Al2       1.0  0.1225905641913414  0.6742137670516968  0.2637292444705963  1.0000
  Li  Li1       1.0  0.15166263282299042  0.9589658379554749  0.6278623938560487  1.0000
  S   S1        1.0  0.3632371425628662  0.014378335326910019  0.36336746811866766  1.0000
  Si  Si1       1.0  0.22539596259593964  0.8113649487495422  0.7632399797439576  1.0000
  Ti  Ti1       1.0  0.5217152833938599  0.4819852411746979  0.76226145029068  1.0000
  Ti  Ti2       1.0  0.20526698231697083  0.4774742126464844  0.8300529122352601  1.0000
  Ti  Ti3       1.0  0.9787111282348633  0.1941143274307251  0.027306258678436345  1.0000
  Ti  Ti4       1.0  0.764331042766571  0.4863702654838562  0.3960063457489014  1.0000
  Ti  Ti5       1.0  0.9960596561431885  0.481885701417923  0.1338747888803482  1.0000
  Ti  Ti6       1.0  0.3125631809234619  0.1885364055633545  0.5328159332275391  1.0000
