data_image0
_chemical_formula_structural       Al5Au2LaTi3
_chemical_formula_sum              "Al5 Au2 La1 Ti3"
_cell_length_a       5.4909113216669425
_cell_length_b       5.669452454347508
_cell_length_c       6.380229473114014
_cell_angle_alpha    118.4626248675985
_cell_angle_beta     115.51523265584149
_cell_angle_gamma    89.18035738273767

_space_group_name_H-M_alt    "P 1"
_space_group_IT_number       1

loop_
  _space_group_symop_operation_xyz
  'x, y, z'

loop_
  _atom_site_type_symbol
  _atom_site_label
  _atom_site_symmetry_multiplicity
  _atom_site_fract_x
  _atom_site_fract_y
  _atom_site_fract_z
  _atom_site_occupancy
  Al  Al1       1.0  0.4351579546928406  0.05024019256234169  0.6941159963607787  1.0000
  Al  Al2       1.0  0.6584612727165222  0.8814124464988708  0.6210888624191284  1.0000
  Al  Al3       1.0  0.013139816001057625  0.7135970592498779  0.14414742588996887  1.0000
  Al  Al4       1.0  0.016074126586318016  0.19562917947769165  0.9743674397468566  1.0000
  Al  Al5       1.0  0.20076033473014832  0.5406385064125061  0.7027275562286376  1.0000
  Au  Au1       1.0  0.7465493083000183  0.17730093002319336  0.98116397857666  1.0000
  Au  Au2       1.0  0.09292341023683548  0.4738548696041107  0.6990392208099364  1.0000
  La  La1       1.0  0.9272987842559814  0.9628908038139343  0.6896986961364745  1.0000
  Ti  Ti1       1.0  0.43776288628578186  0.707546055316925  0.7062704563140868  1.0000
  Ti  Ti2       1.0  0.2645644545555115  0.2846572995185852  0.9669144749641417  1.0000
  Ti  Ti3       1.0  0.634286642074585  0.5049880146980286  0.37549334764480585  1.0000
