data_image0
_chemical_formula_structural       AsHI2P3ScTb2Ti
_chemical_formula_sum              "As1 H1 I2 P3 Sc1 Tb2 Ti1"
_cell_length_a       5.797555618906665
_cell_length_b       5.61327861450675
_cell_length_c       8.905204772949219
_cell_angle_alpha    101.82192095404473
_cell_angle_beta     89.94619342612985
_cell_angle_gamma    113.77274551078177

_space_group_name_H-M_alt    "P 1"
_space_group_IT_number       1

loop_
  _space_group_symop_operation_xyz
  'x, y, z'

loop_
  _atom_site_type_symbol
  _atom_site_label
  _atom_site_symmetry_multiplicity
  _atom_site_fract_x
  _atom_site_fract_y
  _atom_site_fract_z
  _atom_site_occupancy
  As  As1       1.0  0.7048655152320862  0.47648885846138  0.8842322826385498  1.0000
  H   H1        1.0  0.2122424840927124  0.9459049701690674  0.8776232004165649  1.0000
  I   I1        1.0  0.3428293466567993  0.8377189636230469  0.15243476629257202  1.0000
  I   I2        1.0  0.4052998423576355  0.18705423176288605  0.6704104542732239  1.0000
  P   P1        1.0  0.41578611731529236  0.5838781595230103  0.7602603435516357  1.0000
  P   P2        1.0  0.1854843646287918  0.794822633266449  0.21961496770381927  1.0000
  P   P3        1.0  0.9169601798057556  0.6973612904548645  0.14385025203227997  1.0000
  Sc  Sc1       1.0  0.9047908186912537  0.36184972524642944  0.5586914420127869  1.0000
  Tb  Tb1       1.0  0.6608957052230835  0.1604655385017395  0.01545547042042017  1.0000
  Tb  Tb2       1.0  0.8770521283149719  0.7915580868721008  0.22092808783054352  1.0000
  Ti  Ti1       1.0  0.17205014824867249  0.37124723196029663  0.014240573160350323  1.0000
