data_image0
_chemical_formula_structural       I3Ni2P3Pt2Ti
_chemical_formula_sum              "I3 Ni2 P3 Pt2 Ti1"
_cell_length_a       6.111622696244102
_cell_length_b       6.053773036854622
_cell_length_c       6.579226016998291
_cell_angle_alpha    66.31676752508908
_cell_angle_beta     65.94663319288537
_cell_angle_gamma    64.67945199114507

_space_group_name_H-M_alt    "P 1"
_space_group_IT_number       1

loop_
  _space_group_symop_operation_xyz
  'x, y, z'

loop_
  _atom_site_type_symbol
  _atom_site_label
  _atom_site_symmetry_multiplicity
  _atom_site_fract_x
  _atom_site_fract_y
  _atom_site_fract_z
  _atom_site_occupancy
  I   I1        1.0  0.3888691663742065  0.7604759931564331  0.9624000787734985  1.0000
  I   I2        1.0  0.9297519326210021  0.7921671271324158  0.25283870100975037  1.0000
  I   I3        1.0  0.9315063357353209  0.920786440372467  0.8248672485351562  1.0000
  Ni  Ni1       1.0  0.13017386198043823  0.7281211614608765  0.8665833473205566  1.0000
  Ni  Ni2       1.0  0.94208425283432  0.5735763907432556  0.25520139932632446  1.0000
  P   P1        1.0  0.3145821690559387  0.2420969009399414  0.6944609880447388  1.0000
  P   P2        1.0  0.48199829459190363  0.4415735602378845  0.860611617565155  1.0000
  P   P3        1.0  0.6679385304450989  0.17510415613651276  0.6288243532180786  1.0000
  Pt  Pt1       1.0  0.7996699810028075  0.7121239900588989  0.9360876083374023  1.0000
  Pt  Pt2       1.0  0.3812469542026519  0.7026264667510986  0.49502864480018616  1.0000
  Ti  Ti1       1.0  0.9470078945159911  0.504976749420166  0.7835561037063599  1.0000
