data_image0
_chemical_formula_structural       Al4Fe3Ti4
_chemical_formula_sum              "Al4 Fe3 Ti4"
_cell_length_a       4.8455499712502075
_cell_length_b       5.555278670930823
_cell_length_c       5.522129535675049
_cell_angle_alpha    56.11417862688649
_cell_angle_beta     67.42759625851285
_cell_angle_gamma    63.67004780212072

_space_group_name_H-M_alt    "P 1"
_space_group_IT_number       1

loop_
  _space_group_symop_operation_xyz
  'x, y, z'

loop_
  _atom_site_type_symbol
  _atom_site_label
  _atom_site_symmetry_multiplicity
  _atom_site_fract_x
  _atom_site_fract_y
  _atom_site_fract_z
  _atom_site_occupancy
  Al  Al1       1.0  0.30410295724868774  0.06796246767044067  0.010487117804586887  1.0000
  Al  Al2       1.0  0.3218579888343811  0.9857104420661926  0.9133421778678894  1.0000
  Al  Al3       1.0  0.847623884677887  0.23441609740257263  0.23548318445682526  1.0000
  Al  Al4       1.0  0.34549421072006226  0.9570989608764648  0.00039231777191178194  1.0000
  Fe  Fe1       1.0  0.3518751859664917  0.459764689207077  0.17582054436206818  1.0000
  Fe  Fe2       1.0  0.8523529767990112  0.9960091710090637  0.6846965551376343  1.0000
  Fe  Fe3       1.0  0.8149656653404236  0.02431470900774002  0.40497031807899475  1.0000
  Ti  Ti1       1.0  0.8204901218414307  0.9519845247268677  0.6024805307388306  1.0000
  Ti  Ti2       1.0  0.34874993562698364  0.21392036974430084  0.8028824925422668  1.0000
  Ti  Ti3       1.0  0.8077475428581238  0.26861685514450073  0.4279822409152985  1.0000
  Ti  Ti4       1.0  0.8422768115997314  0.07731438428163528  0.7924661040306091  1.0000
