data_image0
_chemical_formula_structural       AlFeI2NiPPtTi4
_chemical_formula_sum              "Al1 Fe1 I2 Ni1 P1 Pt1 Ti4"
_cell_length_a       5.823148811132588
_cell_length_b       4.5772228523050495
_cell_length_c       5.879930019378662
_cell_angle_alpha    109.9913598972543
_cell_angle_beta     109.0147295027924
_cell_angle_gamma    130.19438336288232

_space_group_name_H-M_alt    "P 1"
_space_group_IT_number       1

loop_
  _space_group_symop_operation_xyz
  'x, y, z'

loop_
  _atom_site_type_symbol
  _atom_site_label
  _atom_site_symmetry_multiplicity
  _atom_site_fract_x
  _atom_site_fract_y
  _atom_site_fract_z
  _atom_site_occupancy
  Al  Al1       1.0  0.7513134479522705  0.6226278543472289  0.2538146376609802  1.0000
  Fe  Fe1       1.0  0.8842140436172488  0.017805365845561166  0.9940928220748901  1.0000
  I   I1        1.0  0.24650602042675018  0.7390733361244202  0.1341402977705002  1.0000
  I   I2        1.0  0.6305739283561705  0.23987342417240132  0.25977507233619684  1.0000
  Ni  Ni1       1.0  0.39178752899169916  0.751821994781494  0.5227298736572266  1.0000
  P   P1        1.0  0.7128567099571228  0.45497035980224604  0.8291875123977661  1.0000
  Pt  Pt1       1.0  0.38479870557785034  0.051473408937454196  0.5090720057487488  1.0000
  Ti  Ti1       1.0  0.639958381652832  0.22659239172935486  0.011927634477615355  1.0000
  Ti  Ti2       1.0  0.2580265402793884  0.10818174481391907  0.6868973970413208  1.0000
  Ti  Ti3       1.0  0.13508632779121374  0.7117848396301266  0.968666911125183  1.0000
  Ti  Ti4       1.0  0.8475233316421509  0.8300064206123353  0.32524755597114563  1.0000
