data_image0
_chemical_formula_structural       Al5Fe4Ti2
_chemical_formula_sum              "Al5 Fe4 Ti2"
_cell_length_a       4.315358886395725
_cell_length_b       4.327479013787956
_cell_length_c       5.242966651916504
_cell_angle_alpha    60.83216041010478
_cell_angle_beta     67.2685782124207
_cell_angle_gamma    51.49832273067789

_space_group_name_H-M_alt    "P 1"
_space_group_IT_number       1

loop_
  _space_group_symop_operation_xyz
  'x, y, z'

loop_
  _atom_site_type_symbol
  _atom_site_label
  _atom_site_symmetry_multiplicity
  _atom_site_fract_x
  _atom_site_fract_y
  _atom_site_fract_z
  _atom_site_occupancy
  Al  Al1       1.0  0.940374493598938  0.25530943274497986  0.10424050688743591  1.0000
  Al  Al2       1.0  0.06553026288747787  0.14616069197654724  0.033211302012205124  1.0000
  Al  Al3       1.0  0.7333328127861023  0.10949544608592988  0.22135093808174133  1.0000
  Al  Al4       1.0  0.4329097867012023  0.999226748943329  0.3087383508682251  1.0000
  Al  Al5       1.0  0.6739457845687866  0.03983867168426514  0.2848184406757355  1.0000
  Fe  Fe1       1.0  0.27471446990966797  0.3929639458656311  0.6874982118606567  1.0000
  Fe  Fe2       1.0  0.4752321541309356  0.9374120831489564  0.23378333449363708  1.0000
  Fe  Fe3       1.0  0.26857474446296686  0.8786790370941163  0.7274758219718933  1.0000
  Fe  Fe4       1.0  0.08087852597236633  0.17259903252124786  0.5045930743217468  1.0000
  Ti  Ti1       1.0  0.8104137182235718  0.17875370383262634  0.6256675720214844  1.0000
  Ti  Ti2       1.0  0.28010863065719604  0.6803640723228455  0.2581126391887665  1.0000
