data_image0
_chemical_formula_structural       Al2FeI3NiTi2ZnZr
_chemical_formula_sum              "Al2 Fe1 I3 Ni1 Ti2 Zn1 Zr1"
_cell_length_a       6.512346148953065
_cell_length_b       6.018456606251845
_cell_length_c       6.50456428527832
_cell_angle_alpha    113.8515881341062
_cell_angle_beta     105.54635328607363
_cell_angle_gamma    110.69891028355703

_space_group_name_H-M_alt    "P 1"
_space_group_IT_number       1

loop_
  _space_group_symop_operation_xyz
  'x, y, z'

loop_
  _atom_site_type_symbol
  _atom_site_label
  _atom_site_symmetry_multiplicity
  _atom_site_fract_x
  _atom_site_fract_y
  _atom_site_fract_z
  _atom_site_occupancy
  Al  Al1       1.0  0.09747634828090668  0.8449615836143494  0.6522839069366455  1.0000
  Al  Al2       1.0  0.5492668151855469  0.06791912764310837  0.05231238901615143  1.0000
  Fe  Fe1       1.0  0.3357730805873871  0.21677106618881226  0.7774389982223511  1.0000
  I   I1        1.0  0.26446765661239624  0.4418227970600128  0.7854770421981812  1.0000
  I   I2        1.0  0.07061074674129486  0.9857764840126038  0.7928434014320374  1.0000
  I   I3        1.0  0.8033390641212463  0.3315313756465912  0.7823452949523926  1.0000
  Ni  Ni1       1.0  0.7334114909172058  0.4424663186073303  0.4862924516201019  1.0000
  Ti  Ti1       1.0  0.09785399585962296  0.28124308586120605  0.897019624710083  1.0000
  Ti  Ti2       1.0  0.06945711374282837  0.24981357157230377  0.8306299448013306  1.0000
  Zn  Zn1       1.0  0.5830016732215881  0.4285654127597809  0.09729543328285217  1.0000
  Zr  Zr1       1.0  0.5877140164375305  0.9990063309669495  0.7405573725700378  1.0000
