data_image0
_chemical_formula_structural       Cl3CoLi4Pb
_chemical_formula_sum              "Cl3 Co1 Li4 Pb1"
_cell_length_a       5.575261404825698
_cell_length_b       7.110930852083146
_cell_length_c       7.308391094207764
_cell_angle_alpha    78.0350112086602
_cell_angle_beta     69.52242754530425
_cell_angle_gamma    66.56481246431915

_space_group_name_H-M_alt    "P 1"
_space_group_IT_number       1

loop_
  _space_group_symop_operation_xyz
  'x, y, z'

loop_
  _atom_site_type_symbol
  _atom_site_label
  _atom_site_symmetry_multiplicity
  _atom_site_fract_x
  _atom_site_fract_y
  _atom_site_fract_z
  _atom_site_occupancy
  Cl  Cl1       1.0  0.8430466651916504  0.667267680168152  0.31900131702423096  1.0000
  Cl  Cl2       1.0  0.8487287163734436  0.21417684853076938  0.3743393123149872  1.0000
  Cl  Cl3       1.0  0.34764689207077026  0.058255709707736976  0.5666233897209167  1.0000
  Co  Co1       1.0  0.823885977268219  0.6205681562423707  0.16990572214126587  1.0000
  Li  Li1       1.0  0.8181880116462708  0.47149559855461126  0.976401686668396  1.0000
  Li  Li2       1.0  0.3417080342769623  0.10979093611240388  0.8801265358924866  1.0000
  Li  Li3       1.0  0.8251823782920837  0.4616209268569947  0.5404719114303589  1.0000
  Li  Li4       1.0  0.5630719661712646  0.25305357575416565  0.1488398462533951  1.0000
  Pb  Pb1       1.0  0.3214033246040344  0.1424456536769867  0.17201009392738342  1.0000
