data_image0
_chemical_formula_structural       Bi4Cl2Li3
_chemical_formula_sum              "Bi4 Cl2 Li3"
_cell_length_a       4.0784827051549755
_cell_length_b       4.261468329824995
_cell_length_c       10.656678199768066
_cell_angle_alpha    98.88959304412957
_cell_angle_beta     102.63904579749389
_cell_angle_gamma    105.32257042911797

_space_group_name_H-M_alt    "P 1"
_space_group_IT_number       1

loop_
  _space_group_symop_operation_xyz
  'x, y, z'

loop_
  _atom_site_type_symbol
  _atom_site_label
  _atom_site_symmetry_multiplicity
  _atom_site_fract_x
  _atom_site_fract_y
  _atom_site_fract_z
  _atom_site_occupancy
  Bi  Bi1       1.0  0.6811740398406982  0.5628461837768555  0.27967092394828796  1.0000
  Bi  Bi2       1.0  0.6287210583686829  0.3904869258403778  0.8587414622306824  1.0000
  Bi  Bi3       1.0  0.147552952170372  0.201955646276474  0.5465312600135803  1.0000
  Bi  Bi4       1.0  0.6355560421943665  0.7957666516304016  0.5700824856758118  1.0000
  Cl  Cl1       1.0  0.20467232167720795  0.13050243258476257  0.04223598539829254  1.0000
  Cl  Cl2       1.0  0.7334426641464233  0.2734626829624176  0.18023738265037537  1.0000
  Li  Li1       1.0  0.1570737361907959  0.2790360450744629  0.6824907064437866  1.0000
  Li  Li2       1.0  0.8731011152267456  0.5913901925086975  0.3693556487560272  1.0000
  Li  Li3       1.0  0.6344092488288879  0.8550365567207336  0.8317487835884094  1.0000
