data_image0
_chemical_formula_structural       Bi4Cl2Li3
_chemical_formula_sum              "Bi4 Cl2 Li3"
_cell_length_a       4.373672670136411
_cell_length_b       3.717878207566056
_cell_length_c       12.072044372558594
_cell_angle_alpha    91.35341048778689
_cell_angle_beta     96.80238548348231
_cell_angle_gamma    145.12255762671506

_space_group_name_H-M_alt    "P 1"
_space_group_IT_number       1

loop_
  _space_group_symop_operation_xyz
  'x, y, z'

loop_
  _atom_site_type_symbol
  _atom_site_label
  _atom_site_symmetry_multiplicity
  _atom_site_fract_x
  _atom_site_fract_y
  _atom_site_fract_z
  _atom_site_occupancy
  Bi  Bi1       1.0  0.1879570186138153  0.019892601296305656  0.4349652230739594  1.0000
  Bi  Bi2       1.0  0.7379566431045532  0.11266642808914185  0.20139631628990176  1.0000
  Bi  Bi3       1.0  0.6692073345184326  0.9368138313293457  0.8903142213821412  1.0000
  Bi  Bi4       1.0  0.7026986479759216  0.497389554977417  0.35796296596527105  1.0000
  Cl  Cl1       1.0  0.1308956742286682  0.1288527399301529  0.8659418225288392  1.0000
  Cl  Cl2       1.0  0.7154187560081482  0.8802486062049866  0.2612447738647461  1.0000
  Li  Li1       1.0  0.465716153383255  0.5356325507164001  0.4123480618000031  1.0000
  Li  Li2       1.0  0.15527085959911346  0.43183934688568115  0.02900970540940762  1.0000
  Li  Li3       1.0  0.07711999863386154  0.13132967054843903  0.4697491824626923  1.0000
