data_image0
_chemical_formula_structural       ClCrLaLi6
_chemical_formula_sum              "Cl1 Cr1 La1 Li6"
_cell_length_a       4.893646028147702
_cell_length_b       4.975461939140141
_cell_length_c       6.99045991897583
_cell_angle_alpha    95.18867703276307
_cell_angle_beta     101.81755498494505
_cell_angle_gamma    106.90692111946227

_space_group_name_H-M_alt    "P 1"
_space_group_IT_number       1

loop_
  _space_group_symop_operation_xyz
  'x, y, z'

loop_
  _atom_site_type_symbol
  _atom_site_label
  _atom_site_symmetry_multiplicity
  _atom_site_fract_x
  _atom_site_fract_y
  _atom_site_fract_z
  _atom_site_occupancy
  Cl  Cl1       1.0  0.2580752670764923  0.46707969903945923  0.5638899207115173  1.0000
  Cr  Cr1       1.0  0.2511593699455261  0.05089183524250984  0.7789823412895203  1.0000
  La  La1       1.0  0.7532381415367126  0.452908456325531  0.5380855202674866  1.0000
  Li  Li1       1.0  0.24508960545063016  0.9917275309562683  0.9330121874809264  1.0000
  Li  Li2       1.0  0.7401942014694214  0.2567567825317383  0.2508898377418518  1.0000
  Li  Li3       1.0  0.24311487376689908  0.4594790041446686  0.45596170425415034  1.0000
  Li  Li4       1.0  0.24893234670162198  0.9236462712287903  0.67750483751297  1.0000
  Li  Li5       1.0  0.7455881237983704  0.15317480266094208  0.12682390213012695  1.0000
  Li  Li6       1.0  0.74094557762146  0.0382966622710228  0.6370159387588501  1.0000
