data_image0
_chemical_formula_structural       Al2AsRu3Sn
_chemical_formula_sum              "Al2 As1 Ru3 Sn1"
_cell_length_a       5.699571383618298
_cell_length_b       4.966143627455767
_cell_length_c       4.942924976348877
_cell_angle_alpha    91.72753478074726
_cell_angle_beta     90.40426408223593
_cell_angle_gamma    90.49880971279391

_space_group_name_H-M_alt    "P 1"
_space_group_IT_number       1

loop_
  _space_group_symop_operation_xyz
  'x, y, z'

loop_
  _atom_site_type_symbol
  _atom_site_label
  _atom_site_symmetry_multiplicity
  _atom_site_fract_x
  _atom_site_fract_y
  _atom_site_fract_z
  _atom_site_occupancy
  Al  Al1       1.0  0.5044577717781067  0.36075857281684875  0.23765146732330322  1.0000
  Al  Al2       1.0  0.6658560037612915  0.3834744095802307  0.6982424855232239  1.0000
  As  As1       1.0  0.8370794653892517  0.16307581961154938  0.9244542121887207  1.0000
  Ru  Ru1       1.0  0.4989928603172302  0.9111216068267822  0.6863232851028443  1.0000
  Ru  Ru2       1.0  0.6488260626792908  0.5871822834014893  0.8477674126625061  1.0000
  Ru  Ru3       1.0  0.20391912758350372  0.9888386130332947  0.35652539134025574  1.0000
  Sn  Sn1       1.0  0.1515757441520691  0.4499562084674835  0.32724669575691223  1.0000
