data_image0
_chemical_formula_structural       Al5BrCe2Ga2V
_chemical_formula_sum              "Al5 Br1 Ce2 Ga2 V1"
_cell_length_a       4.272756487098595
_cell_length_b       7.327936486584149
_cell_length_c       7.595053195953369
_cell_angle_alpha    93.66725535787887
_cell_angle_beta     91.51947166754951
_cell_angle_gamma    94.57432161040259

_space_group_name_H-M_alt    "P 1"
_space_group_IT_number       1

loop_
  _space_group_symop_operation_xyz
  'x, y, z'

loop_
  _atom_site_type_symbol
  _atom_site_label
  _atom_site_symmetry_multiplicity
  _atom_site_fract_x
  _atom_site_fract_y
  _atom_site_fract_z
  _atom_site_occupancy
  Al  Al1       1.0  0.0675220862030983  0.647106945514679  0.09629075974226  1.0000
  Al  Al2       1.0  0.23727461695671082  0.450529545545578  0.38478818535804754  1.0000
  Al  Al3       1.0  0.4770997166633606  0.6965824961662292  0.5009871125221252  1.0000
  Al  Al4       1.0  0.20483191311359406  0.45017674565315247  0.25144413113594055  1.0000
  Al  Al5       1.0  0.7423466444015503  0.6638999581336975  0.6496504545211792  1.0000
  Br  Br1       1.0  0.729809045791626  0.14564166963100433  0.9408701062202455  1.0000
  Ce  Ce1       1.0  0.18557848036289215  0.15034081041812897  0.7749276757240297  1.0000
  Ce  Ce2       1.0  0.041468534618616104  0.6971941590309143  0.8763058185577394  1.0000
  Ga  Ga1       1.0  0.7256794571876526  0.44482895731925964  0.8206377029418946  1.0000
  Ga  Ga2       1.0  0.46288689970970154  0.944177508354187  0.608427405357361  1.0000
  V   V1        1.0  0.7245193123817444  0.9750953912734985  0.5532605648040771  1.0000
