data_image0
_chemical_formula_structural       Al5ClGa4V
_chemical_formula_sum              "Al5 Cl1 Ga4 V1"
_cell_length_a       4.302675700164742
_cell_length_b       7.404129968535769
_cell_length_c       7.155513763427734
_cell_angle_alpha    81.66274492471095
_cell_angle_beta     69.7923690459513
_cell_angle_gamma    71.41444605448596

_space_group_name_H-M_alt    "P 1"
_space_group_IT_number       1

loop_
  _space_group_symop_operation_xyz
  'x, y, z'

loop_
  _atom_site_type_symbol
  _atom_site_label
  _atom_site_symmetry_multiplicity
  _atom_site_fract_x
  _atom_site_fract_y
  _atom_site_fract_z
  _atom_site_occupancy
  Al  Al1       1.0  0.18624649941921229  0.7677668929100038  0.8592261075973511  1.0000
  Al  Al2       1.0  0.15516439080238342  0.26991814374923706  0.7964508533477783  1.0000
  Al  Al3       1.0  0.4342940747737884  0.7656663656234742  0.4490026831626892  1.0000
  Al  Al4       1.0  0.6699872016906738  0.04967175796627999  0.3579142987728119  1.0000
  Al  Al5       1.0  0.7944679856300354  0.45211085677146917  0.9414183497428894  1.0000
  Cl  Cl1       1.0  0.2885214388370514  0.5015531182289124  0.6495932340621948  1.0000
  Ga  Ga1       1.0  0.3692954182624817  0.027470145374536518  0.33178797364234924  1.0000
  Ga  Ga2       1.0  0.044177874922752325  0.7734380364418031  0.44705694913864136  1.0000
  Ga  Ga3       1.0  0.810031533241272  0.5868507027626038  0.8167195320129395  1.0000
  Ga  Ga4       1.0  0.614747941493988  0.09419000893831254  0.8944664001464844  1.0000
  V   V1        1.0  0.7335599660873413  0.3186764717102051  0.31561362743377686  1.0000
