data_image0
_chemical_formula_structural       Al5CeGa4V
_chemical_formula_sum              "Al5 Ce1 Ga4 V1"
_cell_length_a       4.450112365270367
_cell_length_b       7.1998206714071005
_cell_length_c       7.568245887756348
_cell_angle_alpha    113.60307922207826
_cell_angle_beta     91.47517127111468
_cell_angle_gamma    90.92353956131133

_space_group_name_H-M_alt    "P 1"
_space_group_IT_number       1

loop_
  _space_group_symop_operation_xyz
  'x, y, z'

loop_
  _atom_site_type_symbol
  _atom_site_label
  _atom_site_symmetry_multiplicity
  _atom_site_fract_x
  _atom_site_fract_y
  _atom_site_fract_z
  _atom_site_occupancy
  Al  Al1       1.0  0.5066158175468445  0.2544736862182617  0.004205500707030296  1.0000
  Al  Al2       1.0  0.6713516116142273  0.7650154829025269  0.3914933800697326  1.0000
  Al  Al3       1.0  0.6645076274871826  0.29065147042274475  0.6969862580299376  1.0000
  Al  Al4       1.0  0.19266389310359955  0.5952024459838867  0.2346602529287338  1.0000
  Al  Al5       1.0  0.6793965101242065  0.2221764624118805  0.891582429409027  1.0000
  Ce  Ce1       1.0  0.9847635626792908  0.24864892661571503  0.14010828733444214  1.0000
  Ga  Ga1       1.0  0.6835331916809082  0.5825847387313843  0.6801417469978331  1.0000
  Ga  Ga2       1.0  0.002763034077361226  0.026786474511027336  0.9124305844306945  1.0000
  Ga  Ga3       1.0  0.17771883308887482  0.924260139465332  0.6809560656547545  1.0000
  Ga  Ga4       1.0  0.18166647851467133  0.02880016155540943  0.5171034336090088  1.0000
  V   V1        1.0  0.1773051619529724  0.5947387218475342  0.4061628580093383  1.0000
