data_image0
_chemical_formula_structural       Al3Ce3Ga5
_chemical_formula_sum              "Al3 Ce3 Ga5"
_cell_length_a       4.274736806024084
_cell_length_b       7.293512803786652
_cell_length_c       7.098984241485596
_cell_angle_alpha    113.2145732998774
_cell_angle_beta     88.54088187755713
_cell_angle_gamma    89.94784699375373

_space_group_name_H-M_alt    "P 1"
_space_group_IT_number       1

loop_
  _space_group_symop_operation_xyz
  'x, y, z'

loop_
  _atom_site_type_symbol
  _atom_site_label
  _atom_site_symmetry_multiplicity
  _atom_site_fract_x
  _atom_site_fract_y
  _atom_site_fract_z
  _atom_site_occupancy
  Al  Al1       1.0  0.9402019381523132  0.1507353037595749  0.3444989323616027  1.0000
  Al  Al2       1.0  0.42710328102111816  0.31275492906570435  0.6087704300880432  1.0000
  Al  Al3       1.0  0.41878432035446167  0.7779625058174132  0.9415442943572997  1.0000
  Ce  Ce1       1.0  0.43223628401756287  0.11553421616554259  0.08191613107919693  1.0000
  Ce  Ce2       1.0  0.9341902732849122  0.4847823083400726  0.6013190150260925  1.0000
  Ce  Ce3       1.0  0.9280213713645936  0.7721759676933287  0.15012118220329276  1.0000
  Ga  Ga1       1.0  0.43823951482772827  0.5950222015380859  0.10819415003061293  1.0000
  Ga  Ga2       1.0  0.93490469455719  0.10135521739721297  0.6684877276420592  1.0000
  Ga  Ga3       1.0  0.43134298920631414  0.23229400813579557  0.7154306173324584  1.0000
  Ga  Ga4       1.0  0.43833795189857483  0.06341223418712616  0.8426572680473327  1.0000
  Ga  Ga5       1.0  0.9316276311874391  0.8961285948753356  0.7032747864723204  1.0000
