data_image0
_chemical_formula_structural       Al4CeCsGa4V
_chemical_formula_sum              "Al4 Ce1 Cs1 Ga4 V1"
_cell_length_a       4.013888569998086
_cell_length_b       7.0788309209629
_cell_length_c       7.416203498840332
_cell_angle_alpha    95.36460975175923
_cell_angle_beta     91.15234771919211
_cell_angle_gamma    95.54121140956498

_space_group_name_H-M_alt    "P 1"
_space_group_IT_number       1

loop_
  _space_group_symop_operation_xyz
  'x, y, z'

loop_
  _atom_site_type_symbol
  _atom_site_label
  _atom_site_symmetry_multiplicity
  _atom_site_fract_x
  _atom_site_fract_y
  _atom_site_fract_z
  _atom_site_occupancy
  Al  Al1       1.0  0.7121769785881042  0.5043559074401855  0.14899177849292755  1.0000
  Al  Al2       1.0  0.4328063726425171  0.1732913851737976  0.9495335221290588  1.0000
  Al  Al3       1.0  0.8468055725097656  0.8570794463157654  0.3113439977169037  1.0000
  Al  Al4       1.0  0.07826352119445801  0.12736959755420685  0.41364210844039917  1.0000
  Ce  Ce1       1.0  0.7329567074775696  0.5270058512687683  0.4232902228832245  1.0000
  Cs  Cs1       1.0  0.20367467403411865  0.9780661463737488  0.1452258676290512  1.0000
  Ga  Ga1       1.0  0.6556612253189087  0.6415998935699463  0.54535973072052  1.0000
  Ga  Ga2       1.0  0.2349601686000824  0.16610072553157806  0.8866719603538513  1.0000
  Ga  Ga3       1.0  0.23971489071846008  0.5170795321464539  0.8593376278877258  1.0000
  Ga  Ga4       1.0  0.7221516966819763  0.21099898219108582  0.6514411568641663  1.0000
  V   V1        1.0  0.9607236385345459  0.4445909559726715  0.9338540434837341  1.0000
