data_image0
_chemical_formula_structural       Al3Ce4Ga4
_chemical_formula_sum              "Al3 Ce4 Ga4"
_cell_length_a       4.779917050222231
_cell_length_b       7.834749000757005
_cell_length_c       7.971930027008057
_cell_angle_alpha    119.22685254659201
_cell_angle_beta     87.2587602694037
_cell_angle_gamma    86.65315890288919

_space_group_name_H-M_alt    "P 1"
_space_group_IT_number       1

loop_
  _space_group_symop_operation_xyz
  'x, y, z'

loop_
  _atom_site_type_symbol
  _atom_site_label
  _atom_site_symmetry_multiplicity
  _atom_site_fract_x
  _atom_site_fract_y
  _atom_site_fract_z
  _atom_site_occupancy
  Al  Al1       1.0  0.7279921174049377  0.0974673181772232  0.06339696049690247  1.0000
  Al  Al2       1.0  0.10039215534925461  0.2157657891511917  0.7424673438072206  1.0000
  Al  Al3       1.0  0.18827058374881744  0.5140427947044373  0.5009313225746155  1.0000
  Ce  Ce1       1.0  0.9539004564285278  0.7654135227203369  0.4663196802139283  1.0000
  Ce  Ce2       1.0  0.46271052956581116  0.6338185667991638  0.8295708894729615  1.0000
  Ce  Ce3       1.0  0.935268759727478  0.5551379919052124  0.5855424404144287  1.0000
  Ce  Ce4       1.0  0.21009461581707  0.7612878084182739  0.44489443302154547  1.0000
  Ga  Ga1       1.0  0.915179967880249  0.7037147879600525  0.017945073544979095  1.0000
  Ga  Ga2       1.0  0.6921614408493042  0.006555170752108097  0.009957891888916492  1.0000
  Ga  Ga3       1.0  0.4821512997150421  0.23107734322547913  0.5827722549438477  1.0000
  Ga  Ga4       1.0  0.4495204985141754  0.9582474231719971  0.82373183965683  1.0000
