data_image0
_chemical_formula_structural       Ca3CdPPdRh3
_chemical_formula_sum              "Ca3 Cd1 P1 Pd1 Rh3"
_cell_length_a       4.530281888933706
_cell_length_b       4.00352274409986
_cell_length_c       9.46954345703125
_cell_angle_alpha    79.57999037385753
_cell_angle_beta     77.59881269482723
_cell_angle_gamma    61.812163412398824

_space_group_name_H-M_alt    "P 1"
_space_group_IT_number       1

loop_
  _space_group_symop_operation_xyz
  'x, y, z'

loop_
  _atom_site_type_symbol
  _atom_site_label
  _atom_site_symmetry_multiplicity
  _atom_site_fract_x
  _atom_site_fract_y
  _atom_site_fract_z
  _atom_site_occupancy
  Ca  Ca1       1.0  0.9736936092376709  0.3193904459476471  0.1619032323360443  1.0000
  Ca  Ca2       1.0  0.007937312126159668  0.5799407958984375  0.16606007516384125  1.0000
  Ca  Ca3       1.0  0.4603146016597748  0.3158280551433563  0.0991475060582161  1.0000
  Cd  Cd1       1.0  0.34210994839668274  0.3341866135597229  0.36329302191734314  1.0000
  P   P1        1.0  0.25701436400413513  0.4896095097064972  0.16646495461463928  1.0000
  Pd  Pd1       1.0  0.6705092191696167  0.022356385365128517  0.41019830107688904  1.0000
  Rh  Rh1       1.0  0.19953498244285583  0.9948878288269043  0.6651903390884399  1.0000
  Rh  Rh2       1.0  0.6683737635612488  0.9847756624221802  0.4171292781829834  1.0000
  Rh  Rh3       1.0  0.36268672347068787  0.16478174924850464  0.8869606256484985  1.0000
