data_image0
_chemical_formula_structural       Ca5CdPdRh2
_chemical_formula_sum              "Ca5 Cd1 Pd1 Rh2"
_cell_length_a       4.909379248192126
_cell_length_b       5.5722263571141735
_cell_length_c       7.637704372406006
_cell_angle_alpha    71.46609716912879
_cell_angle_beta     68.03375780175774
_cell_angle_gamma    60.54723071890252

_space_group_name_H-M_alt    "P 1"
_space_group_IT_number       1

loop_
  _space_group_symop_operation_xyz
  'x, y, z'

loop_
  _atom_site_type_symbol
  _atom_site_label
  _atom_site_symmetry_multiplicity
  _atom_site_fract_x
  _atom_site_fract_y
  _atom_site_fract_z
  _atom_site_occupancy
  Ca  Ca1       1.0  0.8715789914131165  0.37545788288116455  0.2777083218097687  1.0000
  Ca  Ca2       1.0  0.8739714026451111  0.9859647750854492  0.6206160187721252  1.0000
  Ca  Ca3       1.0  0.5173150897026062  0.8414732813835144  0.11419867724180222  1.0000
  Ca  Ca4       1.0  0.37650981545448303  0.5016493797302246  0.07491219788789749  1.0000
  Ca  Ca5       1.0  0.7890578508377075  0.8400540351867676  0.3721048831939697  1.0000
  Cd  Cd1       1.0  0.8852936029434204  0.36002302169799805  0.008089968003332615  1.0000
  Pd  Pd1       1.0  0.17847342789173126  0.9886056184768677  0.6914027333259583  1.0000
  Rh  Rh1       1.0  0.24603399634361267  0.27617380023002625  0.3377557396888733  1.0000
  Rh  Rh2       1.0  0.33151814341545105  0.3337177336215973  0.11784791201353073  1.0000
