data_image0
_chemical_formula_structural       Ca6Pd2Rh
_chemical_formula_sum              "Ca6 Pd2 Rh1"
_cell_length_a       5.4001956331268115
_cell_length_b       5.947222610499927
_cell_length_c       8.478843688964844
_cell_angle_alpha    87.64518338482254
_cell_angle_beta     80.7663014308578
_cell_angle_gamma    65.48353568247423

_space_group_name_H-M_alt    "P 1"
_space_group_IT_number       1

loop_
  _space_group_symop_operation_xyz
  'x, y, z'

loop_
  _atom_site_type_symbol
  _atom_site_label
  _atom_site_symmetry_multiplicity
  _atom_site_fract_x
  _atom_site_fract_y
  _atom_site_fract_z
  _atom_site_occupancy
  Ca  Ca1       1.0  0.9240312576293946  0.1037275642156601  0.5992732644081116  1.0000
  Ca  Ca2       1.0  0.27212971448898315  0.9425437450408936  0.7198475003242493  1.0000
  Ca  Ca3       1.0  0.7646422982215881  0.4450058043003082  0.8496007323265076  1.0000
  Ca  Ca4       1.0  0.5470454096794128  0.12102209776639938  0.4220135807991027  1.0000
  Ca  Ca5       1.0  0.9174246191978456  0.811335563659668  0.6510978937149048  1.0000
  Ca  Ca6       1.0  0.26187247037887573  0.44051092863082886  0.3570006489753723  1.0000
  Pd  Pd1       1.0  0.581344485282898  0.885541558265686  0.9913416504859924  1.0000
  Pd  Pd2       1.0  0.22126770019531253  0.5999951958656311  0.8662246465682983  1.0000
  Rh  Rh1       1.0  0.07992234826087952  0.9441921710968018  0.9949924945831299  1.0000
