data_image0
_chemical_formula_structural       BCa4PdRh3
_chemical_formula_sum              "B1 Ca4 Pd1 Rh3"
_cell_length_a       4.599504104091375
_cell_length_b       4.52432948099746
_cell_length_c       8.153450012207031
_cell_angle_alpha    74.53542598388702
_cell_angle_beta     71.94711308901842
_cell_angle_gamma    60.34376754230677

_space_group_name_H-M_alt    "P 1"
_space_group_IT_number       1

loop_
  _space_group_symop_operation_xyz
  'x, y, z'

loop_
  _atom_site_type_symbol
  _atom_site_label
  _atom_site_symmetry_multiplicity
  _atom_site_fract_x
  _atom_site_fract_y
  _atom_site_fract_z
  _atom_site_occupancy
  B   B1        1.0  0.35767823457717896  0.8031883835792542  0.683489978313446  1.0000
  Ca  Ca1       1.0  0.8761244416236877  0.2571450471878052  0.18403095006942746  1.0000
  Ca  Ca2       1.0  0.3499816954135895  0.731698215007782  0.6827800869941711  1.0000
  Ca  Ca3       1.0  0.5709444880485535  0.5551358461380005  0.4467242360115051  1.0000
  Ca  Ca4       1.0  0.8932622075080872  0.6887246966362  0.7732737064361572  1.0000
  Pd  Pd1       1.0  0.347757488489151  0.25986307859420776  0.10806336253881453  1.0000
  Rh  Rh1       1.0  0.9840883016586304  0.24723981320858002  0.21482935547828672  1.0000
  Rh  Rh2       1.0  0.6499453186988831  0.08459455519914627  0.5951097011566162  1.0000
  Rh  Rh3       1.0  0.9247186183929443  0.7830076217651367  0.6694062948226929  1.0000
