data_image0
_chemical_formula_structural       GaHIMoPbPt4
_chemical_formula_sum              "Ga1 H1 I1 Mo1 Pb1 Pt4"
_cell_length_a       4.553655555225085
_cell_length_b       4.744807786950782
_cell_length_c       5.0436296463012695
_cell_angle_alpha    138.5294655108847
_cell_angle_beta     92.97713558207576
_cell_angle_gamma    89.81707643583182

_space_group_name_H-M_alt    "P 1"
_space_group_IT_number       1

loop_
  _space_group_symop_operation_xyz
  'x, y, z'

loop_
  _atom_site_type_symbol
  _atom_site_label
  _atom_site_symmetry_multiplicity
  _atom_site_fract_x
  _atom_site_fract_y
  _atom_site_fract_z
  _atom_site_occupancy
  Ga  Ga1       1.0  0.549116849899292  0.35368689894676203  0.14737184345722196  1.0000
  H   H1        1.0  0.06305409222841261  0.331227511167526  0.9945459961891173  1.0000
  I   I1        1.0  0.06345675885677338  0.36625364422798146  0.789701998233795  1.0000
  Mo  Mo1       1.0  0.6236274242401123  0.27885663509368874  0.8035454750061034  1.0000
  Pb  Pb1       1.0  0.5541232824325562  0.2505266368389129  0.3737723529338836  1.0000
  Pt  Pt1       1.0  0.03347489237785339  0.2092634439468382  0.7919594645500182  1.0000
  Pt  Pt2       1.0  0.1577642261981964  0.6780366301536558  0.5246164798736571  1.0000
  Pt  Pt3       1.0  0.550956666469574  0.4484044909477233  0.5728899240493773  1.0000
  Pt  Pt4       1.0  0.568715512752533  0.34599059820175165  0.021590318530797965  1.0000
