data_image0
_chemical_formula_structural       I3Mo2Pt4
_chemical_formula_sum              "I3 Mo2 Pt4"
_cell_length_a       6.092445132215885
_cell_length_b       6.8517392372875765
_cell_length_c       7.130021095275879
_cell_angle_alpha    79.47048608379912
_cell_angle_beta     69.19651145951813
_cell_angle_gamma    64.14944402137729

_space_group_name_H-M_alt    "P 1"
_space_group_IT_number       1

loop_
  _space_group_symop_operation_xyz
  'x, y, z'

loop_
  _atom_site_type_symbol
  _atom_site_label
  _atom_site_symmetry_multiplicity
  _atom_site_fract_x
  _atom_site_fract_y
  _atom_site_fract_z
  _atom_site_occupancy
  I   I1        1.0  0.5693534016609192  0.42263549566268926  0.5294688940048218  1.0000
  I   I2        1.0  0.9265754222869873  0.7551936507225038  0.5983496904373169  1.0000
  I   I3        1.0  0.623451828956604  0.07212039083242416  0.9878641366958618  1.0000
  Mo  Mo1       1.0  0.9090871810913086  0.3592482209205628  0.9881172180175781  1.0000
  Mo  Mo2       1.0  0.5794969201087952  0.584237813949585  0.16053219139575958  1.0000
  Pt  Pt1       1.0  0.4509444832801819  0.21959832310676577  0.5659866333007812  1.0000
  Pt  Pt2       1.0  0.9675001502037048  0.7250741720199586  0.502057671546936  1.0000
  Pt  Pt3       1.0  0.1288424879312515  0.4933722019195557  0.8465388417243958  1.0000
  Pt  Pt4       1.0  0.5603958964347839  0.2101113796234131  0.5666912198066711  1.0000
