data_image0
_chemical_formula_structural       CaIMoPPt4Te
_chemical_formula_sum              "Ca1 I1 Mo1 P1 Pt4 Te1"
_cell_length_a       6.244833280395344
_cell_length_b       6.24360890222925
_cell_length_c       7.133880615234375
_cell_angle_alpha    72.68033365678279
_cell_angle_beta     65.54014571414743
_cell_angle_gamma    58.5107453869883

_space_group_name_H-M_alt    "P 1"
_space_group_IT_number       1

loop_
  _space_group_symop_operation_xyz
  'x, y, z'

loop_
  _atom_site_type_symbol
  _atom_site_label
  _atom_site_symmetry_multiplicity
  _atom_site_fract_x
  _atom_site_fract_y
  _atom_site_fract_z
  _atom_site_occupancy
  Ca  Ca1       1.0  0.5019745826721191  0.7630471587181091  0.5165422558784485  1.0000
  I   I1        1.0  0.48849335312843317  0.6273547410964966  0.6093453764915466  1.0000
  Mo  Mo1       1.0  0.009663304314017296  0.05480949953198433  0.44837433099746704  1.0000
  P   P1        1.0  0.003524817526340484  0.8565962910652161  0.483388215303421  1.0000
  Pt  Pt1       1.0  0.24927602708339688  0.2567325830459595  0.3656954765319824  1.0000
  Pt  Pt2       1.0  0.9970273375511168  0.2661118507385254  0.2652941644191742  1.0000
  Pt  Pt3       1.0  0.5041540861129761  0.25051602721214294  0.5567828416824341  1.0000
  Pt  Pt4       1.0  0.5058324337005615  0.587262749671936  0.7580111026763916  1.0000
  Te  Te1       1.0  0.48427543044090265  0.6502924561500549  0.5432243943214417  1.0000
