data_image0
_chemical_formula_structural       Mo2Pt5Te2
_chemical_formula_sum              "Mo2 Pt5 Te2"
_cell_length_a       4.63474634762418
_cell_length_b       7.119641078022381
_cell_length_c       7.59971809387207
_cell_angle_alpha    119.97854614025752
_cell_angle_beta     90.4962527758132
_cell_angle_gamma    89.43953987046436

_space_group_name_H-M_alt    "P 1"
_space_group_IT_number       1

loop_
  _space_group_symop_operation_xyz
  'x, y, z'

loop_
  _atom_site_type_symbol
  _atom_site_label
  _atom_site_symmetry_multiplicity
  _atom_site_fract_x
  _atom_site_fract_y
  _atom_site_fract_z
  _atom_site_occupancy
  Mo  Mo1       1.0  0.3729376196861267  0.12056549638509749  0.876122772693634  1.0000
  Mo  Mo2       1.0  0.3959721028804779  0.6321777105331421  0.4632562100887299  1.0000
  Pt  Pt1       1.0  0.9279977679252625  0.6094817519187927  0.547210693359375  1.0000
  Pt  Pt2       1.0  0.37176957726478577  0.6890231966972351  0.9617519974708557  1.0000
  Pt  Pt3       1.0  0.43786951899528503  0.6101173758506775  0.8227255344390869  1.0000
  Pt  Pt4       1.0  0.6987146735191345  0.29673752188682556  0.6719362735748291  1.0000
  Pt  Pt5       1.0  0.8522576093673706  0.05629227310419082  0.018145736306905746  1.0000
  Te  Te1       1.0  0.8485614657402039  0.745143949985504  0.32403311133384705  1.0000
  Te  Te2       1.0  0.9157847166061401  0.5790891051292419  0.7821348905563354  1.0000
