data_image0
_chemical_formula_structural       O4PS5
_chemical_formula_sum              "O4 P1 S5"
_cell_length_a       5.060498931662239
_cell_length_b       6.666406586497438
_cell_length_c       8.247599601745605
_cell_angle_alpha    99.70799282929094
_cell_angle_beta     101.66965662631947
_cell_angle_gamma    88.65919965239

_space_group_name_H-M_alt    "P 1"
_space_group_IT_number       1

loop_
  _space_group_symop_operation_xyz
  'x, y, z'

loop_
  _atom_site_type_symbol
  _atom_site_label
  _atom_site_symmetry_multiplicity
  _atom_site_fract_x
  _atom_site_fract_y
  _atom_site_fract_z
  _atom_site_occupancy
  O   O1        1.0  0.9175270199775697  0.49054563045501703  0.9630481004714966  1.0000
  O   O2        1.0  0.3351791799068451  0.8461122512817382  0.40307340025901794  1.0000
  O   O3        1.0  0.8431826829910278  0.7681014537811278  0.09788553416728973  1.0000
  O   O4        1.0  0.9053238034248352  0.29683107137680054  0.6360674500465393  1.0000
  P   P1        1.0  0.4109499454498291  0.5218256711959839  0.5288903713226318  1.0000
  S   S1        1.0  0.7472434043884277  0.6399527192115784  0.21997970342636108  1.0000
  S   S2        1.0  0.2867652177810669  0.562140941619873  0.8417316675186157  1.0000
  S   S3        1.0  0.6024081707000732  0.2784994840621948  0.08073722571134567  1.0000
  S   S4        1.0  0.7890833616256714  0.7086289525032042  0.016252031549811363  1.0000
  S   S5        1.0  0.33067381381988525  0.02831253223121166  0.46788331866264343  1.0000
