data_image0
_chemical_formula_structural       O3PS5U
_chemical_formula_sum              "O3 P1 S5 U1"
_cell_length_a       5.4470375634275605
_cell_length_b       5.895178768212828
_cell_length_c       7.423615455627441
_cell_angle_alpha    90.8283130566307
_cell_angle_beta     91.71764159792201
_cell_angle_gamma    88.81887813296858

_space_group_name_H-M_alt    "P 1"
_space_group_IT_number       1

loop_
  _space_group_symop_operation_xyz
  'x, y, z'

loop_
  _atom_site_type_symbol
  _atom_site_label
  _atom_site_symmetry_multiplicity
  _atom_site_fract_x
  _atom_site_fract_y
  _atom_site_fract_z
  _atom_site_occupancy
  O   O1        1.0  0.45039799809455866  0.4716691672801972  0.15232059359550476  1.0000
  O   O2        1.0  0.20732475817203522  0.626829206943512  0.9521071314811707  1.0000
  O   O3        1.0  0.6250655055046082  0.8974159955978394  0.2540537118911743  1.0000
  P   P1        1.0  0.27273356914520264  0.4969106316566468  0.38100579380989075  1.0000
  S   S1        1.0  0.18581336736679077  0.215660959482193  0.4389224648475647  1.0000
  S   S2        1.0  0.0927855372428894  0.3179318308830261  0.1442413032054901  1.0000
  S   S3        1.0  0.12083172053098679  0.824988603591919  0.8060192465782166  1.0000
  S   S4        1.0  0.6185051202774048  0.5537751913070679  0.7893648147583008  1.0000
  S   S5        1.0  0.6501588225364685  0.2105538696050644  0.8047184348106384  1.0000
  U   U1        1.0  0.8961693644523621  0.9870405793190004  0.5591907501220703  1.0000
