data_image0
_chemical_formula_structural       O3Ru2S5
_chemical_formula_sum              "O3 Ru2 S5"
_cell_length_a       5.579979700006642
_cell_length_b       5.864674088389593
_cell_length_c       6.4796462059021
_cell_angle_alpha    92.3994167791607
_cell_angle_beta     91.00540179849219
_cell_angle_gamma    88.90279624088595

_space_group_name_H-M_alt    "P 1"
_space_group_IT_number       1

loop_
  _space_group_symop_operation_xyz
  'x, y, z'

loop_
  _atom_site_type_symbol
  _atom_site_label
  _atom_site_symmetry_multiplicity
  _atom_site_fract_x
  _atom_site_fract_y
  _atom_site_fract_z
  _atom_site_occupancy
  O   O1        1.0  0.7084136605262756  0.4100863337516785  0.02095530554652214  1.0000
  O   O2        1.0  0.028911475092172623  0.26380109786987305  0.5354179739952087  1.0000
  O   O3        1.0  0.7034088373184203  0.8988543152809144  0.5697839260101318  1.0000
  Ru  Ru1       1.0  0.03857441991567612  0.4104714691638947  0.5960341691970825  1.0000
  Ru  Ru2       1.0  0.349240779876709  0.3993468582630158  0.26535889506340027  1.0000
  S   S1        1.0  0.011950362473726273  0.5570937395095825  0.0888739824295044  1.0000
  S   S2        1.0  0.40309226512908936  0.10392631590366365  0.04724951088428497  1.0000
  S   S3        1.0  0.681453287601471  0.8825548291206361  0.08089128136634827  1.0000
  S   S4        1.0  0.1365230828523636  0.8837643861770631  0.5084512829780579  1.0000
  S   S5        1.0  0.38241201639175415  0.38912355899810797  0.2961219549179077  1.0000
