data_image0
_chemical_formula_structural       O4RuS5
_chemical_formula_sum              "O4 Ru1 S5"
_cell_length_a       5.388503355105499
_cell_length_b       5.22982542099302
_cell_length_c       6.290452003479004
_cell_angle_alpha    89.11981805097692
_cell_angle_beta     90.03037641919244
_cell_angle_gamma    95.91623549185663

_space_group_name_H-M_alt    "P 1"
_space_group_IT_number       1

loop_
  _space_group_symop_operation_xyz
  'x, y, z'

loop_
  _atom_site_type_symbol
  _atom_site_label
  _atom_site_symmetry_multiplicity
  _atom_site_fract_x
  _atom_site_fract_y
  _atom_site_fract_z
  _atom_site_occupancy
  O   O1        1.0  0.673977255821228  0.4041743874549866  0.7713022828102112  1.0000
  O   O2        1.0  0.4655736088752746  0.6687153577804565  0.5894314646720886  1.0000
  O   O3        1.0  0.9370936155319213  0.6597207188606262  0.4701108038425445  1.0000
  O   O4        1.0  0.3593710958957672  0.04693062976002693  0.30330079793930054  1.0000
  Ru  Ru1       1.0  0.729772686958313  0.3541356921195984  0.9748199582099913  1.0000
  S   S1        1.0  0.9964646697044371  0.6656106114387512  0.9539574980735778  1.0000
  S   S2        1.0  0.008825674653053284  0.17242102324962616  0.17220667004585266  1.0000
  S   S3        1.0  0.042749665677547455  0.8191788196563721  0.11777733266353606  1.0000
  S   S4        1.0  0.476677119731903  0.15635135769844055  0.5139026641845703  1.0000
  S   S5        1.0  0.5066153407096863  0.6802025437355042  0.2514265477657318  1.0000
