data_image0
_chemical_formula_structural       O5PPrS3
_chemical_formula_sum              "O5 P1 Pr1 S3"
_cell_length_a       5.392336974027509
_cell_length_b       5.491080559987856
_cell_length_c       7.030539035797119
_cell_angle_alpha    106.58171409313032
_cell_angle_beta     107.55721418556453
_cell_angle_gamma    89.63007531222921

_space_group_name_H-M_alt    "P 1"
_space_group_IT_number       1

loop_
  _space_group_symop_operation_xyz
  'x, y, z'

loop_
  _atom_site_type_symbol
  _atom_site_label
  _atom_site_symmetry_multiplicity
  _atom_site_fract_x
  _atom_site_fract_y
  _atom_site_fract_z
  _atom_site_occupancy
  O   O1        1.0  0.46671539545059204  0.38916516304016113  0.9932485222816466  1.0000
  O   O2        1.0  0.09505351632833481  0.8731738328933716  0.9793197512626647  1.0000
  O   O3        1.0  0.31840792298316956  0.6552006006240845  0.25001922249794  1.0000
  O   O4        1.0  0.80465167760849  0.35861825942993164  0.3550843298435211  1.0000
  O   O5        1.0  0.10445501655340195  0.6608131527900696  0.5266257524490356  1.0000
  P   P1        1.0  0.5207226872444153  0.2111022174358368  0.5185686945915222  1.0000
  Pr  Pr1       1.0  0.7729043960571289  0.6124194264411926  0.005895036272704601  1.0000
  S   S1        1.0  0.31032899022102356  0.015718309208750725  0.2820201814174652  1.0000
  S   S2        1.0  0.7801094651222229  0.16665391623973846  0.01107938680797812  1.0000
  S   S3        1.0  0.7992766499519348  0.03338291496038437  0.17876203358173365  1.0000
