data_image0
_chemical_formula_structural       O4S5Zn
_chemical_formula_sum              "O4 S5 Zn1"
_cell_length_a       5.032313185937156
_cell_length_b       6.644834365064655
_cell_length_c       7.251773357391357
_cell_angle_alpha    95.42353618813071
_cell_angle_beta     95.11798162290731
_cell_angle_gamma    88.7771695963411

_space_group_name_H-M_alt    "P 1"
_space_group_IT_number       1

loop_
  _space_group_symop_operation_xyz
  'x, y, z'

loop_
  _atom_site_type_symbol
  _atom_site_label
  _atom_site_symmetry_multiplicity
  _atom_site_fract_x
  _atom_site_fract_y
  _atom_site_fract_z
  _atom_site_occupancy
  O   O1        1.0  0.4466343820095062  0.6366665959358215  0.8160808086395265  1.0000
  O   O2        1.0  0.25820302963256836  0.4181235134601593  0.05157830566167832  1.0000
  O   O3        1.0  0.7330923080444336  0.9722916483879089  0.7733441591262818  1.0000
  O   O4        1.0  0.7581943869590759  0.6369494199752808  0.44297739863395696  1.0000
  S   S1        1.0  0.8439894318580627  0.954787015914917  0.49263945221900945  1.0000
  S   S2        1.0  0.7723284363746643  0.43982556462287903  0.7404494881629945  1.0000
  S   S3        1.0  0.3592466711997986  0.09612689912319183  0.2753797173500061  1.0000
  S   S4        1.0  0.09759409725666046  0.6040121912956238  0.47279867529869085  1.0000
  S   S5        1.0  0.26381707191467285  0.9165502786636353  0.7892178893089296  1.0000
  Zn  Zn1       1.0  0.3430930972099304  0.3433972895145416  0.42639017105102545  1.0000
