data_image0
_chemical_formula_structural       Al2FHIO4P2Zr
_chemical_formula_sum              "Al2 F1 H1 I1 O4 P2 Zr1"
_cell_length_a       3.4631712590767383
_cell_length_b       2.3112324839738774
_cell_length_c       5.17244291305542
_cell_angle_alpha    81.6982555514295
_cell_angle_beta     82.09798016922367
_cell_angle_gamma    81.56341589400488

_space_group_name_H-M_alt    "P 1"
_space_group_IT_number       1

loop_
  _space_group_symop_operation_xyz
  'x, y, z'

loop_
  _atom_site_type_symbol
  _atom_site_label
  _atom_site_symmetry_multiplicity
  _atom_site_fract_x
  _atom_site_fract_y
  _atom_site_fract_z
  _atom_site_occupancy
  Al  Al1       1.0  0.34585970640182495  0.8662739396095276  0.9662228226661682  1.0000
  Al  Al2       1.0  0.39819976687431335  0.18773457407951355  0.19617106020450592  1.0000
  F   F1        1.0  0.6332923769950867  0.02139340713620186  0.23396728932857513  1.0000
  H   H1        1.0  0.8793151378631592  0.8431422710418701  0.39340442419052124  1.0000
  I   I1        1.0  0.5649715662002563  0.15600192546844482  0.5982249975204468  1.0000
  O   O1        1.0  0.2671322226524353  0.8140792846679688  0.6863807439804077  1.0000
  O   O2        1.0  0.2801816463470459  0.5613611936569214  0.25524821877479553  1.0000
  O   O3        1.0  0.7397280335426331  0.8368972539901733  0.2940341532230377  1.0000
  O   O4        1.0  0.8200634717941284  0.04140210151672363  0.8983057737350464  1.0000
  P   P1        1.0  0.8321917653083801  0.6897380352020264  0.8704864978790283  1.0000
  P   P2        1.0  0.24549125134944916  0.7373142242431641  0.49025896191596985  1.0000
  Zr  Zr1       1.0  0.24649342894554138  0.25180938839912415  0.1655268669128418  1.0000
