data_image0
_chemical_formula_structural       Al2H2IO2P4Tb
_chemical_formula_sum              "Al2 H2 I1 O2 P4 Tb1"
_cell_length_a       5.104989569433911
_cell_length_b       5.158805234229987
_cell_length_c       7.117955207824707
_cell_angle_alpha    105.85747743280437
_cell_angle_beta     98.5807448959951
_cell_angle_gamma    116.388017610675

_space_group_name_H-M_alt    "P 1"
_space_group_IT_number       1

loop_
  _space_group_symop_operation_xyz
  'x, y, z'

loop_
  _atom_site_type_symbol
  _atom_site_label
  _atom_site_symmetry_multiplicity
  _atom_site_fract_x
  _atom_site_fract_y
  _atom_site_fract_z
  _atom_site_occupancy
  Al  Al1       1.0  0.6594792008399963  0.1631154865026474  0.1765996515750885  1.0000
  Al  Al2       1.0  0.721244215965271  0.8188450336456299  0.5741173624992371  1.0000
  H   H1        1.0  0.06784075498580933  0.629580020904541  0.8566694855690002  1.0000
  H   H2        1.0  0.47583621740341187  0.3765795826911926  0.4944985806941986  1.0000
  I   I1        1.0  0.13349056243896484  0.17248933017253876  0.31492215394973755  1.0000
  O   O1        1.0  0.25305822491645813  0.8987461924552917  0.613163948059082  1.0000
  O   O2        1.0  0.114896260201931  0.14567676186561584  0.21529683470726013  1.0000
  P   P1        1.0  0.3095339238643646  0.6467112302780151  0.41060134768486023  1.0000
  P   P2        1.0  0.7493545413017273  0.353937029838562  0.5961151719093323  1.0000
  P   P3        1.0  0.28697583079338074  0.37102171778678894  0.4088164269924164  1.0000
  P   P4        1.0  0.48176753520965576  0.07349354028701782  0.8027843236923218  1.0000
  Tb  Tb1       1.0  0.20553015172481537  0.4743635356426239  0.24083203077316284  1.0000
