data_image0
_chemical_formula_structural       AlH5O2P4
_chemical_formula_sum              "Al1 H5 O2 P4"
_cell_length_a       4.120653070343522
_cell_length_b       4.229904574538098
_cell_length_c       6.585936546325684
_cell_angle_alpha    80.55729539813915
_cell_angle_beta     73.46606827291001
_cell_angle_gamma    59.269580777840865

_space_group_name_H-M_alt    "P 1"
_space_group_IT_number       1

loop_
  _space_group_symop_operation_xyz
  'x, y, z'

loop_
  _atom_site_type_symbol
  _atom_site_label
  _atom_site_symmetry_multiplicity
  _atom_site_fract_x
  _atom_site_fract_y
  _atom_site_fract_z
  _atom_site_occupancy
  Al  Al1       1.0  0.302036851644516  0.509845495223999  0.5968502759933472  1.0000
  H   H1        1.0  0.9191622734069824  0.15453092753887177  0.7784625291824342  1.0000
  H   H2        1.0  0.9140297174453735  0.5443695187568665  0.7621359825134278  1.0000
  H   H3        1.0  0.9230118989944458  0.5242931842803955  0.957625985145569  1.0000
  H   H4        1.0  0.9130464792251587  0.9977303743362427  0.9876769781112672  1.0000
  H   H5        1.0  0.05720369890332222  0.12108197808265686  0.7716532349586488  1.0000
  O   O1        1.0  0.1460188329219818  0.8407315015792847  0.4934928715229035  1.0000
  O   O2        1.0  0.4155234396457672  0.7003465294837952  0.44376775622367864  1.0000
  P   P1        1.0  0.4278724491596222  0.6470054984092712  0.1953823417425156  1.0000
  P   P2        1.0  0.450544536113739  0.7617481350898743  0.2753981351852417  1.0000
  P   P3        1.0  0.9098770022392273  0.42932024598121643  0.6337777972221375  1.0000
  P   P4        1.0  0.9056760668754578  0.8261728286743164  0.32169774174690247  1.0000
