data_image0
_chemical_formula_structural       H4IO2P5
_chemical_formula_sum              "H4 I1 O2 P5"
_cell_length_a       5.030129453257069
_cell_length_b       5.485452772749474
_cell_length_c       7.099518299102783
_cell_angle_alpha    68.6670331975029
_cell_angle_beta     70.0524753121856
_cell_angle_gamma    63.69345793912504

_space_group_name_H-M_alt    "P 1"
_space_group_IT_number       1

loop_
  _space_group_symop_operation_xyz
  'x, y, z'

loop_
  _atom_site_type_symbol
  _atom_site_label
  _atom_site_symmetry_multiplicity
  _atom_site_fract_x
  _atom_site_fract_y
  _atom_site_fract_z
  _atom_site_occupancy
  H   H1        1.0  0.024866996333003044  0.5044888257980347  0.08086254447698593  1.0000
  H   H2        1.0  0.11091843992471695  0.07220586389303207  0.40731656551361084  1.0000
  H   H3        1.0  0.4079926908016205  0.35354089736938477  0.664510190486908  1.0000
  H   H4        1.0  0.4999353587627411  0.7337797284126282  0.6766909956932068  1.0000
  I   I1        1.0  0.9759530425071716  0.027518397197127342  0.9123887419700623  1.0000
  O   O1        1.0  0.38254040479660034  0.9305687546730042  0.6235665082931519  1.0000
  O   O2        1.0  0.5690928101539612  0.428694486618042  0.8201465010643005  1.0000
  P   P1        1.0  0.9018185138702393  0.23220494389533997  0.6529992818832397  1.0000
  P   P2        1.0  0.5094611644744873  0.4993654489517212  0.7387458682060242  1.0000
  P   P3        1.0  0.4850009083747864  0.6838743686676025  0.2392541766166687  1.0000
  P   P4        1.0  0.5163261294364929  0.7186826467514038  0.6420354843139648  1.0000
  P   P5        1.0  0.2066369503736496  0.26044201850891113  0.9218166470527649  1.0000
