data_image0
_chemical_formula_structural       AlH3O5P3
_chemical_formula_sum              "Al1 H3 O5 P3"
_cell_length_a       4.78841935450615
_cell_length_b       5.47930505495815
_cell_length_c       6.082991600036621
_cell_angle_alpha    67.5891466924294
_cell_angle_beta     69.23040678755572
_cell_angle_gamma    63.303662982154655

_space_group_name_H-M_alt    "P 1"
_space_group_IT_number       1

loop_
  _space_group_symop_operation_xyz
  'x, y, z'

loop_
  _atom_site_type_symbol
  _atom_site_label
  _atom_site_symmetry_multiplicity
  _atom_site_fract_x
  _atom_site_fract_y
  _atom_site_fract_z
  _atom_site_occupancy
  Al  Al1       1.0  0.9323528409004211  0.6522324681282043  0.20487184822559357  1.0000
  H   H1        1.0  0.4407115578651428  0.26961058378219604  0.9624961018562317  1.0000
  H   H2        1.0  0.22772465646266937  0.5414726734161377  0.17736844718456268  1.0000
  H   H3        1.0  0.9270767569541931  0.026106886565685272  0.9256865382194519  1.0000
  O   O1        1.0  0.6201865077018738  0.7371299862861633  0.006358735263347626  1.0000
  O   O2        1.0  0.9888367056846619  0.8915408849716187  0.7056061029434204  1.0000
  O   O3        1.0  0.9826985597610474  0.8255529999732971  0.25698021054267883  1.0000
  O   O4        1.0  0.4736645519733429  0.0642470046877861  0.9172956347465515  1.0000
  O   O5        1.0  0.6418234705924988  0.11442161351442337  0.9441370964050293  1.0000
  P   P1        1.0  0.42166227102279663  0.55068439245224  0.7992519736289978  1.0000
  P   P2        1.0  0.5852404832839966  0.6256204843521118  0.6396899223327637  1.0000
  P   P3        1.0  0.9773661494255066  0.6997607946395874  0.24557089805603027  1.0000
