data_image0
_chemical_formula_structural       AlH3NiO4P3
_chemical_formula_sum              "Al1 H3 Ni1 O4 P3"
_cell_length_a       4.109124054297495
_cell_length_b       4.293727257077727
_cell_length_c       6.531373023986816
_cell_angle_alpha    73.7397713464464
_cell_angle_beta     65.5110124426735
_cell_angle_gamma    65.68306775383093

_space_group_name_H-M_alt    "P 1"
_space_group_IT_number       1

loop_
  _space_group_symop_operation_xyz
  'x, y, z'

loop_
  _atom_site_type_symbol
  _atom_site_label
  _atom_site_symmetry_multiplicity
  _atom_site_fract_x
  _atom_site_fract_y
  _atom_site_fract_z
  _atom_site_occupancy
  Al  Al1       1.0  0.794124662876129  0.6121001839637756  0.13707792758941656  1.0000
  H   H1        1.0  0.4038346111774444  0.9402629137039185  0.3074598014354706  1.0000
  H   H2        1.0  0.3192998766899109  0.7494228482246399  0.1134999170899391  1.0000
  H   H3        1.0  0.30354535579681396  0.3818485736846924  0.14438018202781677  1.0000
  Ni  Ni1       1.0  0.9557374715805053  0.4365585446357727  0.44988915324211115  1.0000
  O   O1        1.0  0.35475787520408625  0.49526888132095337  0.7536368370056152  1.0000
  O   O2        1.0  0.578843891620636  0.4928680956363678  0.18250526487827304  1.0000
  O   O3        1.0  0.8028306365013121  0.33231908082962036  0.7662379145622253  1.0000
  O   O4        1.0  0.32859188318252563  0.2173195779323578  0.28031331300735474  1.0000
  P   P1        1.0  0.7898294329643248  0.8380878567695618  0.5633150935173035  1.0000
  P   P2        1.0  0.8241910934448241  0.944507896900177  0.6333061456680298  1.0000
  P   P3        1.0  0.2925950288772583  0.5765780806541443  0.1676289439201355  1.0000
