data_image0
_chemical_formula_structural       F5I2LiMoOPb2PtUZnZr
_chemical_formula_sum              "F5 I2 Li1 Mo1 O1 Pb2 Pt1 U1 Zn1 Zr1"
_cell_length_a       7.228260192829866
_cell_length_b       7.278696543463525
_cell_length_c       8.680649757385254
_cell_angle_alpha    74.63596183037197
_cell_angle_beta     70.76027269024715
_cell_angle_gamma    65.62458876611306

_space_group_name_H-M_alt    "P 1"
_space_group_IT_number       1

loop_
  _space_group_symop_operation_xyz
  'x, y, z'

loop_
  _atom_site_type_symbol
  _atom_site_label
  _atom_site_symmetry_multiplicity
  _atom_site_fract_x
  _atom_site_fract_y
  _atom_site_fract_z
  _atom_site_occupancy
  F   F1        1.0  0.9787239432334899  0.0652342364192009  0.9292259812355042  1.0000
  F   F2        1.0  0.37541607022285456  0.4948127865791321  0.54594886302948  1.0000
  F   F3        1.0  0.9174365401268004  0.33967718482017517  0.18531344830989838  1.0000
  F   F4        1.0  0.9321249723434447  0.9680039286613464  0.9470890164375305  1.0000
  F   F5        1.0  0.36588716506958  0.5437334179878235  0.37271586060523987  1.0000
  I   I1        1.0  0.5114546418190002  0.3992159068584442  0.34311816096305847  1.0000
  I   I2        1.0  0.3669947981834411  0.6114264726638794  0.5056281089782715  1.0000
  Li  Li1       1.0  0.19606943428516385  0.4449108839035034  0.21849603950977325  1.0000
  Mo  Mo1       1.0  0.7132295370101929  0.2523757517337799  0.21291425824165344  1.0000
  O   O1        1.0  0.12774024903774261  0.5691487193107605  0.6447497606277466  1.0000
  Pb  Pb1       1.0  0.9885166287422179  0.5486673712730408  0.8816404342651367  1.0000
  Pb  Pb2       1.0  0.0785517692565918  0.5882851481437683  0.5598874688148499  1.0000
  Pt  Pt1       1.0  0.34603151679039  0.20751135051250458  0.2710381746292114  1.0000
  U   U1        1.0  0.7154017090797424  0.08474069833755493  0.05307813361287117  1.0000
  Zn  Zn1       1.0  0.49131679534912104  0.5331555008888245  0.7103225588798523  1.0000
  Zr  Zr1       1.0  0.6079661250114441  0.6864305734634399  0.77513188123703  1.0000
