data_image0
_chemical_formula_structural       F4IKMo3O4SbVZr
_chemical_formula_sum              "F4 I1 K1 Mo3 O4 Sb1 V1 Zr1"
_cell_length_a       7.027565008778562
_cell_length_b       6.732315366633669
_cell_length_c       7.959173679351807
_cell_angle_alpha    111.99645105483046
_cell_angle_beta     106.83201285123538
_cell_angle_gamma    110.41962843412885

_space_group_name_H-M_alt    "P 1"
_space_group_IT_number       1

loop_
  _space_group_symop_operation_xyz
  'x, y, z'

loop_
  _atom_site_type_symbol
  _atom_site_label
  _atom_site_symmetry_multiplicity
  _atom_site_fract_x
  _atom_site_fract_y
  _atom_site_fract_z
  _atom_site_occupancy
  F   F1        1.0  0.8397443294525146  0.09897913038730621  0.42453280091285706  1.0000
  F   F2        1.0  0.038474444299936295  0.49433133006095886  0.48217105865478516  1.0000
  F   F3        1.0  0.23634818196296692  0.27155235409736633  0.5387911200523376  1.0000
  F   F4        1.0  0.5596676468849182  0.50437992811203  0.6534494757652283  1.0000
  I   I1        1.0  0.11289097368717194  0.11982552707195282  0.8955338597297668  1.0000
  K   K1        1.0  0.4622705578804016  0.1020352765917778  0.697741687297821  1.0000
  Mo  Mo1       1.0  0.06489923596382141  0.3832099437713623  0.14436885714530945  1.0000
  Mo  Mo2       1.0  0.2837522327899933  0.8548526763916016  0.6678696274757385  1.0000
  Mo  Mo3       1.0  0.6049771308898926  0.49405622482299805  0.6792597770690918  1.0000
  O   O1        1.0  0.7710413336753845  0.16316403448581696  0.2878643274307251  1.0000
  O   O2        1.0  0.5587779879570007  0.23877616226673126  0.9581539034843445  1.0000
  O   O3        1.0  0.9850459694862366  0.6327232122421265  0.08440438657999039  1.0000
  O   O4        1.0  0.5154693722724915  0.8279821276664734  0.8157696723937988  1.0000
  Sb  Sb1       1.0  0.5803656578063965  0.7840760946273804  0.3242319226264954  1.0000
  V   V1        1.0  0.603816032409668  0.46323317289352417  0.670121431350708  1.0000
  Zr  Zr1       1.0  0.8383136987686157  0.4443526268005371  0.4276907742023468  1.0000
