data_image0
_chemical_formula_structural       CaF6IO6PbV
_chemical_formula_sum              "Ca1 F6 I1 O6 Pb1 V1"
_cell_length_a       6.7920272324200575
_cell_length_b       6.866869834806189
_cell_length_c       7.114953517913818
_cell_angle_alpha    62.84673286433398
_cell_angle_beta     61.56296095284725
_cell_angle_gamma    60.76357053815848

_space_group_name_H-M_alt    "P 1"
_space_group_IT_number       1

loop_
  _space_group_symop_operation_xyz
  'x, y, z'

loop_
  _atom_site_type_symbol
  _atom_site_label
  _atom_site_symmetry_multiplicity
  _atom_site_fract_x
  _atom_site_fract_y
  _atom_site_fract_z
  _atom_site_occupancy
  Ca  Ca1       1.0  0.15021654963493347  0.48256075382232666  0.5407710075378418  1.0000
  F   F1        1.0  0.257554292678833  0.2836882770061493  0.8431875705718993  1.0000
  F   F2        1.0  0.6137568950653076  0.9598556160926819  0.19547942280769345  1.0000
  F   F3        1.0  0.23738418519496918  0.3376903831958771  0.7842712998390197  1.0000
  F   F4        1.0  0.4538431763648987  0.38950809836387634  0.8317753076553344  1.0000
  F   F5        1.0  0.7947918176651001  0.3646228313446045  0.4695250988006591  1.0000
  F   F6        1.0  0.0063227200880646706  0.12840873003005981  0.33711606264114374  1.0000
  I   I1        1.0  0.049589771777391434  0.9199156165122986  0.2511746883392334  1.0000
  O   O1        1.0  0.2936416268348694  0.0420122928917408  0.8693807721137999  1.0000
  O   O2        1.0  0.2466801106929779  0.973656177520752  0.04920773953199386  1.0000
  O   O3        1.0  0.10506533086299896  0.6224914789199829  0.6909461021423339  1.0000
  O   O4        1.0  0.645817220211029  0.31274524331092834  0.6665432453155516  1.0000
  O   O5        1.0  0.12363205850124359  0.1046619638800621  0.5921255350112915  1.0000
  O   O6        1.0  0.7808437943458557  0.36917176842689514  0.37573453783988947  1.0000
  Pb  Pb1       1.0  0.6740778684616089  0.7561404705047607  0.9440958499908446  1.0000
  V   V1        1.0  0.9754696488380432  0.8357793688774109  0.17264217138290402  1.0000
