data_image0
_chemical_formula_structural       F6Na3O7
_chemical_formula_sum              "F6 Na3 O7"
_cell_length_a       6.27449776993041
_cell_length_b       6.376509586740526
_cell_length_c       7.064168930053711
_cell_angle_alpha    110.9873937162344
_cell_angle_beta     115.46110011151579
_cell_angle_gamma    100.47912976628037

_space_group_name_H-M_alt    "P 1"
_space_group_IT_number       1

loop_
  _space_group_symop_operation_xyz
  'x, y, z'

loop_
  _atom_site_type_symbol
  _atom_site_label
  _atom_site_symmetry_multiplicity
  _atom_site_fract_x
  _atom_site_fract_y
  _atom_site_fract_z
  _atom_site_occupancy
  F   F1        1.0  0.7047829031944275  0.3458692133426666  0.645402729511261  1.0000
  F   F2        1.0  0.8292316198348999  0.11844729632139206  0.10309126228094102  1.0000
  F   F3        1.0  0.7418227195739746  0.11841129511594772  0.44176304340362554  1.0000
  F   F4        1.0  0.7015728950500488  0.9019842743873596  0.7194955348968507  1.0000
  F   F5        1.0  0.17340806126594543  0.5114346146583557  0.20652584731578832  1.0000
  F   F6        1.0  0.6874282956123352  0.06341688334941864  0.25614166259765625  1.0000
  Na  Na1       1.0  0.1803111732006073  0.502536416053772  0.5088971257209778  1.0000
  Na  Na2       1.0  0.9261134266853333  0.09332846850156784  0.5538060665130615  1.0000
  Na  Na3       1.0  0.4853942394256592  0.05453359708189964  0.42337912321090704  1.0000
  O   O1        1.0  0.8077256679534912  0.9833016991615295  0.06832002103328705  1.0000
  O   O2        1.0  0.22482562065124512  0.11172756552696228  0.09868304431438447  1.0000
  O   O3        1.0  0.1572338342666626  0.23653680086135864  0.09348324686288836  1.0000
  O   O4        1.0  0.2109132558107376  0.33608394861221313  0.009366613812744617  1.0000
  O   O5        1.0  0.15125784277915955  0.5372936129570007  0.7515839338302613  1.0000
  O   O6        1.0  0.1723962426185608  0.6925049424171448  0.4948299825191499  1.0000
  O   O7        1.0  0.6783570051193237  0.732063889503479  0.2186845839023591  1.0000
