data_image0
_chemical_formula_structural       F5Na2O9
_chemical_formula_sum              "F5 Na2 O9"
_cell_length_a       5.870540053151602
_cell_length_b       5.935737577640556
_cell_length_c       6.145879745483398
_cell_angle_alpha    103.4348741576924
_cell_angle_beta     100.73233015418538
_cell_angle_gamma    99.65147052303968

_space_group_name_H-M_alt    "P 1"
_space_group_IT_number       1

loop_
  _space_group_symop_operation_xyz
  'x, y, z'

loop_
  _atom_site_type_symbol
  _atom_site_label
  _atom_site_symmetry_multiplicity
  _atom_site_fract_x
  _atom_site_fract_y
  _atom_site_fract_z
  _atom_site_occupancy
  F   F1        1.0  0.3206772208213806  0.4598841369152069  0.8958455324172974  1.0000
  F   F2        1.0  0.4861385524272918  0.10268689692020416  0.3230733871459961  1.0000
  F   F3        1.0  0.8101118206977843  0.3024757206439972  0.046617940068244934  1.0000
  F   F4        1.0  0.8191531896591185  0.5761609673500061  0.012507658451795578  1.0000
  F   F5        1.0  0.8280805349349974  0.7519536018371582  0.8423070907592773  1.0000
  Na  Na1       1.0  0.8100973367691039  0.5298320055007935  0.41225937008857727  1.0000
  Na  Na2       1.0  0.33289483189582825  0.2361048012971878  0.8479002714157104  1.0000
  O   O1        1.0  0.7371909618377684  0.5997124910354614  0.42673859000205994  1.0000
  O   O2        1.0  0.8749665021896361  0.0008717481978237629  0.9685283303260803  1.0000
  O   O3        1.0  0.8601766228675841  0.4871343672275543  0.40074434876441956  1.0000
  O   O4        1.0  0.8538046479225158  0.5832237005233765  0.33802860975265503  1.0000
  O   O5        1.0  0.5441408157348633  0.919890820980072  0.6964044570922852  1.0000
  O   O6        1.0  0.8290294408798217  0.8503975868225098  0.37662574648857117  1.0000
  O   O7        1.0  0.5196434259414673  0.19718478620052338  0.3340611755847931  1.0000
  O   O8        1.0  0.25679832696914673  0.6322030425071716  0.7448918223381042  1.0000
  O   O9        1.0  0.15942513942718506  0.8434085845947266  0.7223405241966248  1.0000
