data_image0
_chemical_formula_structural       F7O7V2
_chemical_formula_sum              "F7 O7 V2"
_cell_length_a       6.403218033257412
_cell_length_b       6.414485256245929
_cell_length_c       6.6872735023498535
_cell_angle_alpha    62.15316346265169
_cell_angle_beta     60.99708225766517
_cell_angle_gamma    56.74175279245172

_space_group_name_H-M_alt    "P 1"
_space_group_IT_number       1

loop_
  _space_group_symop_operation_xyz
  'x, y, z'

loop_
  _atom_site_type_symbol
  _atom_site_label
  _atom_site_symmetry_multiplicity
  _atom_site_fract_x
  _atom_site_fract_y
  _atom_site_fract_z
  _atom_site_occupancy
  F   F1        1.0  0.17936408519744873  0.8994552493095398  0.8039916753768921  1.0000
  F   F2        1.0  0.9683360457420349  0.410094678401947  0.6499896049499512  1.0000
  F   F3        1.0  0.9170048832893372  0.65995192527771  0.28158509731292725  1.0000
  F   F4        1.0  0.3376167118549347  0.8971971869468689  0.9631972312927246  1.0000
  F   F5        1.0  0.3736298680305481  0.6450486779212952  0.5077751874923706  1.0000
  F   F6        1.0  0.22298148274421692  0.6090391874313354  0.4853600561618805  1.0000
  F   F7        1.0  0.8352751135826111  0.165216863155365  0.4992839992046356  1.0000
  O   O1        1.0  0.22798199951648712  0.1987334042787552  0.26138943433761597  1.0000
  O   O2        1.0  0.4090842008590698  0.5196603536605835  0.7380707263946533  1.0000
  O   O3        1.0  0.32747739553451527  0.983970880508423  0.7382218837738037  1.0000
  O   O4        1.0  0.7172877192497253  0.7322347164154053  0.2503737509250641  1.0000
  O   O5        1.0  0.7585046887397766  0.39842015504837036  0.8096675872802734  1.0000
  O   O6        1.0  0.27803483605384827  0.6704874038696289  0.6891540884971619  1.0000
  O   O7        1.0  0.9143973588943481  0.5865867733955383  0.0830983966588974  1.0000
  V   V1        1.0  0.3350558876991272  0.6165679693222046  0.15874293446540833  1.0000
  V   V2        1.0  0.46881160140037537  0.2571699023246765  0.17433054745197296  1.0000
