data_image0
_chemical_formula_structural       GeINaOTi5Zn
_chemical_formula_sum              "Ge1 I1 Na1 O1 Ti5 Zn1"
_cell_length_a       4.794004688434727
_cell_length_b       4.820240892779581
_cell_length_c       11.437803268432617
_cell_angle_alpha    101.0683462614584
_cell_angle_beta     90.75442375459353
_cell_angle_gamma    101.95924155635785

_space_group_name_H-M_alt    "P 1"
_space_group_IT_number       1

loop_
  _space_group_symop_operation_xyz
  'x, y, z'

loop_
  _atom_site_type_symbol
  _atom_site_label
  _atom_site_symmetry_multiplicity
  _atom_site_fract_x
  _atom_site_fract_y
  _atom_site_fract_z
  _atom_site_occupancy
  Ge  Ge1       1.0  0.06905727833509445  0.512910783290863  0.6747412085533142  1.0000
  I   I1        1.0  0.5481505393981934  0.11537054926156998  0.9881490468978881  1.0000
  Na  Na1       1.0  0.06293369084596634  0.7389233112335205  0.6702209711074829  1.0000
  O   O1        1.0  0.08511406183242798  0.9933383464813232  0.22056026756763455  1.0000
  Ti  Ti1       1.0  0.5626654624938965  0.36770400404930115  0.7043560743331909  1.0000
  Ti  Ti2       1.0  0.5646722316741943  0.8108379244804382  0.6941967010498047  1.0000
  Ti  Ti3       1.0  0.5519530177116394  0.16332606971263885  0.29363852739334106  1.0000
  Ti  Ti4       1.0  0.048110369592905045  0.16242212057113647  0.43151074647903437  1.0000
  Ti  Ti5       1.0  0.06537829339504242  0.456200510263443  0.26590344309806824  1.0000
  Zn  Zn1       1.0  0.03964466601610184  0.020792651921510696  0.8381796479225158  1.0000
