data_image0
_chemical_formula_structural       AsIOPTi6
_chemical_formula_sum              "As1 I1 O1 P1 Ti6"
_cell_length_a       6.3446307339414325
_cell_length_b       5.698450540837112
_cell_length_c       7.847299098968506
_cell_angle_alpha    67.50188294703551
_cell_angle_beta     70.67746178568524
_cell_angle_gamma    72.00198680422845

_space_group_name_H-M_alt    "P 1"
_space_group_IT_number       1

loop_
  _space_group_symop_operation_xyz
  'x, y, z'

loop_
  _atom_site_type_symbol
  _atom_site_label
  _atom_site_symmetry_multiplicity
  _atom_site_fract_x
  _atom_site_fract_y
  _atom_site_fract_z
  _atom_site_occupancy
  As  As1       1.0  0.9859038591384888  0.5746312141418457  0.7627264857292176  1.0000
  I   I1        1.0  0.688873827457428  0.8418930768966675  0.29898330569267273  1.0000
  O   O1        1.0  0.7290725111961365  0.2863632142543793  0.26019763946533203  1.0000
  P   P1        1.0  0.1848496049642563  0.03508465737104416  0.655227780342102  1.0000
  Ti  Ti1       1.0  0.02773972414433956  0.9205124378204346  0.6807265281677246  1.0000
  Ti  Ti2       1.0  0.38270872831344604  0.33132317662239075  0.8908039927482606  1.0000
  Ti  Ti3       1.0  0.9940650463104249  0.4209309220314026  0.012576172128319742  1.0000
  Ti  Ti4       1.0  0.5040407180786133  0.05202024430036545  0.6090612411499023  1.0000
  Ti  Ti5       1.0  0.7432559728622437  0.5707248449325562  0.9060067534446717  1.0000
  Ti  Ti6       1.0  0.6617475748062134  0.3127584755420685  0.4991766512393952  1.0000
