data_image0
_chemical_formula_structural       Na3O3Ti4
_chemical_formula_sum              "Na3 O3 Ti4"
_cell_length_a       6.5318098589854605
_cell_length_b       6.225293951222911
_cell_length_c       6.492518424987793
_cell_angle_alpha    63.54929777892318
_cell_angle_beta     57.49261999237938
_cell_angle_gamma    61.42991169266862

_space_group_name_H-M_alt    "P 1"
_space_group_IT_number       1

loop_
  _space_group_symop_operation_xyz
  'x, y, z'

loop_
  _atom_site_type_symbol
  _atom_site_label
  _atom_site_symmetry_multiplicity
  _atom_site_fract_x
  _atom_site_fract_y
  _atom_site_fract_z
  _atom_site_occupancy
  Na  Na1       1.0  0.4919739067554474  0.0181400366127491  0.6920382976531982  1.0000
  Na  Na2       1.0  0.8556436896324158  0.7378581762313843  0.1488872915506363  1.0000
  Na  Na3       1.0  0.46777424216270447  0.001830791705287993  0.5310196280479431  1.0000
  O   O1        1.0  0.4584774374961853  0.0554313138127327  0.2616787254810333  1.0000
  O   O2        1.0  0.5836492776870728  0.916962206363678  0.16622431576251984  1.0000
  O   O3        1.0  0.3388146758079529  0.4741697311401367  0.8575405478477478  1.0000
  Ti  Ti1       1.0  0.016686785966157913  0.9423903226852417  0.09704858809709549  1.0000
  Ti  Ti2       1.0  0.7836885452270508  0.04257657006382942  0.48710799217224116  1.0000
  Ti  Ti3       1.0  0.3287205398082733  0.7767879366874695  0.3636831939220429  1.0000
  Ti  Ti4       1.0  0.49233588576316833  0.878429651260376  0.19801588356494904  1.0000
