data_image0
_chemical_formula_structural       Na2OPbTi6
_chemical_formula_sum              "Na2 O1 Pb1 Ti6"
_cell_length_a       5.721566085844386
_cell_length_b       5.642076481222242
_cell_length_c       6.117720603942871
_cell_angle_alpha    59.58373289233918
_cell_angle_beta     61.60909980222445
_cell_angle_gamma    60.5580729876438

_space_group_name_H-M_alt    "P 1"
_space_group_IT_number       1

loop_
  _space_group_symop_operation_xyz
  'x, y, z'

loop_
  _atom_site_type_symbol
  _atom_site_label
  _atom_site_symmetry_multiplicity
  _atom_site_fract_x
  _atom_site_fract_y
  _atom_site_fract_z
  _atom_site_occupancy
  Na  Na1       1.0  0.15351691842079163  0.3155893087387085  0.4708237946033478  1.0000
  Na  Na2       1.0  0.6713467240333557  0.99739009141922  0.31966400146484375  1.0000
  O   O1        1.0  0.1574525535106659  0.8093239665031433  0.04286956042051315  1.0000
  Pb  Pb1       1.0  0.3977973163127899  0.7152053713798523  0.45656073093414307  1.0000
  Ti  Ti1       1.0  0.635926365852356  0.5669941306114197  0.18712538480758667  1.0000
  Ti  Ti2       1.0  0.7677689790725708  0.03005969151854515  0.26269102096557617  1.0000
  Ti  Ti3       1.0  0.08130107074975967  0.02618321403861046  0.7961586713790894  1.0000
  Ti  Ti4       1.0  0.15344122052192688  0.1352558135986328  0.44439607858657837  1.0000
  Ti  Ti5       1.0  0.3667595684528351  0.5686522722244263  0.8513035774230957  1.0000
  Ti  Ti6       1.0  0.5089909434318542  0.6806307435035706  0.771233081817627  1.0000
