data_image0
_chemical_formula_structural       CdCsGeNaO3Ti3
_chemical_formula_sum              "Cd1 Cs1 Ge1 Na1 O3 Ti3"
_cell_length_a       5.350845277936871
_cell_length_b       4.504226867204095
_cell_length_c       3.7574379444122314
_cell_angle_alpha    98.37873562141155
_cell_angle_beta     102.07309569944793
_cell_angle_gamma    93.68568958071468

_space_group_name_H-M_alt    "P 1"
_space_group_IT_number       1

loop_
  _space_group_symop_operation_xyz
  'x, y, z'

loop_
  _atom_site_type_symbol
  _atom_site_label
  _atom_site_symmetry_multiplicity
  _atom_site_fract_x
  _atom_site_fract_y
  _atom_site_fract_z
  _atom_site_occupancy
  Cd  Cd1       1.0  0.21310541033744812  0.6475757360458374  0.5689630508422852  1.0000
  Cs  Cs1       1.0  0.6993821859359741  0.5137264728546143  0.8470934629440308  1.0000
  Ge  Ge1       1.0  0.0703534260392189  0.1079804003238678  0.36578142642974854  1.0000
  Na  Na1       1.0  0.06425800919532776  0.856590747833252  0.7035341262817383  1.0000
  O   O1        1.0  0.05828697606921196  0.02025740034878254  0.758143424987793  1.0000
  O   O2        1.0  0.43878233432769775  0.665654718875885  0.7974681258201599  1.0000
  O   O3        1.0  0.9272594451904297  0.5001478791236877  0.2003086656332016  1.0000
  Ti  Ti1       1.0  0.4643861651420593  0.5273920893669128  0.9449492096900939  1.0000
  Ti  Ti2       1.0  0.4625767469406128  0.8846625685691833  0.7608619332313538  1.0000
  Ti  Ti3       1.0  0.6693394780158997  0.33807769417762756  0.9757462739944457  1.0000
