data_image0
_chemical_formula_structural       Na3O2Ti5
_chemical_formula_sum              "Na3 O2 Ti5"
_cell_length_a       5.026682212190045
_cell_length_b       4.882901941855851
_cell_length_c       5.592257499694824
_cell_angle_alpha    56.694113044450134
_cell_angle_beta     57.38422100217983
_cell_angle_gamma    67.88083669474157

_space_group_name_H-M_alt    "P 1"
_space_group_IT_number       1

loop_
  _space_group_symop_operation_xyz
  'x, y, z'

loop_
  _atom_site_type_symbol
  _atom_site_label
  _atom_site_symmetry_multiplicity
  _atom_site_fract_x
  _atom_site_fract_y
  _atom_site_fract_z
  _atom_site_occupancy
  Na  Na1       1.0  0.23516668379306793  0.04957123100757599  0.37141692638397217  1.0000
  Na  Na2       1.0  0.186592698097229  0.3363027274608612  0.3553924262523651  1.0000
  Na  Na3       1.0  0.6656859517097473  0.6981974244117737  0.3171710669994354  1.0000
  O   O1        1.0  0.7019567489624023  0.6999395489692688  0.8544086813926696  1.0000
  O   O2        1.0  0.11112247407436371  0.16101686656475067  0.26706695556640625  1.0000
  Ti  Ti1       1.0  0.5790026187896729  0.4225049316883087  0.064064159989357  1.0000
  Ti  Ti2       1.0  0.7304394245147705  0.24225251376628876  0.44421437382698054  1.0000
  Ti  Ti3       1.0  0.7224287986755371  0.010958741419017315  0.20164869725704193  1.0000
  Ti  Ti4       1.0  0.6402422785758972  0.5704421997070312  0.9696933031082152  1.0000
  Ti  Ti5       1.0  0.9840646982192993  0.8748392462730408  0.024097304791212082  1.0000
