data_image0
_chemical_formula_structural       BNi5RuUZn
_chemical_formula_sum              "B1 Ni5 Ru1 U1 Zn1"
_cell_length_a       5.335119611349533
_cell_length_b       5.365702655055546
_cell_length_c       5.854495525360107
_cell_angle_alpha    61.6757874203216
_cell_angle_beta     62.11969517799058
_cell_angle_gamma    59.91617530621091

_space_group_name_H-M_alt    "P 1"
_space_group_IT_number       1

loop_
  _space_group_symop_operation_xyz
  'x, y, z'

loop_
  _atom_site_type_symbol
  _atom_site_label
  _atom_site_symmetry_multiplicity
  _atom_site_fract_x
  _atom_site_fract_y
  _atom_site_fract_z
  _atom_site_occupancy
  B   B1        1.0  0.4630925953388214  0.4879804253578186  0.4389210343360901  1.0000
  Ni  Ni1       1.0  0.7014198899269104  0.029910234734416008  0.4188491702079773  1.0000
  Ni  Ni2       1.0  0.4037027657032013  0.7838855981826782  0.19083870947360992  1.0000
  Ni  Ni3       1.0  0.3830205202102661  0.8236425518989563  0.06627306342124939  1.0000
  Ni  Ni4       1.0  0.6943910121917725  0.27951428294181824  0.8778243660926819  1.0000
  Ni  Ni5       1.0  0.08411385864019394  0.3971824645996094  0.29052138328552246  1.0000
  Ru  Ru1       1.0  0.5547342896461487  0.1463630497455597  0.8685128092765808  1.0000
  U   U1        1.0  0.9905944466590881  0.2308700829744339  0.13053299486637115  1.0000
  Zn  Zn1       1.0  0.382254421710968  0.9348791837692261  0.4397431015968323  1.0000
