data_image0
_chemical_formula_structural       AlBCsNi4U2
_chemical_formula_sum              "Al1 B1 Cs1 Ni4 U2"
_cell_length_a       5.432788153370052
_cell_length_b       5.933167808613112
_cell_length_c       5.90196418762207
_cell_angle_alpha    63.278030539457205
_cell_angle_beta     62.338719467036455
_cell_angle_gamma    61.15159702370039

_space_group_name_H-M_alt    "P 1"
_space_group_IT_number       1

loop_
  _space_group_symop_operation_xyz
  'x, y, z'

loop_
  _atom_site_type_symbol
  _atom_site_label
  _atom_site_symmetry_multiplicity
  _atom_site_fract_x
  _atom_site_fract_y
  _atom_site_fract_z
  _atom_site_occupancy
  Al  Al1       1.0  0.13024002313613892  0.4309738576412201  0.8185985684394836  1.0000
  B   B1        1.0  0.47420984506607056  0.7106501460075378  0.30623307824134827  1.0000
  Cs  Cs1       1.0  0.9481920003890991  0.16188375651836395  0.700748860836029  1.0000
  Ni  Ni1       1.0  0.46563947200775146  0.15614797174930573  0.7551741600036621  1.0000
  Ni  Ni2       1.0  0.8261438608169556  0.9250479340553284  0.47297224402427673  1.0000
  Ni  Ni3       1.0  0.799386203289032  0.6192197203636169  0.5501825213432312  1.0000
  Ni  Ni4       1.0  0.18660087883472443  0.28010663390159607  0.5006503462791443  1.0000
  U   U1        1.0  0.18634311854839325  0.6001543998718262  0.9627324938774109  1.0000
  U   U2        1.0  0.5664939284324646  0.9236404299736023  0.019757144153118134  1.0000
