data_image0
_chemical_formula_structural       BHNi4RuU2
_chemical_formula_sum              "B1 H1 Ni4 Ru1 U2"
_cell_length_a       5.509597763107367
_cell_length_b       5.594383907351382
_cell_length_c       5.656454086303711
_cell_angle_alpha    57.94314854508078
_cell_angle_beta     57.25008276244322
_cell_angle_gamma    59.80559458483068

_space_group_name_H-M_alt    "P 1"
_space_group_IT_number       1

loop_
  _space_group_symop_operation_xyz
  'x, y, z'

loop_
  _atom_site_type_symbol
  _atom_site_label
  _atom_site_symmetry_multiplicity
  _atom_site_fract_x
  _atom_site_fract_y
  _atom_site_fract_z
  _atom_site_occupancy
  B   B1        1.0  0.24736055731773376  0.3303561508655548  0.1274200677871704  1.0000
  H   H1        1.0  0.267232209444046  0.8334531188011169  0.6167941689491272  1.0000
  Ni  Ni1       1.0  0.30684638023376465  0.8400892019271851  0.3602043390274048  1.0000
  Ni  Ni2       1.0  0.22339485585689545  0.8576876521110535  0.8003656268119812  1.0000
  Ni  Ni3       1.0  0.5910932421684265  0.839951753616333  0.12077585607767104  1.0000
  Ni  Ni4       1.0  0.48623618483543396  0.27069979906082153  0.6232415437698364  1.0000
  Ru  Ru1       1.0  0.06004587933421135  0.26520437002182007  0.38543570041656494  1.0000
  U   U1        1.0  0.6609837412834167  0.8501304388046265  0.34365329146385193  1.0000
  U   U2        1.0  0.8747581243515015  0.33910253643989563  0.6140813827514648  1.0000
