data_image0
_chemical_formula_structural       B5Ni4
_chemical_formula_sum              "B5 Ni4"
_cell_length_a       4.9326081812975335
_cell_length_b       5.024787911285543
_cell_length_c       5.188148021697998
_cell_angle_alpha    60.9963860515168
_cell_angle_beta     61.56608048404058
_cell_angle_gamma    60.242669878765845

_space_group_name_H-M_alt    "P 1"
_space_group_IT_number       1

loop_
  _space_group_symop_operation_xyz
  'x, y, z'

loop_
  _atom_site_type_symbol
  _atom_site_label
  _atom_site_symmetry_multiplicity
  _atom_site_fract_x
  _atom_site_fract_y
  _atom_site_fract_z
  _atom_site_occupancy
  B   B1        1.0  0.48890283703804016  0.70930415391922  0.793887197971344  1.0000
  B   B2        1.0  0.07816723734140396  0.47675251960754395  0.37479475140571594  1.0000
  B   B3        1.0  0.11211954802274704  0.9483503699302673  0.6429798007011414  1.0000
  B   B4        1.0  0.4582161605358124  0.47046154737472534  0.22866128385066986  1.0000
  B   B5        1.0  0.4671451151371002  0.05947427824139595  0.37252566218376165  1.0000
  Ni  Ni1       1.0  0.7083397507667542  0.9602773785591125  0.2499462813138962  1.0000
  Ni  Ni2       1.0  0.15258631110191345  0.9409103989601135  0.6278102397918701  1.0000
  Ni  Ni3       1.0  0.6932659149169922  0.9190115332603455  0.8607468008995056  1.0000
  Ni  Ni4       1.0  0.7060822248458862  0.43039625883102417  0.8532822132110596  1.0000
