data_image0
_chemical_formula_structural       B5Ni4
_chemical_formula_sum              "B5 Ni4"
_cell_length_a       5.384387064438478
_cell_length_b       5.481369276833627
_cell_length_c       5.282141208648682
_cell_angle_alpha    60.24772069655433
_cell_angle_beta     57.737940304620075
_cell_angle_gamma    61.14223730099682

_space_group_name_H-M_alt    "P 1"
_space_group_IT_number       1

loop_
  _space_group_symop_operation_xyz
  'x, y, z'

loop_
  _atom_site_type_symbol
  _atom_site_label
  _atom_site_symmetry_multiplicity
  _atom_site_fract_x
  _atom_site_fract_y
  _atom_site_fract_z
  _atom_site_occupancy
  B   B1        1.0  0.4315500259399414  0.8044652342796326  0.25744131207466125  1.0000
  B   B2        1.0  0.9031314849853516  0.49210926890373236  0.9142343997955322  1.0000
  B   B3        1.0  0.4375350773334503  0.5037160515785217  0.1471969336271286  1.0000
  B   B4        1.0  0.9153059124946594  0.5042705535888672  0.9087480902671814  1.0000
  B   B5        1.0  0.2681718170642853  0.28118714690208435  0.1977303922176361  1.0000
  Ni  Ni1       1.0  0.1257908195257187  0.7762101292610168  0.635784924030304  1.0000
  Ni  Ni2       1.0  0.18714565038681025  0.9830065369606019  0.4086534082889557  1.0000
  Ni  Ni3       1.0  0.775134801864624  0.792650580406189  0.6990976333618164  1.0000
  Ni  Ni4       1.0  0.7829527854919434  0.28449904918670654  0.2603391110897064  1.0000
