data_image0
_chemical_formula_structural       GeI2LiP2
_chemical_formula_sum              "Ge1 I2 Li1 P2"
_cell_length_a       4.177232836392769
_cell_length_b       5.80369449165484
_cell_length_c       6.147637844085693
_cell_angle_alpha    116.43593102615648
_cell_angle_beta     92.84892554927023
_cell_angle_gamma    89.94287979415508

_space_group_name_H-M_alt    "P 1"
_space_group_IT_number       1

loop_
  _space_group_symop_operation_xyz
  'x, y, z'

loop_
  _atom_site_type_symbol
  _atom_site_label
  _atom_site_symmetry_multiplicity
  _atom_site_fract_x
  _atom_site_fract_y
  _atom_site_fract_z
  _atom_site_occupancy
  Ge  Ge1       1.0  0.21288162469863892  0.3122629225254059  0.17131994664669037  1.0000
  I   I1        1.0  0.6913526654243469  0.7588871717453003  0.9780686497688293  1.0000
  I   I2        1.0  0.7181915640830994  0.6872215867042542  0.7261993288993835  1.0000
  Li  Li1       1.0  0.20741431415081024  0.9663726687431334  0.6091960072517395  1.0000
  P   P1        1.0  0.6975460052490234  0.7197321653366089  0.2763672471046448  1.0000
  P   P2        1.0  0.20732350647449493  0.20847578346729279  0.39648106694221497  1.0000
