data_image0
_chemical_formula_structural       GeH2La6Zn
_chemical_formula_sum              "Ge1 H2 La6 Zn1"
_cell_length_a       5.969253498833277
_cell_length_b       5.727960200790331
_cell_length_c       9.741046905517578
_cell_angle_alpha    90.43205509176391
_cell_angle_beta     91.25708519922011
_cell_angle_gamma    96.67285366967326

_space_group_name_H-M_alt    "P 1"
_space_group_IT_number       1

loop_
  _space_group_symop_operation_xyz
  'x, y, z'

loop_
  _atom_site_type_symbol
  _atom_site_label
  _atom_site_symmetry_multiplicity
  _atom_site_fract_x
  _atom_site_fract_y
  _atom_site_fract_z
  _atom_site_occupancy
  Ge  Ge1       1.0  0.40776240825653076  0.7011151909828186  0.313812255859375  1.0000
  H   H1        1.0  0.3998984396457672  0.38555213809013367  0.6711825728416443  1.0000
  H   H2        1.0  0.9132966995239258  0.27677416801452637  0.5004152059555054  1.0000
  La  La1       1.0  0.644145131111145  0.47449058294296265  0.36497339606285095  1.0000
  La  La2       1.0  0.9118830561637878  0.20115990936756134  0.35845667123794556  1.0000
  La  La3       1.0  0.41906458139419556  0.08844100683927536  0.9207459688186646  1.0000
  La  La4       1.0  0.9048590660095215  0.9040120244026184  0.26560178399086  1.0000
  La  La5       1.0  0.41317319869995117  0.5828796625137329  0.6829617619514465  1.0000
  La  La6       1.0  0.904895007610321  0.41865450143814087  0.7213733792304993  1.0000
  Zn  Zn1       1.0  0.398234486579895  0.19956251978874207  0.823449432849884  1.0000
