data_image0
_chemical_formula_structural       H3La5Zn2
_chemical_formula_sum              "H3 La5 Zn2"
_cell_length_a       5.97152583525077
_cell_length_b       5.8407319116147685
_cell_length_c       7.423781871795654
_cell_angle_alpha    89.98969776269124
_cell_angle_beta     90.81288474942016
_cell_angle_gamma    89.96419401597456

_space_group_name_H-M_alt    "P 1"
_space_group_IT_number       1

loop_
  _space_group_symop_operation_xyz
  'x, y, z'

loop_
  _atom_site_type_symbol
  _atom_site_label
  _atom_site_symmetry_multiplicity
  _atom_site_fract_x
  _atom_site_fract_y
  _atom_site_fract_z
  _atom_site_occupancy
  H   H1        1.0  0.24096138775348663  0.9789839982986449  0.4032419323921204  1.0000
  H   H2        1.0  0.2466481328010559  0.9889847636222838  0.5940023064613343  1.0000
  H   H3        1.0  0.7421810626983643  0.2552189826965332  0.12957364320755005  1.0000
  La  La1       1.0  0.25156286358833313  0.9390224218368529  0.8296687602996827  1.0000
  La  La2       1.0  0.7437658905982971  0.40883904695510864  0.6993141174316407  1.0000
  La  La3       1.0  0.7331444621086121  0.7577769756317139  0.6923012733459474  1.0000
  La  La4       1.0  0.7461064457893372  0.8826841711997985  0.26274123787879944  1.0000
  La  La5       1.0  0.7421034574508667  0.2829962968826294  0.9616271257400514  1.0000
  Zn  Zn1       1.0  0.7444015741348267  0.18181587755680084  0.8923398852348329  1.0000
  Zn  Zn2       1.0  0.7403677701950073  0.3506898283958435  0.5666689276695253  1.0000
