data_image0
_chemical_formula_structural       La10
_chemical_formula_sum              "La10"
_cell_length_a       6.660540329576219
_cell_length_b       6.423349286963901
_cell_length_c       7.279551029205322
_cell_angle_alpha    119.55679865702942
_cell_angle_beta     120.78521664010124
_cell_angle_gamma    89.03765498745214

_space_group_name_H-M_alt    "P 1"
_space_group_IT_number       1

loop_
  _space_group_symop_operation_xyz
  'x, y, z'

loop_
  _atom_site_type_symbol
  _atom_site_label
  _atom_site_symmetry_multiplicity
  _atom_site_fract_x
  _atom_site_fract_y
  _atom_site_fract_z
  _atom_site_occupancy
  La  La1       1.0  0.5001831650733948  0.24709691107273102  0.6563554406166077  1.0000
  La  La2       1.0  0.6250799894332886  0.3138245642185211  0.4102833867073059  1.0000
  La  La3       1.0  0.5832110643386841  0.9817865490913391  0.8999667763710022  1.0000
  La  La4       1.0  0.08660724759101868  0.6962631344795227  0.9870203733444214  1.0000
  La  La5       1.0  0.7336416840553284  0.8787785768508911  0.5953072905540466  1.0000
  La  La6       1.0  0.5764833092689514  0.414417028427124  0.5383402109146118  1.0000
  La  La7       1.0  0.38785287737846375  0.005146012641489506  0.12129104137420654  1.0000
  La  La8       1.0  0.17730820178985596  0.22485259175300598  0.1371392160654068  1.0000
  La  La9       1.0  0.8299322724342347  0.8564595580101013  0.5932458639144897  1.0000
  La  La10      1.0  0.09318675100803375  0.25144463777542114  0.951308012008667  1.0000
