data_image0
_chemical_formula_structural       H2La7Mg
_chemical_formula_sum              "H2 La7 Mg1"
_cell_length_a       6.073355375152817
_cell_length_b       5.044104586212999
_cell_length_c       6.008223533630371
_cell_angle_alpha    115.33184921617209
_cell_angle_beta     114.29334308516988
_cell_angle_gamma    114.25444244618659

_space_group_name_H-M_alt    "P 1"
_space_group_IT_number       1

loop_
  _space_group_symop_operation_xyz
  'x, y, z'

loop_
  _atom_site_type_symbol
  _atom_site_label
  _atom_site_symmetry_multiplicity
  _atom_site_fract_x
  _atom_site_fract_y
  _atom_site_fract_z
  _atom_site_occupancy
  H   H1        1.0  0.7092214226722717  0.7985939979553223  0.46959149837493896  1.0000
  H   H2        1.0  0.7463704347610474  0.9043285250663757  0.7813915610313416  1.0000
  La  La1       1.0  0.2173326015472412  0.2538048326969147  0.05243185162544249  1.0000
  La  La2       1.0  0.19621598720550554  0.7371564507484438  0.5930742621421815  1.0000
  La  La3       1.0  0.20566333830356615  0.7376902103424074  0.7588519454002381  1.0000
  La  La4       1.0  0.7191246747970581  0.535992443561554  0.7099512815475464  1.0000
  La  La5       1.0  0.7691628336906434  0.39902988076210044  0.7857149839401246  1.0000
  La  La6       1.0  0.6802145838737489  0.5944831967353822  0.8333756923675537  1.0000
  La  La7       1.0  0.1928771436214447  0.528637170791626  0.6101325154304504  1.0000
  Mg  Mg1       1.0  0.5480295419692991  0.8369296193122862  0.9044104814529418  1.0000
