data_image0
_chemical_formula_structural       H2La5Mg2P
_chemical_formula_sum              "H2 La5 Mg2 P1"
_cell_length_a       5.521499044134612
_cell_length_b       5.914311705926578
_cell_length_c       7.046554088592529
_cell_angle_alpha    96.26932731285261
_cell_angle_beta     96.08981381599047
_cell_angle_gamma    98.21268551382246

_space_group_name_H-M_alt    "P 1"
_space_group_IT_number       1

loop_
  _space_group_symop_operation_xyz
  'x, y, z'

loop_
  _atom_site_type_symbol
  _atom_site_label
  _atom_site_symmetry_multiplicity
  _atom_site_fract_x
  _atom_site_fract_y
  _atom_site_fract_z
  _atom_site_occupancy
  H   H1        1.0  0.2578151524066925  0.9091922640800476  0.45604467391967773  1.0000
  H   H2        1.0  0.7775749564170837  0.22601060569286346  0.023314880207180977  1.0000
  La  La1       1.0  0.24846580624580383  0.9022044539451599  0.30123093724250793  1.0000
  La  La2       1.0  0.24881602823734283  0.9009922742843628  0.9430641531944275  1.0000
  La  La3       1.0  0.7432808876037598  0.065037302672863  0.23287375271320343  1.0000
  La  La4       1.0  0.7491242289543152  0.6352367401123047  0.959147036075592  1.0000
  La  La5       1.0  0.7456603050231934  0.013314311392605305  0.8419328331947327  1.0000
  Mg  Mg1       1.0  0.745286226272583  0.6301032304763794  0.6436725854873657  1.0000
  Mg  Mg2       1.0  0.2670319974422455  0.2851842939853668  0.045179639011621475  1.0000
  P   P1        1.0  0.9950445294380188  0.7088706493377686  0.929378867149353  1.0000
