data_image0
_chemical_formula_structural       HLa9
_chemical_formula_sum              "H1 La9"
_cell_length_a       5.457648192389815
_cell_length_b       4.2365483528570325
_cell_length_c       4.700287818908691
_cell_angle_alpha    130.3778448973195
_cell_angle_beta     114.64114391646643
_cell_angle_gamma    92.01498390195043

_space_group_name_H-M_alt    "P 1"
_space_group_IT_number       1

loop_
  _space_group_symop_operation_xyz
  'x, y, z'

loop_
  _atom_site_type_symbol
  _atom_site_label
  _atom_site_symmetry_multiplicity
  _atom_site_fract_x
  _atom_site_fract_y
  _atom_site_fract_z
  _atom_site_occupancy
  H   H1        1.0  0.029205238446593285  0.6367807984352112  0.38628906011581426  1.0000
  La  La1       1.0  0.33487370610237127  0.7927897572517396  0.7865732312202455  1.0000
  La  La2       1.0  0.19209460914134982  0.8813575506210328  0.143215835094452  1.0000
  La  La3       1.0  0.533004105091095  0.6220145821571351  0.22960337996482852  1.0000
  La  La4       1.0  0.8531683683395386  0.31142893433570856  0.6738264560699463  1.0000
  La  La5       1.0  0.8174644112586975  0.6922720670700073  0.49167522788047796  1.0000
  La  La6       1.0  0.5074544548988343  0.4553796052932742  0.8983365297317506  1.0000
  La  La7       1.0  0.022681530565023422  0.612576961517334  0.258965402841568  1.0000
  La  La8       1.0  0.2944456040859223  0.9807419776916505  0.3387575447559357  1.0000
  La  La9       1.0  0.30811229348182684  0.8490901589393618  0.9698544144630433  1.0000
