data_image0
_chemical_formula_structural       Sc2Zn5Zr2
_chemical_formula_sum              "Sc2 Zn5 Zr2"
_cell_length_a       4.6555399532493205
_cell_length_b       5.949036726253689
_cell_length_c       6.818793296813965
_cell_angle_alpha    81.63514906189117
_cell_angle_beta     69.61755886422985
_cell_angle_gamma    67.1051549238007

_space_group_name_H-M_alt    "P 1"
_space_group_IT_number       1

loop_
  _space_group_symop_operation_xyz
  'x, y, z'

loop_
  _atom_site_type_symbol
  _atom_site_label
  _atom_site_symmetry_multiplicity
  _atom_site_fract_x
  _atom_site_fract_y
  _atom_site_fract_z
  _atom_site_occupancy
  Sc  Sc1       1.0  0.7949950695037842  0.48388245701789856  0.4230157434940338  1.0000
  Sc  Sc2       1.0  0.07232419401407242  0.5585066676139832  0.8150206208229066  1.0000
  Zn  Zn1       1.0  0.6634557247161865  0.9521530270576477  0.21752525866031647  1.0000
  Zn  Zn2       1.0  0.47457078099250793  0.8363538980484009  0.7103241682052612  1.0000
  Zn  Zn3       1.0  0.07990077883005142  0.8697841167449951  0.4520522952079773  1.0000
  Zn  Zn4       1.0  0.36512020230293274  0.2451958805322647  0.5081473588943481  1.0000
  Zn  Zn5       1.0  0.1626238226890564  0.11230328679084778  0.080360047519207  1.0000
  Zr  Zr1       1.0  0.7906467318534851  0.13303110003471375  0.8056433200836182  1.0000
  Zr  Zr2       1.0  0.4223793148994446  0.5618955492973328  0.11815639585256577  1.0000
