data_image0
_chemical_formula_structural       BrGdHSbTe2Zn2Zr
_chemical_formula_sum              "Br1 Gd1 H1 Sb1 Te2 Zn2 Zr1"
_cell_length_a       6.646909159934064
_cell_length_b       6.6273699966540525
_cell_length_c       7.184009075164795
_cell_angle_alpha    62.31186383043258
_cell_angle_beta     62.488960162188306
_cell_angle_gamma    60.04103246898846

_space_group_name_H-M_alt    "P 1"
_space_group_IT_number       1

loop_
  _space_group_symop_operation_xyz
  'x, y, z'

loop_
  _atom_site_type_symbol
  _atom_site_label
  _atom_site_symmetry_multiplicity
  _atom_site_fract_x
  _atom_site_fract_y
  _atom_site_fract_z
  _atom_site_occupancy
  Br  Br1       1.0  0.17151199281215668  0.8206807971000671  0.8659833669662476  1.0000
  Gd  Gd1       1.0  0.8416830897331238  0.6063909530639648  0.7233889698982239  1.0000
  H   H1        1.0  0.8364424705505371  0.9671373963356018  0.3918136060237884  1.0000
  Sb  Sb1       1.0  0.14097467064857483  0.31619498133659363  0.3882278800010681  1.0000
  Te  Te1       1.0  0.5301612019538879  0.6792700290679932  0.3859092295169831  1.0000
  Te  Te2       1.0  0.5553359389305115  0.19734999537467957  0.8660685420036315  1.0000
  Zn  Zn1       1.0  0.7739232182502747  0.9798066020011902  0.15532571077346802  1.0000
  Zn  Zn2       1.0  0.5062907338142395  0.24723093211650848  0.48992860317230225  1.0000
  Zr  Zr1       1.0  0.18786537647247314  0.9996741414070129  0.16088587045669558  1.0000
