data_image0
_chemical_formula_structural       KScTe4Zn2Zr
_chemical_formula_sum              "K1 Sc1 Te4 Zn2 Zr1"
_cell_length_a       6.935872468648741
_cell_length_b       6.924863543786144
_cell_length_c       6.903285026550293
_cell_angle_alpha    65.13262011678913
_cell_angle_beta     65.37737086085083
_cell_angle_gamma    65.2800660415352

_space_group_name_H-M_alt    "P 1"
_space_group_IT_number       1

loop_
  _space_group_symop_operation_xyz
  'x, y, z'

loop_
  _atom_site_type_symbol
  _atom_site_label
  _atom_site_symmetry_multiplicity
  _atom_site_fract_x
  _atom_site_fract_y
  _atom_site_fract_z
  _atom_site_occupancy
  K   K1        1.0  0.2844316363334656  0.9061701893806458  0.7098575234413147  1.0000
  Sc  Sc1       1.0  0.7514854073524475  0.8201698064804077  0.15512725710868835  1.0000
  Te  Te1       1.0  0.49899721145629883  0.1488378942012787  0.929269552230835  1.0000
  Te  Te2       1.0  0.8472001552581787  0.562915027141571  0.8782217502593995  1.0000
  Te  Te3       1.0  0.14914391934871674  0.4963783919811249  0.34469667077064514  1.0000
  Te  Te4       1.0  0.8300183415412903  0.0680805966258049  0.3603083193302154  1.0000
  Zn  Zn1       1.0  0.12176484614610672  0.28138411045074463  0.10962463915348053  1.0000
  Zn  Zn2       1.0  0.5507662296295166  0.35139739513397217  0.12771625816822052  1.0000
  Zr  Zr1       1.0  0.7524058222770691  0.36867964267730713  0.6009203195571899  1.0000
