data_image0
_chemical_formula_structural       ScZn5Zr3
_chemical_formula_sum              "Sc1 Zn5 Zr3"
_cell_length_a       3.9605240343395667
_cell_length_b       5.678584775869532
_cell_length_c       8.122300148010254
_cell_angle_alpha    102.71025149204976
_cell_angle_beta     89.93170954789011
_cell_angle_gamma    110.58961248186505

_space_group_name_H-M_alt    "P 1"
_space_group_IT_number       1

loop_
  _space_group_symop_operation_xyz
  'x, y, z'

loop_
  _atom_site_type_symbol
  _atom_site_label
  _atom_site_symmetry_multiplicity
  _atom_site_fract_x
  _atom_site_fract_y
  _atom_site_fract_z
  _atom_site_occupancy
  Sc  Sc1       1.0  0.837347686290741  0.9706194996833801  0.6045776605606079  1.0000
  Zn  Zn1       1.0  0.9701897501945496  0.22556863725185394  0.3432495296001434  1.0000
  Zn  Zn2       1.0  0.6135680675506592  0.5097920894622803  0.26233339309692383  1.0000
  Zn  Zn3       1.0  0.2813833951950073  0.8379964232444763  0.825720489025116  1.0000
  Zn  Zn4       1.0  0.18275390565395355  0.6614552140235901  0.4723987281322479  1.0000
  Zn  Zn5       1.0  0.6935374736785889  0.6620555520057678  0.9708392620086669  1.0000
  Zr  Zr1       1.0  0.3162306547164917  0.9057419896125793  0.19769425690174103  1.0000
  Zr  Zr2       1.0  0.5622453689575195  0.4138297140598297  0.6374153494834899  1.0000
  Zr  Zr3       1.0  0.9947842955589294  0.26627257466316223  0.992199718952179  1.0000
