data_image0
_chemical_formula_structural       Ca2FO5PPbPtSb2ScSr2TbTi
_chemical_formula_sum              "Ca2 F1 O5 P1 Pb1 Pt1 Sb2 Sc1 Sr2 Tb1 Ti1"
_cell_length_a       6.568595230844397
_cell_length_b       5.297196993151581
_cell_length_c       6.082367420196533
_cell_angle_alpha    9.0927218974683
_cell_angle_beta     63.238516782734195
_cell_angle_gamma    57.228826701135795

_space_group_name_H-M_alt    "P 1"
_space_group_IT_number       1

loop_
  _space_group_symop_operation_xyz
  'x, y, z'

loop_
  _atom_site_type_symbol
  _atom_site_label
  _atom_site_symmetry_multiplicity
  _atom_site_fract_x
  _atom_site_fract_y
  _atom_site_fract_z
  _atom_site_occupancy
  Ca  Ca1       1.0  0.25875818729400635  0.09868171811103828  0.7354609966278076  1.0000
  Ca  Ca2       1.0  0.8881436586380005  0.4973379373550415  0.549427568912506  1.0000
  F   F1        1.0  0.4783008992671967  0.5909565091133118  0.034538771957158924  1.0000
  O   O1        1.0  0.2484778314828873  0.7683191895484923  0.3364392817020417  1.0000
  O   O2        1.0  0.8754825592041016  0.45642066001892095  0.41577541828155506  1.0000
  O   O3        1.0  0.4008987247943878  0.3003782927989961  0.6815950870513915  1.0000
  O   O4        1.0  0.7427653670310974  0.7288592457771303  0.7042481899261472  1.0000
  O   O5        1.0  0.4071548879146576  0.8499769568443297  0.38096839189529413  1.0000
  P   P1        1.0  0.9806703329086305  0.2310529053211213  0.3076353967189787  1.0000
  Pb  Pb1       1.0  0.2546055316925049  0.23343560099601768  0.7667673826217649  1.0000
  Pt  Pt1       1.0  0.9572986364364625  0.8040843009948729  0.12270384281873693  1.0000
  Sb  Sb1       1.0  0.9553222656250001  0.9819745421409607  0.7752484679222104  1.0000
  Sb  Sb2       1.0  0.9647765159606935  0.2989980280399323  0.7323781251907348  1.0000
  Sc  Sc1       1.0  0.6620752811431885  0.21268439292907723  0.29011470079421986  1.0000
  Sr  Sr1       1.0  0.7883001565933228  0.5812895298004149  0.3034846782684327  1.0000
  Sr  Sr2       1.0  0.2195693701505661  0.1077695637941361  0.2832204401493072  1.0000
  Tb  Tb1       1.0  0.47059485316276556  0.5143226385116577  0.5734819769859314  1.0000
  Ti  Ti1       1.0  0.8473988771438599  0.1505441963672639  0.9422830343246459  1.0000
