data_image0
_chemical_formula_structural       Ca2I2O5P4Sr3TbTl
_chemical_formula_sum              "Ca2 I2 O5 P4 Sr3 Tb1 Tl1"
_cell_length_a       8.079299793790058
_cell_length_b       8.134030945140506
_cell_length_c       8.819124221801758
_cell_angle_alpha    64.39158809706532
_cell_angle_beta     65.71734129174185
_cell_angle_gamma    63.30196626865015

_space_group_name_H-M_alt    "P 1"
_space_group_IT_number       1

loop_
  _space_group_symop_operation_xyz
  'x, y, z'

loop_
  _atom_site_type_symbol
  _atom_site_label
  _atom_site_symmetry_multiplicity
  _atom_site_fract_x
  _atom_site_fract_y
  _atom_site_fract_z
  _atom_site_occupancy
  Ca  Ca1       1.0  0.6585254073143005  0.3525913059711457  0.18091502785682678  1.0000
  Ca  Ca2       1.0  0.19541625678539276  0.29671761393547064  0.6873295903205872  1.0000
  I   I1        1.0  0.2810880243778229  0.06683861464262009  0.8180356025695801  1.0000
  I   I2        1.0  0.6687911748886108  0.3522999584674836  0.9933297634124757  1.0000
  O   O1        1.0  0.7712527513504028  0.08919218182563783  0.16880668699741364  1.0000
  O   O2        1.0  0.6593159437179565  0.18076035380363467  0.0006937000434845686  1.0000
  O   O3        1.0  0.7524070143699646  0.5939043164253236  0.20029695332050323  1.0000
  O   O4        1.0  0.21750037372112274  0.18084621429443362  0.18081501126289368  1.0000
  O   O5        1.0  0.9252440929412842  0.060965288430452354  0.3961619436740875  1.0000
  P   P1        1.0  0.180973544716835  0.7516503930091859  0.5693176984786987  1.0000
  P   P2        1.0  0.9377279877662659  0.1356179267168045  0.5343682169914246  1.0000
  P   P3        1.0  0.3328680396080017  0.41640529036521917  0.4240218698978424  1.0000
  P   P4        1.0  0.7341687679290771  0.0072488896548748025  0.06036263704299932  1.0000
  Sr  Sr1       1.0  0.9046394228935242  0.11726512759923936  0.5585094690322876  1.0000
  Sr  Sr2       1.0  0.7058878540992737  0.2849549949169159  0.8965612053871155  1.0000
  Sr  Sr3       1.0  0.4788706302642822  0.21129429340362552  0.639541506767273  1.0000
  Tb  Tb1       1.0  0.9162195324897766  0.6581729650497438  0.03586511313915253  1.0000
  Tl  Tl1       1.0  0.4071623384952545  0.10296397656202318  0.6633363962173462  1.0000
