data_image0
_chemical_formula_structural       AlCa8Cu2O4Tl3
_chemical_formula_sum              "Al1 Ca8 Cu2 O4 Tl3"
_cell_length_a       6.0814443332371715
_cell_length_b       6.292127370632367
_cell_length_c       6.568258285522461
_cell_angle_alpha    124.93756278789776
_cell_angle_beta     111.11956826224835
_cell_angle_gamma    88.18560093284927

_space_group_name_H-M_alt    "P 1"
_space_group_IT_number       1

loop_
  _space_group_symop_operation_xyz
  'x, y, z'

loop_
  _atom_site_type_symbol
  _atom_site_label
  _atom_site_symmetry_multiplicity
  _atom_site_fract_x
  _atom_site_fract_y
  _atom_site_fract_z
  _atom_site_occupancy
  Al  Al1       1.0  0.9740155339241027  0.5086255669593811  0.5372064113616943  1.0000
  Ca  Ca1       1.0  0.07301273941993713  0.38728535175323486  0.6079027056694031  1.0000
  Ca  Ca2       1.0  0.36612465977668757  0.6344508528709412  0.23870088160037994  1.0000
  Ca  Ca3       1.0  0.9802885651588439  0.47640565037727356  0.4516567885875702  1.0000
  Ca  Ca4       1.0  0.04265078529715538  0.33663350343704224  0.8536145687103271  1.0000
  Ca  Ca5       1.0  0.6132328510284424  0.7833346724510193  0.1337527334690094  1.0000
  Ca  Ca6       1.0  0.45484507083892817  0.3954814672470093  0.5823990106582642  1.0000
  Ca  Ca7       1.0  0.45430278778076166  0.07887542247772217  0.5845246911048889  1.0000
  Ca  Ca8       1.0  0.8724915385246276  0.918312668800354  0.8367988467216492  1.0000
  Cu  Cu1       1.0  0.9676449298858641  0.9974720478057861  0.1468900442123413  1.0000
  Cu  Cu2       1.0  0.5903449654579163  0.6503503918647766  0.8134623169898987  1.0000
  O   O1        1.0  0.4562662541866302  0.8721590042114258  0.0456179603934288  1.0000
  O   O2        1.0  0.3616771399974823  0.6916466355323792  0.27361616492271423  1.0000
  O   O3        1.0  0.43692088127136225  0.8533275127410889  0.45161914825439453  1.0000
  O   O4        1.0  0.8582463860511779  0.7037922143936157  0.030475016683340073  1.0000
  Tl  Tl1       1.0  0.9322355985641478  0.22795434296131134  0.432235985994339  1.0000
  Tl  Tl2       1.0  0.6415697336196899  0.810117244720459  0.8747081160545349  1.0000
  Tl  Tl3       1.0  0.13430246710777283  0.7270716428756714  0.792561411857605  1.0000
