data_image0
_chemical_formula_structural       Ca7CuO9Tl
_chemical_formula_sum              "Ca7 Cu1 O9 Tl1"
_cell_length_a       6.515549474318223
_cell_length_b       6.500141079865292
_cell_length_c       7.308318614959717
_cell_angle_alpha    118.89246753509043
_cell_angle_beta     108.9818071444905
_cell_angle_gamma    89.91146953554227

_space_group_name_H-M_alt    "P 1"
_space_group_IT_number       1

loop_
  _space_group_symop_operation_xyz
  'x, y, z'

loop_
  _atom_site_type_symbol
  _atom_site_label
  _atom_site_symmetry_multiplicity
  _atom_site_fract_x
  _atom_site_fract_y
  _atom_site_fract_z
  _atom_site_occupancy
  Ca  Ca1       1.0  0.3356884717941284  0.7282974720001221  0.45177412033081055  1.0000
  Ca  Ca2       1.0  0.19889415800571442  0.31442397832870483  0.9910908937454224  1.0000
  Ca  Ca3       1.0  0.8351551294326782  0.5140640139579773  0.6322044134140015  1.0000
  Ca  Ca4       1.0  0.31685400009155273  0.49893918633461  0.8485669493675232  1.0000
  Ca  Ca5       1.0  0.3550892472267151  0.4360879957675934  0.3478352725505829  1.0000
  Ca  Ca6       1.0  0.8135281205177307  0.45971018075942993  0.7944007515907288  1.0000
  Ca  Ca7       1.0  0.3335608243942261  0.10623981058597565  0.10386472195386887  1.0000
  Cu  Cu1       1.0  0.24337489902973175  0.3637605309486389  0.6293411254882812  1.0000
  O   O1        1.0  0.6892597079277039  0.8481500148773193  0.3181009888648987  1.0000
  O   O2        1.0  0.6554566621780396  0.911954939365387  0.2173749804496765  1.0000
  O   O3        1.0  0.6648522615432739  0.48078054189682007  0.7705445289611816  1.0000
  O   O4        1.0  0.11584808677434921  0.7016769051551819  0.29698705673217773  1.0000
  O   O5        1.0  0.5807472467422485  0.15173634886741638  0.9172497987747192  1.0000
  O   O6        1.0  0.0379638746380806  0.038451626896858215  0.5105613470077515  1.0000
  O   O7        1.0  0.16386258602142334  0.3969871997833252  0.36215099692344666  1.0000
  O   O8        1.0  0.28936052322387695  0.676669716835022  0.1335662603378296  1.0000
  O   O9        1.0  0.8270629048347473  0.1328025758266449  0.09319157153367996  1.0000
  Tl  Tl1       1.0  0.3416053056716919  0.005476254504173994  0.06879252940416335  1.0000
