data_image0
_chemical_formula_structural       Ca3O6PbSr6TbZn
_chemical_formula_sum              "Ca3 O6 Pb1 Sr6 Tb1 Zn1"
_cell_length_a       6.195972805371437
_cell_length_b       6.438196458864231
_cell_length_c       12.09816837310791
_cell_angle_alpha    90.74404151766596
_cell_angle_beta     90.17083797819379
_cell_angle_gamma    105.829046593897

_space_group_name_H-M_alt    "P 1"
_space_group_IT_number       1

loop_
  _space_group_symop_operation_xyz
  'x, y, z'

loop_
  _atom_site_type_symbol
  _atom_site_label
  _atom_site_symmetry_multiplicity
  _atom_site_fract_x
  _atom_site_fract_y
  _atom_site_fract_z
  _atom_site_occupancy
  Ca  Ca1       1.0  0.6495345830917358  0.029474392533302304  0.8649097681045531  1.0000
  Ca  Ca2       1.0  0.1518043428659439  0.2153927981853485  0.7947065234184264  1.0000
  Ca  Ca3       1.0  0.14885003864765167  0.4009840488433838  0.8443267345428466  1.0000
  O   O1        1.0  0.4699835181236267  0.058119121938943856  0.7837973833084105  1.0000
  O   O2        1.0  0.07402200251817703  0.06713175773620605  0.7329550385475159  1.0000
  O   O3        1.0  0.6511431932449341  0.8081777691841125  0.5612949132919312  1.0000
  O   O4        1.0  0.06764190644025803  0.19559018313884735  0.7031479477882385  1.0000
  O   O5        1.0  0.6210307478904724  0.9255291223526  0.13131800293922424  1.0000
  O   O6        1.0  0.14567872881889343  0.8081796169281006  0.16333134472370148  1.0000
  Pb  Pb1       1.0  0.6503119468688965  0.8058618307113647  0.27877089381217957  1.0000
  Sr  Sr1       1.0  0.14550352096557617  0.4249182939529419  0.5756582617759705  1.0000
  Sr  Sr2       1.0  0.15157474577426908  0.4955581128597259  0.8957300782203673  1.0000
  Sr  Sr3       1.0  0.6549448370933533  0.3165578842163086  0.4788269400596618  1.0000
  Sr  Sr4       1.0  0.1370657980442047  0.8552212715148926  0.6336363554000854  1.0000
  Sr  Sr5       1.0  0.14386162161827087  0.54438716173172  0.6523024439811707  1.0000
  Sr  Sr6       1.0  0.6613926887512207  0.9037081599235535  0.12882235646247864  1.0000
  Tb  Tb1       1.0  0.6587221026420593  0.17689943313598633  0.04566572979092598  1.0000
  Zn  Zn1       1.0  0.1442388445138931  0.9435374736785888  0.05329716578125953  1.0000
