data_image0
_chemical_formula_structural       AlCaGe2O6P3PtSbTl3
_chemical_formula_sum              "Al1 Ca1 Ge2 O6 P3 Pt1 Sb1 Tl3"
_cell_length_a       7.485167109829028
_cell_length_b       7.530352971786709
_cell_length_c       7.581979274749756
_cell_angle_alpha    62.91544300489737
_cell_angle_beta     62.952904961801806
_cell_angle_gamma    61.05140212678041

_space_group_name_H-M_alt    "P 1"
_space_group_IT_number       1

loop_
  _space_group_symop_operation_xyz
  'x, y, z'

loop_
  _atom_site_type_symbol
  _atom_site_label
  _atom_site_symmetry_multiplicity
  _atom_site_fract_x
  _atom_site_fract_y
  _atom_site_fract_z
  _atom_site_occupancy
  Al  Al1       1.0  0.8698346018791199  0.13478916883468628  0.4832313060760498  1.0000
  Ca  Ca1       1.0  0.9159609079360962  0.10103841871023178  0.39415773749351496  1.0000
  Ge  Ge1       1.0  0.30707746744155884  0.34391918778419495  0.03497391194105148  1.0000
  Ge  Ge2       1.0  0.2510322332382202  0.6082842350006104  0.6072050929069519  1.0000
  O   O1        1.0  0.46720650792121887  0.7643333077430725  0.0686945989727974  1.0000
  O   O2        1.0  0.5307874083518982  0.8359126448631287  0.361706018447876  1.0000
  O   O3        1.0  0.3301694095134735  0.5602328181266785  0.5065894722938538  1.0000
  O   O4        1.0  0.25271812081336975  0.1273137480020523  0.08795539289712903  1.0000
  O   O5        1.0  0.8337368369102478  0.22886863350868225  0.10127010196447372  1.0000
  O   O6        1.0  0.07295195013284683  0.9674817323684692  0.5662537813186646  1.0000
  P   P1        1.0  0.3581133782863617  0.4631989598274231  0.20481213927268982  1.0000
  P   P2        1.0  0.652387261390686  0.003998609259724617  0.4941606819629669  1.0000
  P   P3        1.0  0.46136853098869324  0.8616495132446289  0.15797746181488037  1.0000
  Pt  Pt1       1.0  0.9178836941719055  0.3534298837184906  0.49231985211372375  1.0000
  Sb  Sb1       1.0  0.028963861986994743  0.07298986613750458  0.9844107031822205  1.0000
  Tl  Tl1       1.0  0.5350450277328491  0.5175819993019104  0.06181798502802849  1.0000
  Tl  Tl2       1.0  0.008666055276989937  0.30587238073349  0.8731740117073059  1.0000
  Tl  Tl3       1.0  0.42695194482803345  0.9229719042778015  0.3227335214614868  1.0000
