data_image0
_chemical_formula_structural       BiHoO3P2Re2Se
_chemical_formula_sum              "Bi1 Ho1 O3 P2 Re2 Se1"
_cell_length_a       5.647489024068369
_cell_length_b       6.963824181423368
_cell_length_c       7.329762935638428
_cell_angle_alpha    118.33345287410296
_cell_angle_beta     104.13876619957676
_cell_angle_gamma    89.19908795413603

_space_group_name_H-M_alt    "P 1"
_space_group_IT_number       1

loop_
  _space_group_symop_operation_xyz
  'x, y, z'

loop_
  _atom_site_type_symbol
  _atom_site_label
  _atom_site_symmetry_multiplicity
  _atom_site_fract_x
  _atom_site_fract_y
  _atom_site_fract_z
  _atom_site_occupancy
  Bi  Bi1       1.0  0.4494726359844208  0.6789186000823975  0.9276421070098877  1.0000
  Ho  Ho1       1.0  0.9133825302124023  0.29587799310684204  0.5888500809669495  1.0000
  O   O1        1.0  0.5844432711601257  0.10429449379444122  0.5864583253860474  1.0000
  O   O2        1.0  0.08825773745775223  0.9997211694717407  0.9622707366943359  1.0000
  O   O3        1.0  0.07895003259181976  0.690804123878479  0.517825484275818  1.0000
  P   P1        1.0  0.9105474948883057  0.41136160492897034  0.06278351694345481  1.0000
  P   P2        1.0  0.40993937849998474  0.2929289638996124  0.4661535918712616  1.0000
  Re  Re1       1.0  0.41742077469825745  0.048370614647865295  0.9244161248207092  1.0000
  Re  Re2       1.0  0.9297121167182922  0.13851971924304962  0.2593619525432587  1.0000
  Se  Se1       1.0  0.8984469771385193  0.6233534812927246  0.5090099573135377  1.0000
