data_image0
_chemical_formula_structural       O4P2Re3Sm
_chemical_formula_sum              "O4 P2 Re3 Sm1"
_cell_length_a       4.927011597958171
_cell_length_b       7.297616620500996
_cell_length_c       7.970592975616455
_cell_angle_alpha    116.651183744873
_cell_angle_beta     97.2295761761306
_cell_angle_gamma    91.7987372191996

_space_group_name_H-M_alt    "P 1"
_space_group_IT_number       1

loop_
  _space_group_symop_operation_xyz
  'x, y, z'

loop_
  _atom_site_type_symbol
  _atom_site_label
  _atom_site_symmetry_multiplicity
  _atom_site_fract_x
  _atom_site_fract_y
  _atom_site_fract_z
  _atom_site_occupancy
  O   O1        1.0  0.20003637671470642  0.6125658750534058  0.8836911916732788  1.0000
  O   O2        1.0  0.19188694655895233  0.10646851360797882  0.3575938045978546  1.0000
  O   O3        1.0  0.5187792778015137  0.6114783883094788  0.58038330078125  1.0000
  O   O4        1.0  0.03451322391629219  0.50161212682724  0.8539182543754579  1.0000
  P   P1        1.0  0.2371172308921814  0.9291428327560425  0.904133141040802  1.0000
  P   P2        1.0  0.23807013034820557  0.19735559821128845  0.0958893969655037  1.0000
  Re  Re1       1.0  0.6605806350708008  0.22570069134235382  0.7603158950805664  1.0000
  Re  Re2       1.0  0.6779494881629944  0.881557285785675  0.383418470621109  1.0000
  Re  Re3       1.0  0.6313658952713013  0.2452552169561386  0.574223518371582  1.0000
  Sm  Sm1       1.0  0.13613125681877136  0.6024962663650513  0.6507384181022644  1.0000
