data_image0
_chemical_formula_structural       Bi2O4P2Re2
_chemical_formula_sum              "Bi2 O4 P2 Re2"
_cell_length_a       5.048768330263736
_cell_length_b       6.818467523235528
_cell_length_c       7.231836318969727
_cell_angle_alpha    114.1469261179144
_cell_angle_beta     109.25645298039008
_cell_angle_gamma    89.23792435390024

_space_group_name_H-M_alt    "P 1"
_space_group_IT_number       1

loop_
  _space_group_symop_operation_xyz
  'x, y, z'

loop_
  _atom_site_type_symbol
  _atom_site_label
  _atom_site_symmetry_multiplicity
  _atom_site_fract_x
  _atom_site_fract_y
  _atom_site_fract_z
  _atom_site_occupancy
  Bi  Bi1       1.0  0.6453026533126831  0.12632796168327332  0.25224053859710693  1.0000
  Bi  Bi2       1.0  0.6860499382019043  0.6789339184761047  0.39462289214134216  1.0000
  O   O1        1.0  0.8635054230690002  0.22004933655261993  0.8871147036552429  1.0000
  O   O2        1.0  0.3185134530067444  0.9857507944107057  0.7842880487442017  1.0000
  O   O3        1.0  0.17364530265331268  0.15410101413726807  0.09969187527894974  1.0000
  O   O4        1.0  0.5878733396530151  0.8874688148498535  0.3041611909866333  1.0000
  P   P1        1.0  0.2679016888141632  0.7791869044303894  0.9232543110847473  1.0000
  P   P2        1.0  0.24615100026130676  0.1769372522830963  0.5466405749320984  1.0000
  Re  Re1       1.0  0.9254276752471924  0.36564400792121887  0.027302535250782967  1.0000
  Re  Re2       1.0  0.5209278464317322  0.9687585830688478  0.7412996888160706  1.0000
