data_image0
_chemical_formula_structural       BiO4Re4Se
_chemical_formula_sum              "Bi1 O4 Re4 Se1"
_cell_length_a       6.190132579165877
_cell_length_b       7.50504267744799
_cell_length_c       7.7342143058776855
_cell_angle_alpha    118.24659430427045
_cell_angle_beta     107.03034054531096
_cell_angle_gamma    89.54251936384463

_space_group_name_H-M_alt    "P 1"
_space_group_IT_number       1

loop_
  _space_group_symop_operation_xyz
  'x, y, z'

loop_
  _atom_site_type_symbol
  _atom_site_label
  _atom_site_symmetry_multiplicity
  _atom_site_fract_x
  _atom_site_fract_y
  _atom_site_fract_z
  _atom_site_occupancy
  Bi  Bi1       1.0  0.3676507771015167  0.4947226941585541  0.8514589667320251  1.0000
  O   O1        1.0  0.648867130279541  0.10521431267261505  0.9069971442222595  1.0000
  O   O2        1.0  0.522340714931488  0.47486239671707153  0.6155370473861694  1.0000
  O   O3        1.0  0.11297110468149185  0.32766345143318176  0.9220809936523438  1.0000
  O   O4        1.0  0.17862451076507568  0.5388719439506531  0.41437527537345886  1.0000
  Re  Re1       1.0  0.900461733341217  0.3935394883155823  0.00031244754791259766  1.0000
  Re  Re2       1.0  0.8733872175216675  0.1625433713197708  0.8436986207962036  1.0000
  Re  Re3       1.0  0.12054871767759323  0.8560013175010681  0.47967272996902466  1.0000
  Re  Re4       1.0  0.6382838487625122  0.34138813614845276  0.5049039721488953  1.0000
  Se  Se1       1.0  0.1617363840341568  0.8029757738113403  0.2846068739891052  1.0000
