data_image0
_chemical_formula_structural       Bi2O3Re5
_chemical_formula_sum              "Bi2 O3 Re5"
_cell_length_a       4.7452636629186165
_cell_length_b       6.765760390941304
_cell_length_c       7.026389122009277
_cell_angle_alpha    117.75235988652429
_cell_angle_beta     91.22277925271625
_cell_angle_gamma    88.40661807289287

_space_group_name_H-M_alt    "P 1"
_space_group_IT_number       1

loop_
  _space_group_symop_operation_xyz
  'x, y, z'

loop_
  _atom_site_type_symbol
  _atom_site_label
  _atom_site_symmetry_multiplicity
  _atom_site_fract_x
  _atom_site_fract_y
  _atom_site_fract_z
  _atom_site_occupancy
  Bi  Bi1       1.0  0.3887663781642914  0.7430481910705566  0.15893766283988947  1.0000
  Bi  Bi2       1.0  0.8866779804229736  0.8436850905418396  0.9682009220123291  1.0000
  O   O1        1.0  0.3834255337715149  0.3631238639354706  0.8787969350814819  1.0000
  O   O2        1.0  0.383474737405777  0.07527141273021698  0.5573830008506775  1.0000
  O   O3        1.0  0.8838639259338379  0.2952244281768799  0.4082900881767273  1.0000
  Re  Re1       1.0  0.38362061977386475  0.373938649892807  0.9026538729667664  1.0000
  Re  Re2       1.0  0.8863371014595032  0.07183841615915298  0.31304365396499634  1.0000
  Re  Re3       1.0  0.8616620302200317  0.5890458822250366  0.00011932849884030043  1.0000
  Re  Re4       1.0  0.38663458824157715  0.016069810837507248  0.7203916907310486  1.0000
  Re  Re5       1.0  0.8951357007026672  0.5787720084190369  0.5488169193267821  1.0000
