data_image0
_chemical_formula_structural       Bi2O3Re4S
_chemical_formula_sum              "Bi2 O3 Re4 S1"
_cell_length_a       4.862216836759189
_cell_length_b       6.766008960433496
_cell_length_c       6.760155200958252
_cell_angle_alpha    118.99766157873619
_cell_angle_beta     91.18771174943406
_cell_angle_gamma    87.80459953961598

_space_group_name_H-M_alt    "P 1"
_space_group_IT_number       1

loop_
  _space_group_symop_operation_xyz
  'x, y, z'

loop_
  _atom_site_type_symbol
  _atom_site_label
  _atom_site_symmetry_multiplicity
  _atom_site_fract_x
  _atom_site_fract_y
  _atom_site_fract_z
  _atom_site_occupancy
  Bi  Bi1       1.0  0.39948081970214844  0.9659840464591979  0.5510970354080199  1.0000
  Bi  Bi2       1.0  0.8756589293479919  0.7185770869255065  0.6096763610839844  1.0000
  O   O1        1.0  0.872410237789154  0.12024191021919249  0.6616777777671814  1.0000
  O   O2        1.0  0.4183466136455536  0.024305697530508038  0.5811385512351989  1.0000
  O   O3        1.0  0.9014655947685242  0.6165052652359009  0.08513949066400521  1.0000
  Re  Re1       1.0  0.8792967796325684  0.41889974474906916  0.5724819898605347  1.0000
  Re  Re2       1.0  0.40187665820121765  0.10709357261657713  0.5917963981628418  1.0000
  Re  Re3       1.0  0.3864876627922058  0.22774067521095273  0.07728348672389983  1.0000
  Re  Re4       1.0  0.8956730961799622  0.6405735015869141  0.5902265906333922  1.0000
  S   S1        1.0  0.8805031776428223  0.2884567379951477  0.13619619607925415  1.0000
