data_image0
_chemical_formula_structural       P2Pr7Ru2
_chemical_formula_sum              "P2 Pr7 Ru2"
_cell_length_a       4.686085514465336
_cell_length_b       7.660989976952177
_cell_length_c       8.019941329956055
_cell_angle_alpha    111.12350650302791
_cell_angle_beta     89.50173319716428
_cell_angle_gamma    97.65939838887226

_space_group_name_H-M_alt    "P 1"
_space_group_IT_number       1

loop_
  _space_group_symop_operation_xyz
  'x, y, z'

loop_
  _atom_site_type_symbol
  _atom_site_label
  _atom_site_symmetry_multiplicity
  _atom_site_fract_x
  _atom_site_fract_y
  _atom_site_fract_z
  _atom_site_occupancy
  P   P1        1.0  0.8793032169342041  0.9125218391418457  0.9788787961006165  1.0000
  P   P2        1.0  0.370029479265213  0.951829195022583  0.943084716796875  1.0000
  Pr  Pr1       1.0  0.8696714043617249  0.12285684794187546  0.28870710730552673  1.0000
  Pr  Pr2       1.0  0.8763176798820496  0.5007955431938171  0.7709875106811523  1.0000
  Pr  Pr3       1.0  0.8776513338088989  0.25925830006599426  0.7073301672935486  1.0000
  Pr  Pr4       1.0  0.37132593989372253  0.45831969380378723  0.26331406831741333  1.0000
  Pr  Pr5       1.0  0.37504273653030396  0.9390808343887329  0.8453572392463684  1.0000
  Pr  Pr6       1.0  0.8755390644073486  0.8900201320648193  0.39342987537384033  1.0000
  Pr  Pr7       1.0  0.8746092915534973  0.24359551072120667  0.18627455830574036  1.0000
  Ru  Ru1       1.0  0.37249329686164856  0.08401991426944733  0.16486842930316928  1.0000
  Ru  Ru2       1.0  0.3736055791378021  0.43909260630607605  0.0332770049571991  1.0000
