data_image0
_chemical_formula_structural       Pr7Ru4
_chemical_formula_sum              "Pr7 Ru4"
_cell_length_a       4.2405465024790265
_cell_length_b       7.477538539748647
_cell_length_c       7.825218200683594
_cell_angle_alpha    116.14166801118839
_cell_angle_beta     91.48420078620282
_cell_angle_gamma    89.72436068366652

_space_group_name_H-M_alt    "P 1"
_space_group_IT_number       1

loop_
  _space_group_symop_operation_xyz
  'x, y, z'

loop_
  _atom_site_type_symbol
  _atom_site_label
  _atom_site_symmetry_multiplicity
  _atom_site_fract_x
  _atom_site_fract_y
  _atom_site_fract_z
  _atom_site_occupancy
  Pr  Pr1       1.0  0.3710119128227234  0.8095234632492065  0.560185134410858  1.0000
  Pr  Pr2       1.0  0.8483679890632629  0.6656395792961121  0.7953091263771056  1.0000
  Pr  Pr3       1.0  0.35057222843170166  0.6292074918746948  0.6934207081794738  1.0000
  Pr  Pr4       1.0  0.3474757969379425  0.6470252275466919  0.24043697118759152  1.0000
  Pr  Pr5       1.0  0.8542034029960632  0.12898731231689453  0.6384881734848021  1.0000
  Pr  Pr6       1.0  0.35198140144348145  0.3460637629032135  0.9055969715118407  1.0000
  Pr  Pr7       1.0  0.3507946729660034  0.8522583842277527  0.9260673522949218  1.0000
  Ru  Ru1       1.0  0.8450447916984558  0.6360637545585632  0.9609940648078917  1.0000
  Ru  Ru2       1.0  0.3454427719116211  0.14629392325878143  0.15256862342357633  1.0000
  Ru  Ru3       1.0  0.8452142477035522  0.1525682508945465  0.4030266106128692  1.0000
  Ru  Ru4       1.0  0.35018202662467957  0.34114283323287964  0.4820416569709777  1.0000
