data_image0
_chemical_formula_structural       Pr4Ru7
_chemical_formula_sum              "Pr4 Ru7"
_cell_length_a       3.546061353517138
_cell_length_b       7.295352426337535
_cell_length_c       7.634130954742432
_cell_angle_alpha    121.89552845077424
_cell_angle_beta     91.68500130602912
_cell_angle_gamma    86.09543555912758

_space_group_name_H-M_alt    "P 1"
_space_group_IT_number       1

loop_
  _space_group_symop_operation_xyz
  'x, y, z'

loop_
  _atom_site_type_symbol
  _atom_site_label
  _atom_site_symmetry_multiplicity
  _atom_site_fract_x
  _atom_site_fract_y
  _atom_site_fract_z
  _atom_site_occupancy
  Pr  Pr1       1.0  0.08621044456958771  0.8141140937805176  0.4088699519634247  1.0000
  Pr  Pr2       1.0  0.08712466806173325  0.4908637702465057  0.44061121344566345  1.0000
  Pr  Pr3       1.0  0.08450215309858322  0.8722230792045593  0.9254262447357178  1.0000
  Pr  Pr4       1.0  0.5838170051574707  0.9753388762474059  0.9754935503005981  1.0000
  Ru  Ru1       1.0  0.5878888964653015  0.15888895094394684  0.18723411858081818  1.0000
  Ru  Ru2       1.0  0.5845694541931152  0.3278680443763733  0.4287723898887634  1.0000
  Ru  Ru3       1.0  0.571623682975769  0.7328317761421204  0.6483616828918457  1.0000
  Ru  Ru4       1.0  0.08541304618120193  0.01993810199201107  0.42286375164985657  1.0000
  Ru  Ru5       1.0  0.07907279580831528  0.5409551858901978  0.281391978263855  1.0000
  Ru  Ru6       1.0  0.08375883102416992  0.19385403394699097  0.6370419263839722  1.0000
  Ru  Ru7       1.0  0.594733476638794  0.758073627948761  0.6791237592697144  1.0000
