data_image0
_chemical_formula_structural       Pr4Ru7
_chemical_formula_sum              "Pr4 Ru7"
_cell_length_a       0.8179400297377375
_cell_length_b       7.48719771240928
_cell_length_c       6.928130149841309
_cell_angle_alpha    121.62412752520986
_cell_angle_beta     80.3203226792285
_cell_angle_gamma    94.44285250208758

_space_group_name_H-M_alt    "P 1"
_space_group_IT_number       1

loop_
  _space_group_symop_operation_xyz
  'x, y, z'

loop_
  _atom_site_type_symbol
  _atom_site_label
  _atom_site_symmetry_multiplicity
  _atom_site_fract_x
  _atom_site_fract_y
  _atom_site_fract_z
  _atom_site_occupancy
  Pr  Pr1       1.0  0.13573375344276428  0.1234918385744095  0.48296657204627985  1.0000
  Pr  Pr2       1.0  0.12903276085853577  0.3018886148929596  0.7459158897399903  1.0000
  Pr  Pr3       1.0  0.13614600896835327  0.014458964578807356  0.8506273627281189  1.0000
  Pr  Pr4       1.0  0.620134174823761  0.1370738446712494  0.32244446873664856  1.0000
  Ru  Ru1       1.0  0.11677171289920808  0.7957294583320618  0.048099085688591066  1.0000
  Ru  Ru2       1.0  0.12088140845298768  0.6778839230537415  0.8792113065719604  1.0000
  Ru  Ru3       1.0  0.6199491024017334  0.5345335602760315  0.2377981990575791  1.0000
  Ru  Ru4       1.0  0.12332703173160554  0.1944512277841568  0.43290975689888006  1.0000
  Ru  Ru5       1.0  0.6182469725608826  0.5037611126899719  0.3239673674106598  1.0000
  Ru  Ru6       1.0  0.6179255843162537  0.8635457754135133  0.9775869846343995  1.0000
  Ru  Ru7       1.0  0.6176923513412476  0.47011265158653265  0.3692378401756287  1.0000
