data_image0
_chemical_formula_structural       Pr7Ru4
_chemical_formula_sum              "Pr7 Ru4"
_cell_length_a       4.22255018453608
_cell_length_b       7.3582005000001525
_cell_length_c       7.741758346557617
_cell_angle_alpha    118.8715077993061
_cell_angle_beta     91.60000111003438
_cell_angle_gamma    88.5819892220811

_space_group_name_H-M_alt    "P 1"
_space_group_IT_number       1

loop_
  _space_group_symop_operation_xyz
  'x, y, z'

loop_
  _atom_site_type_symbol
  _atom_site_label
  _atom_site_symmetry_multiplicity
  _atom_site_fract_x
  _atom_site_fract_y
  _atom_site_fract_z
  _atom_site_occupancy
  Pr  Pr1       1.0  0.30944323539733887  0.9218127727508544  0.9014540314674377  1.0000
  Pr  Pr2       1.0  0.3110686242580414  0.4053403735160827  0.6610600352287292  1.0000
  Pr  Pr3       1.0  0.8072032928466797  0.3600465357303619  0.3166741728782654  1.0000
  Pr  Pr4       1.0  0.808845579624176  0.25458279252052307  0.15388530492782593  1.0000
  Pr  Pr5       1.0  0.3086090385913849  0.20405049622058866  0.7881863713264465  1.0000
  Pr  Pr6       1.0  0.8096568584442139  0.12712399661540985  0.30448901653289795  1.0000
  Pr  Pr7       1.0  0.3107285499572754  0.272164911031723  0.3944322466850281  1.0000
  Ru  Ru1       1.0  0.8051643967628479  0.6200429201126099  0.6438888907432556  1.0000
  Ru  Ru2       1.0  0.3095264434814453  0.7666487097740172  0.4318670332431793  1.0000
  Ru  Ru3       1.0  0.3055652976036072  0.8758072853088378  0.21159328520297999  1.0000
  Ru  Ru4       1.0  0.8050219416618347  0.7015378475189208  0.7891966700553894  1.0000
