data_image0
_chemical_formula_structural       Pr7Ru4
_chemical_formula_sum              "Pr7 Ru4"
_cell_length_a       4.440823454818382
_cell_length_b       7.881116998506899
_cell_length_c       8.047719955444336
_cell_angle_alpha    119.44719149568897
_cell_angle_beta     90.13742847533156
_cell_angle_gamma    89.08309359765718

_space_group_name_H-M_alt    "P 1"
_space_group_IT_number       1

loop_
  _space_group_symop_operation_xyz
  'x, y, z'

loop_
  _atom_site_type_symbol
  _atom_site_label
  _atom_site_symmetry_multiplicity
  _atom_site_fract_x
  _atom_site_fract_y
  _atom_site_fract_z
  _atom_site_occupancy
  Pr  Pr1       1.0  0.01594541408121586  0.24508239328861234  0.9065159559249878  1.0000
  Pr  Pr2       1.0  0.016536090523004532  0.4966082572937011  0.742800235748291  1.0000
  Pr  Pr3       1.0  0.008783221244812013  0.3881680071353912  0.3287646770477295  1.0000
  Pr  Pr4       1.0  0.5180571675300598  0.9170157909393309  0.7127533555030823  1.0000
  Pr  Pr5       1.0  0.016605067998170856  0.9528149962425231  0.28363153338432306  1.0000
  Pr  Pr6       1.0  0.5097792148590088  0.8478208184242247  0.042876228690147344  1.0000
  Pr  Pr7       1.0  0.013591079972684383  0.00013861556362826377  0.05071258917450905  1.0000
  Ru  Ru1       1.0  0.016803303733468056  0.38372486829757685  0.4111584722995758  1.0000
  Ru  Ru2       1.0  0.5161610245704651  0.7685149908065795  0.41197496652603144  1.0000
  Ru  Ru3       1.0  0.5133124589920044  0.3422437310218811  0.4926912486553192  1.0000
  Ru  Ru4       1.0  0.5135233998298645  0.25665175914764404  0.32374683022499084  1.0000
