data_image0
_chemical_formula_structural       NiTlZnZr4
_chemical_formula_sum              "Ni1 Tl1 Zn1 Zr4"
_cell_length_a       4.993873234792771
_cell_length_b       6.701482964150917
_cell_length_c       6.472115516662598
_cell_angle_alpha    123.2550231581552
_cell_angle_beta     89.94267338987663
_cell_angle_gamma    90.19294899376365

_space_group_name_H-M_alt    "P 1"
_space_group_IT_number       1

loop_
  _space_group_symop_operation_xyz
  'x, y, z'

loop_
  _atom_site_type_symbol
  _atom_site_label
  _atom_site_symmetry_multiplicity
  _atom_site_fract_x
  _atom_site_fract_y
  _atom_site_fract_z
  _atom_site_occupancy
  Ni  Ni1       1.0  0.42676639556884766  0.43230104446411133  0.2002893537282944  1.0000
  Tl  Tl1       1.0  0.9234659671783447  0.9375704526901245  0.5790335536003114  1.0000
  Zn  Zn1       1.0  0.4267740547657013  0.42197394371032715  0.6931425333023071  1.0000
  Zr  Zr1       1.0  0.9269117116928101  0.21865615248680115  0.6001476645469666  1.0000
  Zr  Zr2       1.0  0.4299790561199188  0.6902146935462952  0.6284374594688416  1.0000
  Zr  Zr3       1.0  0.9270466566085815  0.6943764090538025  0.09462634474039078  1.0000
  Zr  Zr4       1.0  0.9295075535774231  0.07900968194007874  0.7880874276161194  1.0000
