data_image0
_chemical_formula_structural       SnTe2Zr4
_chemical_formula_sum              "Sn1 Te2 Zr4"
_cell_length_a       4.738026721590486
_cell_length_b       7.382939316737496
_cell_length_c       7.699181079864502
_cell_angle_alpha    120.57118210664993
_cell_angle_beta     86.86216036636695
_cell_angle_gamma    91.13221032631918

_space_group_name_H-M_alt    "P 1"
_space_group_IT_number       1

loop_
  _space_group_symop_operation_xyz
  'x, y, z'

loop_
  _atom_site_type_symbol
  _atom_site_label
  _atom_site_symmetry_multiplicity
  _atom_site_fract_x
  _atom_site_fract_y
  _atom_site_fract_z
  _atom_site_occupancy
  Sn  Sn1       1.0  0.13440996408462524  0.3277001976966858  0.5142075419425964  1.0000
  Te  Te1       1.0  0.13529565930366516  0.4074334502220153  0.053361505270004245  1.0000
  Te  Te2       1.0  0.13462349772453308  0.40173047780990595  0.841738760471344  1.0000
  Zr  Zr1       1.0  0.1295749694108963  0.9798788428306578  0.6941531300544739  1.0000
  Zr  Zr2       1.0  0.6262713670730591  0.7553817629814148  0.2326541543006896  1.0000
  Zr  Zr3       1.0  0.6275138854980469  0.7150943875312805  0.6065747141838074  1.0000
  Zr  Zr4       1.0  0.6267603039741516  0.3563876748085022  0.8099137544631958  1.0000
