data_image0
_chemical_formula_structural       CrGeI2Pb3
_chemical_formula_sum              "Cr1 Ge1 I2 Pb3"
_cell_length_a       4.710204595005082
_cell_length_b       5.63336211316597
_cell_length_c       8.707860946655273
_cell_angle_alpha    118.94576189813698
_cell_angle_beta     93.56677450293495
_cell_angle_gamma    91.5347346635386

_space_group_name_H-M_alt    "P 1"
_space_group_IT_number       1

loop_
  _space_group_symop_operation_xyz
  'x, y, z'

loop_
  _atom_site_type_symbol
  _atom_site_label
  _atom_site_symmetry_multiplicity
  _atom_site_fract_x
  _atom_site_fract_y
  _atom_site_fract_z
  _atom_site_occupancy
  Cr  Cr1       1.0  0.09108400344848633  0.3096660375595093  0.883719801902771  1.0000
  Ge  Ge1       1.0  0.09430508315563202  0.7746797204017639  0.8914922475814819  1.0000
  I   I1        1.0  0.5895348191261292  0.2930942475795746  0.1206025630235672  1.0000
  I   I2        1.0  0.0859074369072914  0.9752713441848754  0.9104495644569397  1.0000
  Pb  Pb1       1.0  0.587628185749054  0.9549297690391539  0.2281254082918167  1.0000
  Pb  Pb2       1.0  0.0776236429810524  0.7318991422653198  0.4759114980697632  1.0000
  Pb  Pb3       1.0  0.5784379243850708  0.07912369072437286  0.4285373389720917  1.0000
