data_image0
_chemical_formula_structural       CPb4Tm2
_chemical_formula_sum              "C1 Pb4 Tm2"
_cell_length_a       5.217959330725153
_cell_length_b       5.0760869589218505
_cell_length_c       5.461165904998779
_cell_angle_alpha    106.89271358804571
_cell_angle_beta     106.6262405431444
_cell_angle_gamma    116.26452233389912

_space_group_name_H-M_alt    "P 1"
_space_group_IT_number       1

loop_
  _space_group_symop_operation_xyz
  'x, y, z'

loop_
  _atom_site_type_symbol
  _atom_site_label
  _atom_site_symmetry_multiplicity
  _atom_site_fract_x
  _atom_site_fract_y
  _atom_site_fract_z
  _atom_site_occupancy
  C   C1        1.0  0.34141644835472107  0.6004369258880615  0.47640255093574524  1.0000
  Pb  Pb1       1.0  0.36074942350387573  0.09165085107088088  0.9534674286842346  1.0000
  Pb  Pb2       1.0  0.10513295978307724  0.14736944437026978  0.07261785864830017  1.0000
  Pb  Pb3       1.0  0.09518232941627498  0.3661051988601684  0.6632888913154602  1.0000
  Pb  Pb4       1.0  0.7629216313362122  0.35526037216186523  0.06679811328649521  1.0000
  Tm  Tm1       1.0  0.10054336488246914  0.41863474249839777  0.4894797205924988  1.0000
  Tm  Tm2       1.0  0.5330408215522766  0.036434758454561234  0.6321392059326172  1.0000
