data_image0
_chemical_formula_structural       HfI2LiPbTmZr
_chemical_formula_sum              "Hf1 I2 Li1 Pb1 Tm1 Zr1"
_cell_length_a       5.696751172068184
_cell_length_b       4.696959543294999
_cell_length_c       5.349732398986816
_cell_angle_alpha    38.28194513935383
_cell_angle_beta     64.21697294387057
_cell_angle_gamma    56.652907025554526

_space_group_name_H-M_alt    "P 1"
_space_group_IT_number       1

loop_
  _space_group_symop_operation_xyz
  'x, y, z'

loop_
  _atom_site_type_symbol
  _atom_site_label
  _atom_site_symmetry_multiplicity
  _atom_site_fract_x
  _atom_site_fract_y
  _atom_site_fract_z
  _atom_site_occupancy
  Hf  Hf1       1.0  0.4468487501144409  0.7182835936546326  0.0042372462339699355  1.0000
  I   I1        1.0  0.06042995676398277  0.9654833078384399  0.6506720781326293  1.0000
  I   I2        1.0  0.8830563426017761  0.7624333500862122  0.3272022604942322  1.0000
  Li  Li1       1.0  0.4573536217212677  0.6831088662147521  0.6153799891471863  1.0000
  Pb  Pb1       1.0  0.4510399401187897  0.6480838656425476  0.23716989159584045  1.0000
  Tm  Tm1       1.0  0.42465484142303467  0.435903936624527  0.49908944964408886  1.0000
  Zr  Zr1       1.0  0.5124223232269287  0.17360571026802063  0.1949394792318344  1.0000
