data_image0
_chemical_formula_structural       H3VW5Y
_chemical_formula_sum              "H3 V1 W5 Y1"
_cell_length_a       3.4536217475939814
_cell_length_b       5.144373384527608
_cell_length_c       7.168519973754883
_cell_angle_alpha    94.59481032069296
_cell_angle_beta     96.90377537332077
_cell_angle_gamma    95.31196468335699

_space_group_name_H-M_alt    "P 1"
_space_group_IT_number       1

loop_
  _space_group_symop_operation_xyz
  'x, y, z'

loop_
  _atom_site_type_symbol
  _atom_site_label
  _atom_site_symmetry_multiplicity
  _atom_site_fract_x
  _atom_site_fract_y
  _atom_site_fract_z
  _atom_site_occupancy
  H   H1        1.0  0.45395830273628235  0.26817786693573  0.08323897421360016  1.0000
  H   H2        1.0  0.6772002577781677  0.7604491710662842  0.2843036949634552  1.0000
  H   H3        1.0  0.9659000635147095  0.7760883569717407  0.6653817296028137  1.0000
  V   V1        1.0  0.07904867082834244  0.6081615090370178  0.14830584824085236  1.0000
  W   W1        1.0  0.9785228967666626  0.5230809450149536  0.8708242774009705  1.0000
  W   W2        1.0  0.9897431135177612  0.2953820526599884  0.3674795627593994  1.0000
  W   W3        1.0  0.9849274158477783  0.11180439591407776  0.851203978061676  1.0000
  W   W4        1.0  0.727605938911438  0.38796478509902954  0.537584662437439  1.0000
  W   W5        1.0  0.26219406723976135  0.11242645978927612  0.07765113562345505  1.0000
  Y   Y1        1.0  0.5079008936882019  0.647741436958313  0.3854936361312866  1.0000
