data_image0
_chemical_formula_structural       H3PW6
_chemical_formula_sum              "H3 P1 W6"
_cell_length_a       4.437089927819615
_cell_length_b       5.393148672489836
_cell_length_c       8.600499153137207
_cell_angle_alpha    96.40200388434202
_cell_angle_beta     88.57098988213184
_cell_angle_gamma    96.83303208903777

_space_group_name_H-M_alt    "P 1"
_space_group_IT_number       1

loop_
  _space_group_symop_operation_xyz
  'x, y, z'

loop_
  _atom_site_type_symbol
  _atom_site_label
  _atom_site_symmetry_multiplicity
  _atom_site_fract_x
  _atom_site_fract_y
  _atom_site_fract_z
  _atom_site_occupancy
  H   H1        1.0  0.40895935893058777  0.698478639125824  0.5281493067741394  1.0000
  H   H2        1.0  0.702136218547821  0.9420458078384399  0.9897801280021667  1.0000
  H   H3        1.0  0.7031307220458984  0.3433949053287506  0.790307879447937  1.0000
  P   P1        1.0  0.18471473455429077  0.7795534133911133  0.8245239853858948  1.0000
  W   W1        1.0  0.972663164138794  0.19316726922988892  0.7041575908660889  1.0000
  W   W2        1.0  0.6768666505813599  0.5526596903800964  0.781889021396637  1.0000
  W   W3        1.0  0.18703792989253998  0.5278897881507874  0.8662782907485962  1.0000
  W   W4        1.0  0.9882628917694092  0.1827152669429779  0.4797952473163605  1.0000
  W   W5        1.0  0.20513182878494263  0.34037816524505615  0.12923787534236908  1.0000
  W   W6        1.0  0.5011411905288696  0.1556929349899292  0.7817486524581909  1.0000
