data_image0
_chemical_formula_structural       H3PRhW5
_chemical_formula_sum              "H3 P1 Rh1 W5"
_cell_length_a       4.392671598968294
_cell_length_b       4.272348971181241
_cell_length_c       7.156606197357178
_cell_angle_alpha    90.08338649422365
_cell_angle_beta     89.19508359881247
_cell_angle_gamma    88.41433981834246

_space_group_name_H-M_alt    "P 1"
_space_group_IT_number       1

loop_
  _space_group_symop_operation_xyz
  'x, y, z'

loop_
  _atom_site_type_symbol
  _atom_site_label
  _atom_site_symmetry_multiplicity
  _atom_site_fract_x
  _atom_site_fract_y
  _atom_site_fract_z
  _atom_site_occupancy
  H   H1        1.0  0.23539063334465027  0.3384482264518738  0.8097538948059082  1.0000
  H   H2        1.0  0.9000312685966492  0.5271108746528625  0.14061595499515533  1.0000
  H   H3        1.0  0.8908762335777283  0.03286786377429962  0.6143613457679749  1.0000
  P   P1        1.0  0.278751015663147  0.5201850533485413  0.7500866055488586  1.0000
  Rh  Rh1       1.0  0.5958048701286316  0.5154302716255188  0.8993301391601562  1.0000
  W   W1        1.0  0.6341704726219177  0.03974456712603569  0.8660532832145691  1.0000
  W   W2        1.0  0.3822428286075592  0.5796590447425842  0.641797661781311  1.0000
  W   W3        1.0  0.4522644281387329  0.7783533930778503  0.37142136693000793  1.0000
  W   W4        1.0  0.933689534664154  0.8368697762489319  0.6168932318687439  1.0000
  W   W5        1.0  0.8351306915283203  0.5488935708999634  0.3864201605319977  1.0000
