data_image0
_chemical_formula_structural       H3W6Yb
_chemical_formula_sum              "H3 W6 Yb1"
_cell_length_a       3.8152097546794694
_cell_length_b       5.01293551088645
_cell_length_c       8.314238548278809
_cell_angle_alpha    97.42590933394
_cell_angle_beta     87.66923560228669
_cell_angle_gamma    92.7127896813477

_space_group_name_H-M_alt    "P 1"
_space_group_IT_number       1

loop_
  _space_group_symop_operation_xyz
  'x, y, z'

loop_
  _atom_site_type_symbol
  _atom_site_label
  _atom_site_symmetry_multiplicity
  _atom_site_fract_x
  _atom_site_fract_y
  _atom_site_fract_z
  _atom_site_occupancy
  H   H1        1.0  0.7744757533073425  0.5354136228561401  0.9393109679222107  1.0000
  H   H2        1.0  0.028070954605937004  0.9290733337402344  0.5865120887756348  1.0000
  H   H3        1.0  0.2792375683784485  0.6816959381103516  0.41828879714012146  1.0000
  W   W1        1.0  0.27297189831733704  0.21764765679836273  0.6668275594711304  1.0000
  W   W2        1.0  0.7700157761573792  0.6687136292457581  0.06115014851093292  1.0000
  W   W3        1.0  0.27177339792251587  0.785726010799408  0.9153310656547546  1.0000
  W   W4        1.0  0.7804168462753296  0.3725811541080475  0.4468294382095337  1.0000
  W   W5        1.0  0.7679902911186218  0.8765217661857605  0.42493751645088196  1.0000
  W   W6        1.0  0.27870428562164307  0.7238833904266357  0.6780059337615967  1.0000
  Yb  Yb1       1.0  0.7668135166168213  0.2571464776992798  0.9368082284927368  1.0000
