data_image0
_chemical_formula_structural       BaCaH2W5Yb
_chemical_formula_sum              "Ba1 Ca1 H2 W5 Yb1"
_cell_length_a       4.626627219096917
_cell_length_b       6.204161782266258
_cell_length_c       6.496023654937744
_cell_angle_alpha    119.17965015859855
_cell_angle_beta     90.55275589533136
_cell_angle_gamma    89.77387082319767

_space_group_name_H-M_alt    "P 1"
_space_group_IT_number       1

loop_
  _space_group_symop_operation_xyz
  'x, y, z'

loop_
  _atom_site_type_symbol
  _atom_site_label
  _atom_site_symmetry_multiplicity
  _atom_site_fract_x
  _atom_site_fract_y
  _atom_site_fract_z
  _atom_site_occupancy
  Ba  Ba1       1.0  0.43358322978019714  0.6068392992019653  0.9628934264183044  1.0000
  Ca  Ca1       1.0  0.9383633732795715  0.08457312732934952  0.9025676846504211  1.0000
  H   H1        1.0  0.42460593581199646  0.8166670203208923  0.24862204492092133  1.0000
  H   H2        1.0  0.9521558880805969  0.2520906329154968  0.010532236658036709  1.0000
  W   W1        1.0  0.9231734871864319  0.2292109876871109  0.5004777312278748  1.0000
  W   W2        1.0  0.9341999292373657  0.07980383932590485  0.8990309834480286  1.0000
  W   W3        1.0  0.41087692975997925  0.2609676420688629  0.6127212047576904  1.0000
  W   W4        1.0  0.6734516620635986  0.13510456681251526  0.5160486102104187  1.0000
  W   W5        1.0  0.9345734119415283  0.6938163042068481  0.22778767347335815  1.0000
  Yb  Yb1       1.0  0.42144373059272766  0.5507816076278687  0.8348861932754517  1.0000
