data_image0
_chemical_formula_structural       H3W6Yb
_chemical_formula_sum              "H3 W6 Yb1"
_cell_length_a       4.043291052986671
_cell_length_b       5.684055715651184
_cell_length_c       7.221914291381836
_cell_angle_alpha    117.66907675461196
_cell_angle_beta     101.32892793399522
_cell_angle_gamma    86.69404795237331

_space_group_name_H-M_alt    "P 1"
_space_group_IT_number       1

loop_
  _space_group_symop_operation_xyz
  'x, y, z'

loop_
  _atom_site_type_symbol
  _atom_site_label
  _atom_site_symmetry_multiplicity
  _atom_site_fract_x
  _atom_site_fract_y
  _atom_site_fract_z
  _atom_site_occupancy
  H   H1        1.0  0.5718261003494263  0.8390676379203796  0.4865740835666656  1.0000
  H   H2        1.0  0.141273632645607  0.7085866928100586  0.5052111148834229  1.0000
  H   H3        1.0  0.3421793580055237  0.04258057102560997  0.9998702406883239  1.0000
  W   W1        1.0  0.534750759601593  0.025803422555327415  0.4618610441684723  1.0000
  W   W2        1.0  0.5033783316612244  0.1605381816625595  0.9190464019775391  1.0000
  W   W3        1.0  0.005957732908427715  0.41107046604156494  0.21115997433662417  1.0000
  W   W4        1.0  0.7581966519355774  0.19920064508914948  0.3428039252758026  1.0000
  W   W5        1.0  0.7602711319923401  0.5627689957618713  0.8775401711463928  1.0000
  W   W6        1.0  0.5141246318817139  0.416267067193985  0.34857138991355896  1.0000
  Yb  Yb1       1.0  0.0504627414047718  0.3593057692050934  0.637424111366272  1.0000
