data_image0
_chemical_formula_structural       Er2LuPtSe3
_chemical_formula_sum              "Er2 Lu1 Pt1 Se3"
_cell_length_a       4.515906130278502
_cell_length_b       6.109202344596118
_cell_length_c       6.608906269073486
_cell_angle_alpha    123.80739086756206
_cell_angle_beta     89.65814276209227
_cell_angle_gamma    92.3237931670433

_space_group_name_H-M_alt    "P 1"
_space_group_IT_number       1

loop_
  _space_group_symop_operation_xyz
  'x, y, z'

loop_
  _atom_site_type_symbol
  _atom_site_label
  _atom_site_symmetry_multiplicity
  _atom_site_fract_x
  _atom_site_fract_y
  _atom_site_fract_z
  _atom_site_occupancy
  Er  Er1       1.0  0.3723427355289459  0.6852498650550842  0.33228051662445074  1.0000
  Er  Er2       1.0  0.8782712817192078  0.6821292638778687  0.48729979991912853  1.0000
  Lu  Lu1       1.0  0.367218017578125  0.16352955996990204  0.7126411199569701  1.0000
  Pt  Pt1       1.0  0.820121169090271  0.3453267514705658  0.17012500762939456  1.0000
  Se  Se1       1.0  0.09796484559774399  0.32455843687057495  0.1971724629402161  1.0000
  Se  Se2       1.0  0.38974159955978394  0.6910994648933411  0.6539782285690307  1.0000
  Se  Se3       1.0  0.8573302626609802  0.1862695962190628  0.5332512855529785  1.0000
