data_image0
_chemical_formula_structural       F4Ga2InLiNa2OSZn3
_chemical_formula_sum              "F4 Ga2 In1 Li1 Na2 O1 S1 Zn3"
_cell_length_a       6.2369932333646085
_cell_length_b       7.351602142635102
_cell_length_c       8.267998695373535
_cell_angle_alpha    114.90110224399965
_cell_angle_beta     90.13223081563152
_cell_angle_gamma    98.52284836204718

_space_group_name_H-M_alt    "P 1"
_space_group_IT_number       1

loop_
  _space_group_symop_operation_xyz
  'x, y, z'

loop_
  _atom_site_type_symbol
  _atom_site_label
  _atom_site_symmetry_multiplicity
  _atom_site_fract_x
  _atom_site_fract_y
  _atom_site_fract_z
  _atom_site_occupancy
  F   F1        1.0  0.3030485510826111  0.878603458404541  0.05075439065694809  1.0000
  F   F2        1.0  0.28461408615112305  0.07948250323534012  0.595954954624176  1.0000
  F   F3        1.0  0.28218021988868713  0.0743023231625557  0.1511768251657486  1.0000
  F   F4        1.0  0.8355614542961121  0.37927356362342834  0.4105960428714752  1.0000
  Ga  Ga1       1.0  0.2839861810207367  0.20524205267429352  0.34045758843421936  1.0000
  Ga  Ga2       1.0  0.8028484582901001  0.9397135972976683  0.02492071874439722  1.0000
  In  In1       1.0  0.7832849621772766  0.7088514566421509  0.356570303440094  1.0000
  Li  Li1       1.0  0.782444179058075  0.7611459493637085  0.003976564854383469  1.0000
  Na  Na1       1.0  0.29661619663238525  0.873629093170166  0.6475487947463989  1.0000
  Na  Na2       1.0  0.2582011818885803  0.5405203104019165  0.7551469206809998  1.0000
  O   O1        1.0  0.30339986085891724  0.5815184116363525  0.25140854716300964  1.0000
  S   S1        1.0  0.7937986254692078  0.5378999710083008  0.08451504260301587  1.0000
  Zn  Zn1       1.0  0.7784795165061951  0.7674589157104492  0.42529091238975525  1.0000
  Zn  Zn2       1.0  0.3103058934211731  0.7008543014526367  0.48686131834983826  1.0000
  Zn  Zn3       1.0  0.783243715763092  0.2132866084575653  0.4362598955631256  1.0000
