data_image0
_chemical_formula_structural       F7LiO2S4Zn
_chemical_formula_sum              "F7 Li1 O2 S4 Zn1"
_cell_length_a       7.013053767868637
_cell_length_b       5.915607153684168
_cell_length_c       7.057758808135986
_cell_angle_alpha    76.44044012402011
_cell_angle_beta     56.88951828682037
_cell_angle_gamma    49.6743045990428

_space_group_name_H-M_alt    "P 1"
_space_group_IT_number       1

loop_
  _space_group_symop_operation_xyz
  'x, y, z'

loop_
  _atom_site_type_symbol
  _atom_site_label
  _atom_site_symmetry_multiplicity
  _atom_site_fract_x
  _atom_site_fract_y
  _atom_site_fract_z
  _atom_site_occupancy
  F   F1        1.0  0.014840209856629373  0.3524082899093628  0.7620314955711366  1.0000
  F   F2        1.0  0.9433524012565614  0.54852694272995  0.8051109313964845  1.0000
  F   F3        1.0  0.640774130821228  0.49895551800727844  0.5147573947906494  1.0000
  F   F4        1.0  0.9496677517890931  0.44507747888565063  0.3792648911476136  1.0000
  F   F5        1.0  0.5194109082221985  0.8737106323242188  0.5847439765930176  1.0000
  F   F6        1.0  0.4803068935871125  0.958721935749054  0.9008221030235292  1.0000
  F   F7        1.0  0.437698245048523  0.7516870498657227  0.0335877351462841  1.0000
  Li  Li1       1.0  0.6948145031929016  0.8986030220985413  0.5125976800918579  1.0000
  O   O1        1.0  0.006336446851491929  0.15576893091201782  0.10745739936828615  1.0000
  O   O2        1.0  0.10179967433214189  0.4236031174659729  0.8831158876419068  1.0000
  S   S1        1.0  0.7569461464881898  0.14885054528713226  0.7909253835678102  1.0000
  S   S2        1.0  0.7259456515312196  0.8171078562736511  0.34480944275856024  1.0000
  S   S3        1.0  0.48569476604461675  0.9077826738357544  0.3980757892131806  1.0000
  S   S4        1.0  0.9496641159057618  0.816588282585144  0.8651504516601564  1.0000
  Zn  Zn1       1.0  0.982107698917389  0.9352706074714661  0.973693072795868  1.0000
