data_image0
_chemical_formula_structural       F4GeLiNO2P2S2ZnZr
_chemical_formula_sum              "F4 Ge1 Li1 N1 O2 P2 S2 Zn1 Zr1"
_cell_length_a       6.289723165232981
_cell_length_b       6.513673833912561
_cell_length_c       8.463300704956055
_cell_angle_alpha    74.23608812712422
_cell_angle_beta     71.64431770372904
_cell_angle_gamma    77.22589773463497

_space_group_name_H-M_alt    "P 1"
_space_group_IT_number       1

loop_
  _space_group_symop_operation_xyz
  'x, y, z'

loop_
  _atom_site_type_symbol
  _atom_site_label
  _atom_site_symmetry_multiplicity
  _atom_site_fract_x
  _atom_site_fract_y
  _atom_site_fract_z
  _atom_site_occupancy
  F   F1        1.0  0.560041069984436  0.2486165314912796  0.8633742928504944  1.0000
  F   F2        1.0  0.5944721698760986  0.10440560430288315  0.4137333929538727  1.0000
  F   F3        1.0  0.46829575300216675  0.34272944927215576  0.8762620687484741  1.0000
  F   F4        1.0  0.011753988452255726  0.196223184466362  0.8879516124725342  1.0000
  Ge  Ge1       1.0  0.0942208394408226  0.7582277059555054  0.8362306952476501  1.0000
  Li  Li1       1.0  0.12937821447849274  0.22403480112552643  0.8356313109397888  1.0000
  N   N1        1.0  0.07919999212026596  0.44077345728874207  0.9581249356269836  1.0000
  O   O1        1.0  0.36703160405158997  0.32536765933036804  0.3959192633628845  1.0000
  O   O2        1.0  0.18687593936920166  0.6048570871353149  0.6011207103729248  1.0000
  P   P1        1.0  0.4480096101760864  0.6592777967453003  0.36176493763923645  1.0000
  P   P2        1.0  0.7189299464225769  0.06795055419206619  0.13731655478477478  1.0000
  S   S1        1.0  0.5642247200012207  0.8138037323951721  0.19626136124134064  1.0000
  S   S2        1.0  0.8655430674552917  0.5275754928588867  0.005814605858176947  1.0000
  Zn  Zn1       1.0  0.09729278832674026  0.1602046638727188  0.7960800528526306  1.0000
  Zr  Zr1       1.0  0.6770704388618469  0.7853837609291077  0.6285407543182373  1.0000
