data_image0
_chemical_formula_structural       FNNa8O3S2
_chemical_formula_sum              "F1 N1 Na8 O3 S2"
_cell_length_a       6.300480968134476
_cell_length_b       6.577242966257024
_cell_length_c       6.452419281005859
_cell_angle_alpha    112.65212714271507
_cell_angle_beta     112.72330369983648
_cell_angle_gamma    106.97959736245488

_space_group_name_H-M_alt    "P 1"
_space_group_IT_number       1

loop_
  _space_group_symop_operation_xyz
  'x, y, z'

loop_
  _atom_site_type_symbol
  _atom_site_label
  _atom_site_symmetry_multiplicity
  _atom_site_fract_x
  _atom_site_fract_y
  _atom_site_fract_z
  _atom_site_occupancy
  F   F1        1.0  0.9581824541091919  0.9997751712799072  0.822474718093872  1.0000
  N   N1        1.0  0.45326992869377136  0.041579023003578186  0.42826288938522333  1.0000
  Na  Na1       1.0  0.9610811471939087  0.8566774725914001  0.7143108248710632  1.0000
  Na  Na2       1.0  0.9383861422538757  0.8345130085945129  0.5666441321372986  1.0000
  Na  Na3       1.0  0.9524059295654297  0.563132107257843  0.21765168011188504  1.0000
  Na  Na4       1.0  0.43951621651649475  0.4597143530845642  0.2568018436431885  1.0000
  Na  Na5       1.0  0.4558020234107971  0.8011054396629333  0.6832736134529114  1.0000
  Na  Na6       1.0  0.9523469805717468  0.6487685441970825  0.8676416873931884  1.0000
  Na  Na7       1.0  0.9630052447319031  0.8865810632705688  0.011194698512554169  1.0000
  Na  Na8       1.0  0.4255043566226959  0.6202349662780762  0.08488509058952325  1.0000
  O   O1        1.0  0.7037646770477295  0.9578419923782349  0.6719101071357727  1.0000
  O   O2        1.0  0.9487109780311584  0.9864502549171448  0.36922982335090637  1.0000
  O   O3        1.0  0.6192781329154968  0.1501132994890213  0.29530665278434753  1.0000
  S   S1        1.0  0.9569898247718811  0.3413856625556946  0.2607099413871765  1.0000
  S   S2        1.0  0.45394760370254517  0.28911706805229187  0.06112220510840415  1.0000
