data_image0
_chemical_formula_structural       FNa6O5S3
_chemical_formula_sum              "F1 Na6 O5 S3"
_cell_length_a       6.050581786016359
_cell_length_b       6.3670275428545455
_cell_length_c       6.683265686035156
_cell_angle_alpha    70.64986093665095
_cell_angle_beta     63.569314162280484
_cell_angle_gamma    63.521506212640695

_space_group_name_H-M_alt    "P 1"
_space_group_IT_number       1

loop_
  _space_group_symop_operation_xyz
  'x, y, z'

loop_
  _atom_site_type_symbol
  _atom_site_label
  _atom_site_symmetry_multiplicity
  _atom_site_fract_x
  _atom_site_fract_y
  _atom_site_fract_z
  _atom_site_occupancy
  F   F1        1.0  0.8005383014678955  0.46380448341369623  0.9424698352813721  1.0000
  Na  Na1       1.0  0.31608930230140686  0.7541941404342651  0.4145115315914154  1.0000
  Na  Na2       1.0  0.8111380934715271  0.5093778371810913  0.5561572909355164  1.0000
  Na  Na3       1.0  0.2834451496601105  0.7307718992233276  0.6337985992431641  1.0000
  Na  Na4       1.0  0.8139002919197083  0.8534510135650635  0.015864616259932584  1.0000
  Na  Na5       1.0  0.8281489610671997  0.6611590385437012  0.879752516746521  1.0000
  Na  Na6       1.0  0.8131471276283264  0.10930181294679642  0.47852918505668646  1.0000
  O   O1        1.0  0.25318846106529236  0.37553638219833374  0.6091707348823547  1.0000
  O   O2        1.0  0.7873777151107788  0.8520684242248535  0.45375716686248785  1.0000
  O   O3        1.0  0.5493997931480408  0.7881234288215637  0.5479519367218018  1.0000
  O   O4        1.0  0.27800801396369934  0.8389664888381958  0.3906146287918091  1.0000
  O   O5        1.0  0.7427546977996826  0.02131052128970623  0.3400362432003021  1.0000
  S   S1        1.0  0.6525711417198181  0.3857274055480957  0.1385437697172165  1.0000
  S   S2        1.0  0.27822291851043707  0.9650413393974303  0.9859574437141418  1.0000
  S   S3        1.0  0.5126672387123108  0.6951953768730164  0.6295333504676819  1.0000
