data_image0
_chemical_formula_structural       F4InN2NaOPPtVZn2Zr
_chemical_formula_sum              "F4 In1 N2 Na1 O1 P1 Pt1 V1 Zn2 Zr1"
_cell_length_a       5.190727328032624
_cell_length_b       5.061604486567615
_cell_length_c       9.97511100769043
_cell_angle_alpha    99.19484195841757
_cell_angle_beta     97.52380003404572
_cell_angle_gamma    117.55388843935887

_space_group_name_H-M_alt    "P 1"
_space_group_IT_number       1

loop_
  _space_group_symop_operation_xyz
  'x, y, z'

loop_
  _atom_site_type_symbol
  _atom_site_label
  _atom_site_symmetry_multiplicity
  _atom_site_fract_x
  _atom_site_fract_y
  _atom_site_fract_z
  _atom_site_occupancy
  F   F1        1.0  0.4209120273590088  0.8587623238563538  0.9535406231880188  1.0000
  F   F2        1.0  0.27401310205459595  0.6575644612312317  0.055535476654767976  1.0000
  F   F3        1.0  0.9632522463798524  0.22641511261463165  0.8678238391876221  1.0000
  F   F4        1.0  0.7917969226837158  0.9290525317192078  0.8924633860588074  1.0000
  In  In1       1.0  0.8644090890884399  0.6075711846351624  0.7998167276382446  1.0000
  N   N1        1.0  0.3621498644351959  0.27326539158821106  0.13816578686237335  1.0000
  N   N2        1.0  0.8670405745506287  0.5038976073265076  0.10949639976024628  1.0000
  Na  Na1       1.0  0.37895646691322327  0.1312018483877182  0.6379861235618591  1.0000
  O   O1        1.0  0.031125525012612346  0.5100366473197937  0.8823673129081726  1.0000
  P   P1        1.0  0.9790368676185609  0.11911380290985107  0.5912663340568542  1.0000
  Pt  Pt1       1.0  0.36688482761383057  0.6815940737724304  0.013429172337055194  1.0000
  V   V1        1.0  0.0364663191139698  0.9149817824363708  0.18948884308338163  1.0000
  Zn  Zn1       1.0  0.37124425172805786  0.0056012761779129505  0.18087007105350494  1.0000
  Zn  Zn2       1.0  0.4339812099933624  0.11803725361824036  0.32777342200279236  1.0000
  Zr  Zr1       1.0  0.42932596802711487  0.6376150250434875  0.8645331859588623  1.0000
