data_image0
_chemical_formula_structural       CCa4GeH3IO4Pb3
_chemical_formula_sum              "C1 Ca4 Ge1 H3 I1 O4 Pb3"
_cell_length_a       7.7740581619184015
_cell_length_b       7.11853763014533
_cell_length_c       9.234606742858887
_cell_angle_alpha    77.34320783105109
_cell_angle_beta     68.98496221948278
_cell_angle_gamma    60.490740110367085

_space_group_name_H-M_alt    "P 1"
_space_group_IT_number       1

loop_
  _space_group_symop_operation_xyz
  'x, y, z'

loop_
  _atom_site_type_symbol
  _atom_site_label
  _atom_site_symmetry_multiplicity
  _atom_site_fract_x
  _atom_site_fract_y
  _atom_site_fract_z
  _atom_site_occupancy
  C   C1        1.0  0.37488397955894476  0.30407628417015076  0.6836915016174316  1.0000
  Ca  Ca1       1.0  0.6198680996894836  0.6288325190544128  0.34070762991905207  1.0000
  Ca  Ca2       1.0  0.1310514509677887  0.30071261525154114  0.06142636761069298  1.0000
  Ca  Ca3       1.0  0.8512981534004213  0.5749063491821289  0.7560125589370728  1.0000
  Ca  Ca4       1.0  0.2797333896160126  0.13883846998214722  0.8711708784103394  1.0000
  Ge  Ge1       1.0  0.129976287484169  0.7927692532539368  0.4618316888809204  1.0000
  H   H1        1.0  0.8368678092956544  0.18491947650909424  0.22027823328971863  1.0000
  H   H2        1.0  0.7808979749679567  0.9865874648094177  0.912670373916626  1.0000
  H   H3        1.0  0.37932944297790533  0.12790872156620026  0.7136605978012085  1.0000
  I   I1        1.0  0.9969459176063539  0.8435850143432617  0.3893238604068756  1.0000
  O   O1        1.0  0.9047081470489503  0.2312316745519638  0.5130579471588135  1.0000
  O   O2        1.0  0.22645197808742526  0.9343797564506531  0.3228803277015686  1.0000
  O   O3        1.0  0.7929376363754274  0.10215461254119873  0.7711632251739502  1.0000
  O   O4        1.0  0.7987239360809327  0.5789257287979126  0.30986136198043823  1.0000
  Pb  Pb1       1.0  0.8274869322776796  0.4016835689544678  0.988845705986023  1.0000
  Pb  Pb2       1.0  0.6705959439277649  0.16025932133197784  0.445202499628067  1.0000
  Pb  Pb3       1.0  0.8083552718162538  0.5940836071968079  0.5913500189781189  1.0000
