data_image0
_chemical_formula_structural       Ca3H2I3LaMoO5PPb
_chemical_formula_sum              "Ca3 H2 I3 La1 Mo1 O5 P1 Pb1"
_cell_length_a       6.980713844690787
_cell_length_b       8.013143437589042
_cell_length_c       8.448518753051758
_cell_angle_alpha    103.8458877150577
_cell_angle_beta     90.06353511817146
_cell_angle_gamma    89.95652305521489

_space_group_name_H-M_alt    "P 1"
_space_group_IT_number       1

loop_
  _space_group_symop_operation_xyz
  'x, y, z'

loop_
  _atom_site_type_symbol
  _atom_site_label
  _atom_site_symmetry_multiplicity
  _atom_site_fract_x
  _atom_site_fract_y
  _atom_site_fract_z
  _atom_site_occupancy
  Ca  Ca1       1.0  0.41184699535369873  0.5882826447486876  0.6656997203826904  1.0000
  Ca  Ca2       1.0  0.9089941382408142  0.8033999204635619  0.40863534808158875  1.0000
  Ca  Ca3       1.0  0.6399028301239014  0.2702353000640869  0.667878270149231  1.0000
  H   H1        1.0  0.6136625409126282  0.20662997663021085  0.43471279740333557  1.0000
  H   H2        1.0  0.1607954055070877  0.36123070120811457  0.5232515335083008  1.0000
  I   I1        1.0  0.40956833958625793  0.955648124217987  0.4564666450023651  1.0000
  I   I2        1.0  0.9207098484039307  0.46696880459785456  0.38216063380241394  1.0000
  I   I3        1.0  0.41712188720703125  0.1445006430149078  0.7839796543121338  1.0000
  La  La1       1.0  0.007965504191815853  0.3025624752044677  0.2555018961429596  1.0000
  Mo  Mo1       1.0  0.9181365966796875  0.4303514659404754  0.7628346681594849  1.0000
  O   O1        1.0  0.4196762144565582  0.2593801021575928  0.9896333217620848  1.0000
  O   O2        1.0  0.7133117914199829  0.7283912897109984  0.3408157527446747  1.0000
  O   O3        1.0  0.9049924612045288  0.2932118475437164  0.4581108093261719  1.0000
  O   O4        1.0  0.22111167013645172  0.5310947299003601  0.5993611216545105  1.0000
  O   O5        1.0  0.4031952917575836  0.8946142196655272  0.9532492160797119  1.0000
  P   P1        1.0  0.9160096645355225  0.23721492290496823  0.9174940586090088  1.0000
  Pb  Pb1       1.0  0.39712342619895935  0.8584201931953429  0.14857549965381622  1.0000
