data_image0
_chemical_formula_structural       BiCaH6O5Pb2Zr2
_chemical_formula_sum              "Bi1 Ca1 H6 O5 Pb2 Zr2"
_cell_length_a       6.064752376563902
_cell_length_b       7.3907520612033055
_cell_length_c       9.970818519592285
_cell_angle_alpha    113.80373474575649
_cell_angle_beta     90.03646619101889
_cell_angle_gamma    88.7287828363979

_space_group_name_H-M_alt    "P 1"
_space_group_IT_number       1

loop_
  _space_group_symop_operation_xyz
  'x, y, z'

loop_
  _atom_site_type_symbol
  _atom_site_label
  _atom_site_symmetry_multiplicity
  _atom_site_fract_x
  _atom_site_fract_y
  _atom_site_fract_z
  _atom_site_occupancy
  Bi  Bi1       1.0  0.30328017473220825  0.7330524325370787  0.48513710498809814  1.0000
  Ca  Ca1       1.0  0.30400657653808594  0.6678950190544128  0.41159766912460327  1.0000
  H   H1        1.0  0.30194091796875  0.0066875508055090896  0.4247593581676483  1.0000
  H   H2        1.0  0.8051365613937379  0.4564805328845977  0.5029813647270203  1.0000
  H   H3        1.0  0.7956214547157289  0.9562886357307433  0.5972966551780701  1.0000
  H   H4        1.0  0.7932721972465516  0.5966348052024841  0.7556205987930298  1.0000
  H   H5        1.0  0.8129853010177613  0.674689769744873  0.34677845239639277  1.0000
  H   H6        1.0  0.3024708926677704  0.154448464512825  0.10431590676307678  1.0000
  O   O1        1.0  0.6408441662788391  0.016150614246726036  0.5978487133979797  1.0000
  O   O2        1.0  0.30283600091934204  0.6094264388084412  0.01052426919341085  1.0000
  O   O3        1.0  0.5918919444084167  0.27230000495910645  0.5221985578536987  1.0000
  O   O4        1.0  0.7982351183891297  0.0923921838402748  0.2778477370738983  1.0000
  O   O5        1.0  0.6400898694992065  0.29174941778182983  0.8008683919906616  1.0000
  Pb  Pb1       1.0  0.05464220419526101  0.0009088005172088741  0.07017906755208969  1.0000
  Pb  Pb2       1.0  0.7943075895309449  0.8851672410964965  0.6974821090698241  1.0000
  Zr  Zr1       1.0  0.3066464364528656  0.23682494461536405  0.49243387579917897  1.0000
  Zr  Zr2       1.0  0.7731282711029054  0.41271144151687617  0.37948888540267944  1.0000
