data_image0
_chemical_formula_structural       Ca6H3O6Pb2
_chemical_formula_sum              "Ca6 H3 O6 Pb2"
_cell_length_a       6.602590866595019
_cell_length_b       6.541955663849081
_cell_length_c       7.811431407928467
_cell_angle_alpha    61.45607124545539
_cell_angle_beta     59.10042734286075
_cell_angle_gamma    62.703390513643605

_space_group_name_H-M_alt    "P 1"
_space_group_IT_number       1

loop_
  _space_group_symop_operation_xyz
  'x, y, z'

loop_
  _atom_site_type_symbol
  _atom_site_label
  _atom_site_symmetry_multiplicity
  _atom_site_fract_x
  _atom_site_fract_y
  _atom_site_fract_z
  _atom_site_occupancy
  Ca  Ca1       1.0  0.9688403606414796  0.4386752247810364  0.4590444266796112  1.0000
  Ca  Ca2       1.0  0.46908575296401983  0.9501597285270691  0.12817935645580292  1.0000
  Ca  Ca3       1.0  0.9719726443290712  0.16005341708660126  0.11781493574380869  1.0000
  Ca  Ca4       1.0  0.4628026485443116  0.4039999544620514  0.944263219833374  1.0000
  Ca  Ca5       1.0  0.9695322513580323  0.9949438571929932  0.8524859547615051  1.0000
  Ca  Ca6       1.0  0.4696629345417023  0.7029034495353699  0.4119475781917572  1.0000
  H   H1        1.0  0.2159756124019623  0.9948334097862244  0.7992966175079346  1.0000
  H   H2        1.0  0.5660513639450073  0.44860488176345825  0.6743611097335815  1.0000
  H   H3        1.0  0.3519185483455658  0.3163849115371704  0.2605139911174774  1.0000
  O   O1        1.0  0.9635435938835145  0.7394351363182068  0.249355286359787  1.0000
  O   O2        1.0  0.31301432847976685  0.7367905378341675  0.46759504079818726  1.0000
  O   O3        1.0  0.6539114713668823  0.9403868317604065  0.4152333736419678  1.0000
  O   O4        1.0  0.9714078903198243  0.12134195119142532  0.9370818138122559  1.0000
  O   O5        1.0  0.9235161542892457  0.33023157715797424  0.42139583826065063  1.0000
  O   O6        1.0  0.550163209438324  0.2210099995136261  0.6073963046073914  1.0000
  Pb  Pb1       1.0  0.6929205656051636  0.882433295249939  0.2721906900405884  1.0000
  Pb  Pb2       1.0  0.7586911916732788  0.7547057867050171  0.9163341522216797  1.0000
