data_image0
_chemical_formula_structural       Ca4H4I2MgO5P
_chemical_formula_sum              "Ca4 H4 I2 Mg1 O5 P1"
_cell_length_a       5.545306276182298
_cell_length_b       5.742546429866632
_cell_length_c       12.319345474243164
_cell_angle_alpha    91.47408797646926
_cell_angle_beta     90.8082726950282
_cell_angle_gamma    116.24811845565259

_space_group_name_H-M_alt    "P 1"
_space_group_IT_number       1

loop_
  _space_group_symop_operation_xyz
  'x, y, z'

loop_
  _atom_site_type_symbol
  _atom_site_label
  _atom_site_symmetry_multiplicity
  _atom_site_fract_x
  _atom_site_fract_y
  _atom_site_fract_z
  _atom_site_occupancy
  Ca  Ca1       1.0  0.6248511672019958  0.6838924884796143  0.06732642650604248  1.0000
  Ca  Ca2       1.0  0.10081283003091812  0.41802331805229187  0.9020195007324218  1.0000
  Ca  Ca3       1.0  0.26131996512413025  0.37116149067878723  0.7935009598731994  1.0000
  Ca  Ca4       1.0  0.09503032267093658  0.33147430419921875  0.6445029973983765  1.0000
  H   H1        1.0  0.07934233546257019  0.9440091252326965  0.2971126437187195  1.0000
  H   H2        1.0  0.5922106504440308  0.3547933101654053  0.46571546792984003  1.0000
  H   H3        1.0  0.0992698147892952  0.3062545359134674  0.05222219973802566  1.0000
  H   H4        1.0  0.6144788265228271  0.9473940134048462  0.909380555152893  1.0000
  I   I1        1.0  0.5968334674835205  0.9745702743530273  0.9364634752273558  1.0000
  I   I2        1.0  0.1111905574798584  0.96797776222229  0.7009397745132446  1.0000
  Mg  Mg1       1.0  0.6056697368621826  0.4216541647911072  0.30835020542144775  1.0000
  O   O1        1.0  0.6027917861938477  0.8965891599655151  0.462717592716217  1.0000
  O   O2        1.0  0.5727371573448181  0.8408533334732056  0.7689267992973327  1.0000
  O   O3        1.0  0.3442840874195099  0.7337909936904907  0.692916750907898  1.0000
  O   O4        1.0  0.9039024114608765  0.6242529153823853  0.22531963884830472  1.0000
  O   O5        1.0  0.9449881911277771  0.12694458663463593  0.8381434679031371  1.0000
  P   P1        1.0  0.12369649857282639  0.6574130058288574  0.9401350021362304  1.0000
