data_image0
_chemical_formula_structural       Ca8H4O5
_chemical_formula_sum              "Ca8 H4 O5"
_cell_length_a       6.3199197869221635
_cell_length_b       6.613351985642778
_cell_length_c       8.039884567260742
_cell_angle_alpha    105.67539596763761
_cell_angle_beta     90.50431873455715
_cell_angle_gamma    105.8703373250363

_space_group_name_H-M_alt    "P 1"
_space_group_IT_number       1

loop_
  _space_group_symop_operation_xyz
  'x, y, z'

loop_
  _atom_site_type_symbol
  _atom_site_label
  _atom_site_symmetry_multiplicity
  _atom_site_fract_x
  _atom_site_fract_y
  _atom_site_fract_z
  _atom_site_occupancy
  Ca  Ca1       1.0  0.32278957962989807  0.2545126676559448  0.5925887227058411  1.0000
  Ca  Ca2       1.0  0.8125579357147217  0.40023112297058105  0.8443620204925537  1.0000
  Ca  Ca3       1.0  0.5638751983642578  0.6962851285934448  0.530657172203064  1.0000
  Ca  Ca4       1.0  0.3180188238620758  0.46157321333885193  0.41576796770095825  1.0000
  Ca  Ca5       1.0  0.3144098222255707  0.8320528864860535  0.8388128280639648  1.0000
  Ca  Ca6       1.0  0.814864456653595  0.6077757477760315  0.13444600999355316  1.0000
  Ca  Ca7       1.0  0.06585264205932617  0.4905109703540802  0.5116137266159058  1.0000
  Ca  Ca8       1.0  0.817406952381134  0.7606290578842163  0.8420173525810242  1.0000
  H   H1        1.0  0.8153512477874756  0.9947778582572937  0.8852398991584778  1.0000
  H   H2        1.0  0.35706964135169983  0.06906894594430923  0.12629973888397217  1.0000
  H   H3        1.0  0.33242908120155334  0.25599002838134766  0.10572832077741623  1.0000
  H   H4        1.0  0.8198344707489014  0.503182053565979  0.1609153002500534  1.0000
  O   O1        1.0  0.3024320900440216  0.5894846320152283  0.2316025346517563  1.0000
  O   O2        1.0  0.09135927259922028  0.8367617130279541  0.3150160610675812  1.0000
  O   O3        1.0  0.12817253172397614  0.9414651393890381  0.3658190667629242  1.0000
  O   O4        1.0  0.7996627688407898  0.5613052248954773  0.873741090297699  1.0000
  O   O5        1.0  0.8310423493385315  0.42038121819496155  0.7301928400993347  1.0000
