data_image0
_chemical_formula_structural       P2Ru2Sc2
_chemical_formula_sum              "P2 Ru2 Sc2"
_cell_length_a       3.8544266920862977
_cell_length_b       5.3805436502934665
_cell_length_c       6.314774990081787
_cell_angle_alpha    104.88196588544687
_cell_angle_beta     93.19400685842271
_cell_angle_gamma    90.2154790470821

_space_group_name_H-M_alt    "P 1"
_space_group_IT_number       1

loop_
  _space_group_symop_operation_xyz
  'x, y, z'

loop_
  _atom_site_type_symbol
  _atom_site_label
  _atom_site_symmetry_multiplicity
  _atom_site_fract_x
  _atom_site_fract_y
  _atom_site_fract_z
  _atom_site_occupancy
  P   P1        1.0  0.8124470710754395  0.43554672598838806  0.754899799823761  1.0000
  P   P2        1.0  0.31423428654670715  0.9377824664115906  0.6702179908752441  1.0000
  Ru  Ru1       1.0  0.5686510801315308  0.8573092222213745  0.9825859665870665  1.0000
  Ru  Ru2       1.0  0.9511813521385193  0.4147772490978241  0.4772841930389404  1.0000
  Sc  Sc1       1.0  0.3282082676887512  0.9305569529533386  0.1583465933799744  1.0000
  Sc  Sc2       1.0  0.8288719654083252  0.9192739129066467  0.14656588435173037  1.0000
