data_image0
_chemical_formula_structural       H5O5P5
_chemical_formula_sum              "H5 O5 P5"
_cell_length_a       5.700293546326355
_cell_length_b       6.164895483158668
_cell_length_c       6.988001346588135
_cell_angle_alpha    114.40413546090913
_cell_angle_beta     98.07588129725086
_cell_angle_gamma    104.85328491812265

_space_group_name_H-M_alt    "P 1"
_space_group_IT_number       1

loop_
  _space_group_symop_operation_xyz
  'x, y, z'

loop_
  _atom_site_type_symbol
  _atom_site_label
  _atom_site_symmetry_multiplicity
  _atom_site_fract_x
  _atom_site_fract_y
  _atom_site_fract_z
  _atom_site_occupancy
  H   H1        1.0  0.655554473400116  0.8889952898025514  0.688625156879425  1.0000
  H   H2        1.0  0.8602441549301147  0.2923332452774048  0.2685030400753021  1.0000
  H   H3        1.0  0.29252126812934875  0.24082189798355105  0.5116167068481445  1.0000
  H   H4        1.0  0.2438306212425232  0.6236370205879211  0.21232365071773532  1.0000
  H   H5        1.0  0.9043682217597961  0.7581881880760193  0.26251056790351873  1.0000
  O   O1        1.0  0.7437769174575806  0.35044580698013306  0.8326026201248169  1.0000
  O   O2        1.0  0.39708569645881653  0.42833355069160467  0.2102571278810501  1.0000
  O   O3        1.0  0.9531651139259338  0.9630139470100404  0.8748741149902344  1.0000
  O   O4        1.0  0.46521711349487305  0.9964886307716371  0.3489822447299957  1.0000
  O   O5        1.0  0.23692834377288818  0.31603434681892395  0.15865446627140045  1.0000
  P   P1        1.0  0.7048108577728271  0.018436025828123093  0.5985197424888611  1.0000
  P   P2        1.0  0.6547284722328186  0.03455965965986252  0.3618389368057251  1.0000
  P   P3        1.0  0.6432346701622009  0.4167915284633637  0.7676266431808472  1.0000
  P   P4        1.0  0.03147178143262867  0.8906283378601075  0.9904218316078186  1.0000
  P   P5        1.0  0.3013952672481537  0.48638433218002325  0.893901526927948  1.0000
