data_image0
_chemical_formula_structural       Ca2H5O4P4
_chemical_formula_sum              "Ca2 H5 O4 P4"
_cell_length_a       5.749482639262396
_cell_length_b       6.188827803185971
_cell_length_c       8.507478713989258
_cell_angle_alpha    106.42376794034085
_cell_angle_beta     97.04733037909746
_cell_angle_gamma    111.6810376881851

_space_group_name_H-M_alt    "P 1"
_space_group_IT_number       1

loop_
  _space_group_symop_operation_xyz
  'x, y, z'

loop_
  _atom_site_type_symbol
  _atom_site_label
  _atom_site_symmetry_multiplicity
  _atom_site_fract_x
  _atom_site_fract_y
  _atom_site_fract_z
  _atom_site_occupancy
  Ca  Ca1       1.0  0.16457955539226532  0.46375715732574463  0.9720015525817871  1.0000
  Ca  Ca2       1.0  0.6105834245681763  0.1799400895833969  0.24200323224067688  1.0000
  H   H1        1.0  0.5726767778396606  0.6190738081932068  0.1434999406337738  1.0000
  H   H2        1.0  0.4265780448913575  0.632298469543457  0.19092455506324768  1.0000
  H   H3        1.0  0.06036966666579247  0.9242145419120789  0.4536350965499878  1.0000
  H   H4        1.0  0.7108168005943298  0.5481148958206177  0.9080118536949158  1.0000
  H   H5        1.0  0.6701986789703369  0.5501528978347778  0.5386174321174622  1.0000
  O   O1        1.0  0.05146296694874764  0.018817709758877754  0.9045929312705994  1.0000
  O   O2        1.0  0.6327793598175049  0.8823448419570923  0.7907797694206238  1.0000
  O   O3        1.0  0.22613130509853366  0.0889553502202034  0.9170562028884888  1.0000
  O   O4        1.0  0.004539151210337877  0.17935995757579803  0.3814401924610138  1.0000
  P   P1        1.0  0.7356754541397095  0.8585658669471741  0.7490872740745544  1.0000
  P   P2        1.0  0.19195392727851868  0.7626533508300781  0.9862939715385437  1.0000
  P   P3        1.0  0.9698520898818971  0.23797528445720673  0.450086385011673  1.0000
  P   P4        1.0  0.19344887137413025  0.022141285240650177  0.5123445391654968  1.0000
