data_image0
_chemical_formula_structural       CaH5O6P3
_chemical_formula_sum              "Ca1 H5 O6 P3"
_cell_length_a       5.034819524829759
_cell_length_b       5.530238091616659
_cell_length_c       11.978523254394531
_cell_angle_alpha    96.89484082090043
_cell_angle_beta     90.73840214078125
_cell_angle_gamma    87.93575628928517

_space_group_name_H-M_alt    "P 1"
_space_group_IT_number       1

loop_
  _space_group_symop_operation_xyz
  'x, y, z'

loop_
  _atom_site_type_symbol
  _atom_site_label
  _atom_site_symmetry_multiplicity
  _atom_site_fract_x
  _atom_site_fract_y
  _atom_site_fract_z
  _atom_site_occupancy
  Ca  Ca1       1.0  0.5312269926071167  0.9287226796150208  0.9912366271018981  1.0000
  H   H1        1.0  0.8195153474807739  0.13657481968402863  0.5966231822967529  1.0000
  H   H2        1.0  0.253161758184433  0.48159122467041016  0.19284869730472565  1.0000
  H   H3        1.0  0.7749831676483154  0.29328709840774536  0.2488322407007217  1.0000
  H   H4        1.0  0.5477631688117981  0.3707435429096222  0.8748927116394043  1.0000
  H   H5        1.0  0.2859748303890228  0.25415048003196716  0.5960822701454163  1.0000
  O   O1        1.0  0.5718877911567688  0.9714483022689819  0.36193543672561646  1.0000
  O   O2        1.0  0.019966265186667442  0.697618842124939  0.5298107862472534  1.0000
  O   O3        1.0  0.22062870860099792  0.6907335519790649  0.8697818517684937  1.0000
  O   O4        1.0  0.10569342225790024  0.7151948809623718  0.05619610100984573  1.0000
  O   O5        1.0  0.828983724117279  0.19110620021820068  0.426947683095932  1.0000
  O   O6        1.0  0.6265172958374023  0.2783252000808716  0.9114854931831359  1.0000
  P   P1        1.0  0.8183307647705078  0.7030935883522034  0.8752583861351013  1.0000
  P   P2        1.0  0.2474704384803772  0.5032394528388977  0.14956486225128174  1.0000
  P   P3        1.0  0.9267838597297668  0.4561217427253723  0.6544792652130127  1.0000
