data_image0
_chemical_formula_structural       Ca3H6O3P3
_chemical_formula_sum              "Ca3 H6 O3 P3"
_cell_length_a       5.597626572468857
_cell_length_b       5.6333152554721275
_cell_length_c       10.311220169067383
_cell_angle_alpha    104.39165685702078
_cell_angle_beta     96.40800369071268
_cell_angle_gamma    86.18893554791013

_space_group_name_H-M_alt    "P 1"
_space_group_IT_number       1

loop_
  _space_group_symop_operation_xyz
  'x, y, z'

loop_
  _atom_site_type_symbol
  _atom_site_label
  _atom_site_symmetry_multiplicity
  _atom_site_fract_x
  _atom_site_fract_y
  _atom_site_fract_z
  _atom_site_occupancy
  Ca  Ca1       1.0  0.08402648568153381  0.916527807712555  0.8503481149673462  1.0000
  Ca  Ca2       1.0  0.23948118090629578  0.7263866662979126  0.4337705969810486  1.0000
  Ca  Ca3       1.0  0.678093433380127  0.11627189815044404  0.6842043399810791  1.0000
  H   H1        1.0  0.8447607159614563  0.44891023635864263  0.1791965514421463  1.0000
  H   H2        1.0  0.32056400179862976  0.6756458282470703  0.41385284066200256  1.0000
  H   H3        1.0  0.9964914917945862  0.6458073854446411  0.40478551387786865  1.0000
  H   H4        1.0  0.08714298903942108  0.5769252777099609  0.7281852960586548  1.0000
  H   H5        1.0  0.8031179308891296  0.6340965628623962  0.5296599268913269  1.0000
  H   H6        1.0  0.34415048360824585  0.10259640961885452  0.24612806737422946  1.0000
  O   O1        1.0  0.6149104237556458  0.4389274716377259  0.9020601511001588  1.0000
  O   O2        1.0  0.8253718614578247  0.42680326104164124  0.40106263756752014  1.0000
  O   O3        1.0  0.32479116320610046  0.10089680552482605  0.3338910639286041  1.0000
  P   P1        1.0  0.4517369270324707  0.8001556396484375  0.18560315668582916  1.0000
  P   P2        1.0  0.6607193946838379  0.5913227200508118  0.7545819878578186  1.0000
  P   P3        1.0  0.6310918927192688  0.6858851909637451  0.5741366147994995  1.0000
