data_image0
_chemical_formula_structural       H7O4P4
_chemical_formula_sum              "H7 O4 P4"
_cell_length_a       5.775602907970857
_cell_length_b       5.9658547639232955
_cell_length_c       7.99517822265625
_cell_angle_alpha    102.01158697846097
_cell_angle_beta     100.84086415579421
_cell_angle_gamma    112.58372424636084

_space_group_name_H-M_alt    "P 1"
_space_group_IT_number       1

loop_
  _space_group_symop_operation_xyz
  'x, y, z'

loop_
  _atom_site_type_symbol
  _atom_site_label
  _atom_site_symmetry_multiplicity
  _atom_site_fract_x
  _atom_site_fract_y
  _atom_site_fract_z
  _atom_site_occupancy
  H   H1        1.0  0.7260067462921143  0.05811068788170814  0.8796571493148805  1.0000
  H   H2        1.0  0.7584858536720276  0.008876290172338486  0.6899338364601135  1.0000
  H   H3        1.0  0.5051440000534058  0.5761896967887878  0.47246083617210394  1.0000
  H   H4        1.0  0.7624724507331848  0.7826343774795532  0.049615513533353806  1.0000
  H   H5        1.0  0.11987970769405365  0.03022835589945316  0.8724313378334047  1.0000
  H   H6        1.0  0.06769057363271713  0.009950928390026093  0.7833451628684998  1.0000
  H   H7        1.0  0.04874866455793381  0.020520923659205437  0.01120169460773468  1.0000
  O   O1        1.0  0.4643750488758087  0.5148513317108154  0.7961428165435791  1.0000
  O   O2        1.0  0.4092945456504822  0.8042407035827637  0.07640904188156128  1.0000
  O   O3        1.0  0.5103721022605896  0.28647366166114807  0.4229791462421418  1.0000
  O   O4        1.0  0.5323900580406189  0.52842116355896  0.2646736800670624  1.0000
  P   P1        1.0  0.46533268690109253  0.6177530288696289  0.03791827708482742  1.0000
  P   P2        1.0  0.012759591452777386  0.3151656687259674  0.45405745506286627  1.0000
  P   P3        1.0  0.3865310549736023  0.5585587620735168  0.27140697836875916  1.0000
  P   P4        1.0  0.24791385233402252  0.839828610420227  0.7342051863670349  1.0000
