data_image0
_chemical_formula_structural       H6O4P5
_chemical_formula_sum              "H6 O4 P5"
_cell_length_a       5.202931481354113
_cell_length_b       5.819992211165046
_cell_length_c       8.26817798614502
_cell_angle_alpha    106.9145033655469
_cell_angle_beta     95.1046578282949
_cell_angle_gamma    108.46241122325372

_space_group_name_H-M_alt    "P 1"
_space_group_IT_number       1

loop_
  _space_group_symop_operation_xyz
  'x, y, z'

loop_
  _atom_site_type_symbol
  _atom_site_label
  _atom_site_symmetry_multiplicity
  _atom_site_fract_x
  _atom_site_fract_y
  _atom_site_fract_z
  _atom_site_occupancy
  H   H1        1.0  0.4602058529853821  0.1454414278268814  0.02375965751707554  1.0000
  H   H2        1.0  0.5914502143859863  0.4012298285961151  0.16690117120742798  1.0000
  H   H3        1.0  0.7667645215988159  0.6469607353210449  0.8461824655532837  1.0000
  H   H4        1.0  0.2819575369358063  0.6271805167198181  0.5410369634628296  1.0000
  H   H5        1.0  0.049276962876319885  0.7828328609466553  0.6240155696868896  1.0000
  H   H6        1.0  0.07340489327907562  0.20109526813030243  0.6543158292770386  1.0000
  O   O1        1.0  0.8290292620658875  0.4469182789325714  0.33447927236557007  1.0000
  O   O2        1.0  0.44783249497413635  0.1619618982076645  0.21771079301834106  1.0000
  O   O3        1.0  0.22782734036445618  0.16698500514030457  0.5457383394241333  1.0000
  O   O4        1.0  0.8091102242469788  0.6904071569442749  0.722895085811615  1.0000
  P   P1        1.0  0.041301727294921875  0.6125511527061462  0.8987593650817871  1.0000
  P   P2        1.0  0.054011180996894836  0.14560726284980774  0.609910786151886  1.0000
  P   P3        1.0  0.3121533989906311  0.1448766142129898  0.4431714415550232  1.0000
  P   P4        1.0  0.5334841012954712  0.6617301106452942  0.9285813570022583  1.0000
  P   P5        1.0  0.36497387290000916  0.8218696713447571  0.9892762303352356  1.0000
