data_image0
_chemical_formula_structural       Be5Na3Tc
_chemical_formula_sum              "Be5 Na3 Tc1"
_cell_length_a       4.996746466339072
_cell_length_b       5.006526265158869
_cell_length_c       6.648209571838379
_cell_angle_alpha    89.91218932609102
_cell_angle_beta     89.90355612095017
_cell_angle_gamma    119.76441587323178

_space_group_name_H-M_alt    "P 1"
_space_group_IT_number       1

loop_
  _space_group_symop_operation_xyz
  'x, y, z'

loop_
  _atom_site_type_symbol
  _atom_site_label
  _atom_site_symmetry_multiplicity
  _atom_site_fract_x
  _atom_site_fract_y
  _atom_site_fract_z
  _atom_site_occupancy
  Be  Be1       1.0  0.9971867799758911  0.4475640654563904  0.4663105309009552  1.0000
  Be  Be2       1.0  0.8257333040237427  0.09856851398944855  0.683512032032013  1.0000
  Be  Be3       1.0  0.9904806017875671  0.9230981469154358  0.4622403085231781  1.0000
  Be  Be4       1.0  0.14762209355831146  0.7742316722869873  0.718281626701355  1.0000
  Be  Be5       1.0  0.14848355948925018  0.7693567276000977  0.22350788116455078  1.0000
  Na  Na1       1.0  0.47949814796447754  0.42291203141212463  0.22742122411727905  1.0000
  Na  Na2       1.0  0.8198348879814148  0.09026694297790527  0.06948992609977722  1.0000
  Na  Na3       1.0  0.4806731939315796  0.4288002550601959  0.7477437257766724  1.0000
  Tc  Tc1       1.0  0.479046106338501  0.9217180609703064  0.46419945359230047  1.0000
