data_image0
_chemical_formula_structural       Be2CGeNaNpScTaTc
_chemical_formula_sum              "Be2 C1 Ge1 Na1 Np1 Sc1 Ta1 Tc1"
_cell_length_a       5.09162576447756
_cell_length_b       5.060089662867161
_cell_length_c       6.617734432220459
_cell_angle_alpha    89.98578887507307
_cell_angle_beta     89.99023041369237
_cell_angle_gamma    120.18279928804493

_space_group_name_H-M_alt    "P 1"
_space_group_IT_number       1

loop_
  _space_group_symop_operation_xyz
  'x, y, z'

loop_
  _atom_site_type_symbol
  _atom_site_label
  _atom_site_symmetry_multiplicity
  _atom_site_fract_x
  _atom_site_fract_y
  _atom_site_fract_z
  _atom_site_occupancy
  Be  Be1       1.0  0.809107780456543  0.7974673509597778  0.3131243884563446  1.0000
  Be  Be2       1.0  0.2925923466682434  0.29106011986732483  0.3114730715751648  1.0000
  C   C1        1.0  0.13879089057445526  0.4501287639141083  0.8358012437820436  1.0000
  Ge  Ge1       1.0  0.2958129942417145  0.7977612018585205  0.31188049912452703  1.0000
  Na  Na1       1.0  0.13791824877262115  0.9486002326011658  0.837977409362793  1.0000
  Np  Np1       1.0  0.7994974255561829  0.28494903445243835  0.5546143054962158  1.0000
  Sc  Sc1       1.0  0.7999352812767029  0.2832990288734436  0.11211702227592467  1.0000
  Ta  Ta1       1.0  0.4808214008808136  0.6150397062301636  0.618127167224884  1.0000
  Tc  Tc1       1.0  0.4770810008049011  0.6121493577957153  0.021383948624134064  1.0000
