data_image0
_chemical_formula_structural       AlBe3Na2Tc3
_chemical_formula_sum              "Al1 Be3 Na2 Tc3"
_cell_length_a       4.960313799291721
_cell_length_b       4.977900453972107
_cell_length_c       6.756018161773682
_cell_angle_alpha    89.9718746331139
_cell_angle_beta     90.00174277498354
_cell_angle_gamma    120.28483370911408

_space_group_name_H-M_alt    "P 1"
_space_group_IT_number       1

loop_
  _space_group_symop_operation_xyz
  'x, y, z'

loop_
  _atom_site_type_symbol
  _atom_site_label
  _atom_site_symmetry_multiplicity
  _atom_site_fract_x
  _atom_site_fract_y
  _atom_site_fract_z
  _atom_site_occupancy
  Al  Al1       1.0  0.5171999931335449  0.919876754283905  0.2009774148464203  1.0000
  Be  Be1       1.0  0.6920740008354187  0.26761749386787415  0.8775038123130797  1.0000
  Be  Be2       1.0  0.1808880865573883  0.7495585680007935  0.8777002692222594  1.0000
  Be  Be3       1.0  0.8530078530311584  0.5817227959632874  0.5939896106719971  1.0000
  Na  Na1       1.0  0.1857081949710846  0.2537344992160797  0.09967642277479172  1.0000
  Na  Na2       1.0  0.18596436083316803  0.25364547967910767  0.5720347762107849  1.0000
  Tc  Tc1       1.0  0.5168311595916748  0.9174570441246033  0.5858936905860901  1.0000
  Tc  Tc2       1.0  0.8525190949440002  0.5816826224327087  0.20451134443283078  1.0000
  Tc  Tc3       1.0  0.6892063021659851  0.753596842288971  0.8849885463714601  1.0000
