data_image0
_chemical_formula_structural       CoDy4I3MgTb2
_chemical_formula_sum              "Co1 Dy4 I3 Mg1 Tb2"
_cell_length_a       7.058427471564777
_cell_length_b       8.617369241030492
_cell_length_c       9.590267181396484
_cell_angle_alpha    106.97216555546767
_cell_angle_beta     89.9075042285383
_cell_angle_gamma    90.733494472056

_space_group_name_H-M_alt    "P 1"
_space_group_IT_number       1

loop_
  _space_group_symop_operation_xyz
  'x, y, z'

loop_
  _atom_site_type_symbol
  _atom_site_label
  _atom_site_symmetry_multiplicity
  _atom_site_fract_x
  _atom_site_fract_y
  _atom_site_fract_z
  _atom_site_occupancy
  Co  Co1       1.0  0.2969168722629547  0.8025448322296143  0.5935869812965393  1.0000
  Dy  Dy1       1.0  0.29964256286621094  0.1130833849310875  0.7401211857795715  1.0000
  Dy  Dy2       1.0  0.8003052473068237  0.9770562052726746  0.22912736237049103  1.0000
  Dy  Dy3       1.0  0.7975001335144043  0.9053580164909363  0.3401605188846588  1.0000
  Dy  Dy4       1.0  0.29793137311935425  0.4184207320213318  0.4695262312889099  1.0000
  I   I1        1.0  0.2969226837158203  0.106142058968544  0.8663405776023865  1.0000
  I   I2        1.0  0.7972704172134399  0.7984640002250671  0.19697800278663635  1.0000
  I   I3        1.0  0.29925253987312317  0.31524866819381714  0.6118582487106323  1.0000
  Mg  Mg1       1.0  0.2997266352176666  0.911292314529419  0.364791601896286  1.0000
  Tb  Tb1       1.0  0.7976611256599426  0.5542956590652466  0.35312744975090027  1.0000
  Tb  Tb2       1.0  0.8003079891204834  0.09221785515546799  0.8727196455001831  1.0000
