data_image0
_chemical_formula_structural       CoI5MgPSbTbTi
_chemical_formula_sum              "Co1 I5 Mg1 P1 Sb1 Tb1 Ti1"
_cell_length_a       4.7044363201405
_cell_length_b       4.414319582726184
_cell_length_c       11.672028541564941
_cell_angle_alpha    98.8286465898532
_cell_angle_beta     95.517139460451
_cell_angle_gamma    94.46267364644586

_space_group_name_H-M_alt    "P 1"
_space_group_IT_number       1

loop_
  _space_group_symop_operation_xyz
  'x, y, z'

loop_
  _atom_site_type_symbol
  _atom_site_label
  _atom_site_symmetry_multiplicity
  _atom_site_fract_x
  _atom_site_fract_y
  _atom_site_fract_z
  _atom_site_occupancy
  Co  Co1       1.0  0.6551067233085632  0.754987895488739  0.8264067769050598  1.0000
  I   I1        1.0  0.16699513792991638  0.5714828372001648  0.30462032556533813  1.0000
  I   I2        1.0  0.16092482209205627  0.962959885597229  0.7781688570976257  1.0000
  I   I3        1.0  0.17040595412254333  0.07714507728815079  0.5637357831001282  1.0000
  I   I4        1.0  0.6434885859489441  0.9047188758850098  0.2831484079360962  1.0000
  I   I5        1.0  0.9874930977821351  0.6379768252372742  0.22936609387397766  1.0000
  Mg  Mg1       1.0  0.6652580499649048  0.6876682639122009  0.08124388754367828  1.0000
  P   P1        1.0  0.6412443518638611  0.6546918153762817  0.7208440899848938  1.0000
  Sb  Sb1       1.0  0.14824488759040833  0.7977566123008728  0.2262689173221588  1.0000
  Tb  Tb1       1.0  0.6548816561698914  0.9416959881782532  0.2977401316165924  1.0000
  Ti  Ti1       1.0  0.17035634815692902  0.08798990398645401  0.6830086708068848  1.0000
