data_image0
_chemical_formula_structural       Tl11
_chemical_formula_sum              "Tl11"
_cell_length_a       3.4658623845239105
_cell_length_b       7.700506936953002
_cell_length_c       7.390328407287598
_cell_angle_alpha    129.46570239987378
_cell_angle_beta     91.20080612809163
_cell_angle_gamma    79.28985711978072

_space_group_name_H-M_alt    "P 1"
_space_group_IT_number       1

loop_
  _space_group_symop_operation_xyz
  'x, y, z'

loop_
  _atom_site_type_symbol
  _atom_site_label
  _atom_site_symmetry_multiplicity
  _atom_site_fract_x
  _atom_site_fract_y
  _atom_site_fract_z
  _atom_site_occupancy
  Tl  Tl1       1.0  0.1887543946504593  0.18369174003601074  0.3028013408184051  1.0000
  Tl  Tl2       1.0  0.6923218965530396  0.39254653453826904  0.7011696100234984  1.0000
  Tl  Tl3       1.0  0.6939837336540222  0.1320296674966812  0.35896086692810053  1.0000
  Tl  Tl4       1.0  0.6877493858337402  0.9358726143836975  0.844231069087982  1.0000
  Tl  Tl5       1.0  0.18339136242866516  0.23101314902305603  0.660824954509735  1.0000
  Tl  Tl6       1.0  0.18897169828414917  0.22574032843112946  0.5496202111244202  1.0000
  Tl  Tl7       1.0  0.6646230220794678  0.8897030353546143  0.3688539862632751  1.0000
  Tl  Tl8       1.0  0.6816630363464355  0.9427800178527832  0.4823417663574218  1.0000
  Tl  Tl9       1.0  0.19198106229305267  0.6558139324188232  0.1520968526601791  1.0000
  Tl  Tl10      1.0  0.691852867603302  0.5852951407432556  0.12414349615573882  1.0000
  Tl  Tl11      1.0  0.18980751931667328  0.3317144215106964  0.06337587535381317  1.0000
