data_image0
_chemical_formula_structural       CdTl10
_chemical_formula_sum              "Cd1 Tl10"
_cell_length_a       6.155951831329533
_cell_length_b       7.598196808654147
_cell_length_c       7.720463752746582
_cell_angle_alpha    127.1569959863334
_cell_angle_beta     91.33889253616432
_cell_angle_gamma    90.160343724324

_space_group_name_H-M_alt    "P 1"
_space_group_IT_number       1

loop_
  _space_group_symop_operation_xyz
  'x, y, z'

loop_
  _atom_site_type_symbol
  _atom_site_label
  _atom_site_symmetry_multiplicity
  _atom_site_fract_x
  _atom_site_fract_y
  _atom_site_fract_z
  _atom_site_occupancy
  Cd  Cd1       1.0  0.08556033670902252  0.3874569535255432  0.2201164811849594  1.0000
  Tl  Tl1       1.0  0.8389755487442017  0.8876624703407288  0.6397639513015747  1.0000
  Tl  Tl2       1.0  0.5712425112724304  0.008401431143283844  0.875747561454773  1.0000
  Tl  Tl3       1.0  0.07312938570976257  0.347872793674469  0.8559675216674805  1.0000
  Tl  Tl4       1.0  0.06589441746473312  0.009992611594498158  0.4748762249946595  1.0000
  Tl  Tl5       1.0  0.0711459293961525  0.5290597081184387  0.07340586185455322  1.0000
  Tl  Tl6       1.0  0.5688676238059998  0.5563004612922668  0.7954449653625488  1.0000
  Tl  Tl7       1.0  0.3325919210910797  0.8607752919197083  0.9548460245132447  1.0000
  Tl  Tl8       1.0  0.5763331651687622  0.5121517181396484  0.19473709166049966  1.0000
  Tl  Tl9       1.0  0.5733169913291931  0.7743427157402039  0.1756107658147812  1.0000
  Tl  Tl10      1.0  0.05591580644249916  0.852043092250824  0.7856506705284119  1.0000
