data_image0
_chemical_formula_structural       Dy2Ge2I3SeTb2Tl
_chemical_formula_sum              "Dy2 Ge2 I3 Se1 Tb2 Tl1"
_cell_length_a       5.55045686646617
_cell_length_b       7.3164113208830495
_cell_length_c       7.729573726654053
_cell_angle_alpha    100.72463621891005
_cell_angle_beta     89.39462717640102
_cell_angle_gamma    90.28848726485668

_space_group_name_H-M_alt    "P 1"
_space_group_IT_number       1

loop_
  _space_group_symop_operation_xyz
  'x, y, z'

loop_
  _atom_site_type_symbol
  _atom_site_label
  _atom_site_symmetry_multiplicity
  _atom_site_fract_x
  _atom_site_fract_y
  _atom_site_fract_z
  _atom_site_occupancy
  Dy  Dy1       1.0  0.17934764921665192  0.01957007497549057  0.04658811539411544  1.0000
  Dy  Dy2       1.0  0.6817357540130615  0.5447772145271301  0.21951611340045926  1.0000
  Ge  Ge1       1.0  0.6744695901870728  0.45381349325180054  0.6004080176353455  1.0000
  Ge  Ge2       1.0  0.1774301379919052  0.4598594903945923  0.5835809707641602  1.0000
  I   I1        1.0  0.6659603118896484  0.20415399968624115  0.07936519384384154  1.0000
  I   I2        1.0  0.6810222268104553  0.7941205501556396  0.03435998409986496  1.0000
  I   I3        1.0  0.17389333248138428  0.29454395174980164  0.16881114244461057  1.0000
  Se  Se1       1.0  0.17666883766651154  0.9493563771247864  0.5201917886734009  1.0000
  Tb  Tb1       1.0  0.17346051335334778  0.1753348410129547  0.30310770869255066  1.0000
  Tb  Tb2       1.0  0.683021068572998  0.5453714728355408  0.9620320796966552  1.0000
  Tl  Tl1       1.0  0.6825542449951172  0.49805295467376703  0.26222845911979675  1.0000
