data_image0
_chemical_formula_structural       CoDyGaGe2I4SeTi
_chemical_formula_sum              "Co1 Dy1 Ga1 Ge2 I4 Se1 Ti1"
_cell_length_a       6.098151946018019
_cell_length_b       8.605289503520844
_cell_length_c       9.133593559265137
_cell_angle_alpha    120.31774313665653
_cell_angle_beta     89.47028775831241
_cell_angle_gamma    90.95577620053922

_space_group_name_H-M_alt    "P 1"
_space_group_IT_number       1

loop_
  _space_group_symop_operation_xyz
  'x, y, z'

loop_
  _atom_site_type_symbol
  _atom_site_label
  _atom_site_symmetry_multiplicity
  _atom_site_fract_x
  _atom_site_fract_y
  _atom_site_fract_z
  _atom_site_occupancy
  Co  Co1       1.0  0.324097216129303  0.8948978185653687  0.5730819106101991  1.0000
  Dy  Dy1       1.0  0.8294384479522705  0.19451352953910828  0.9800068736076355  1.0000
  Ga  Ga1       1.0  0.33789607882499695  0.4673393666744232  0.9938283562660217  1.0000
  Ge  Ge1       1.0  0.8328418135643005  0.3169005513191223  0.6022995114326477  1.0000
  Ge  Ge2       1.0  0.8248919248580933  0.37474721670150757  0.19769841432571414  1.0000
  I   I1        1.0  0.3207553029060364  0.20313102006912231  0.3645068407058716  1.0000
  I   I2        1.0  0.8221778273582458  0.5952116250991821  0.08183721452951437  1.0000
  I   I3        1.0  0.3193756639957428  0.5966790914535522  0.9327517151832581  1.0000
  I   I4        1.0  0.8289029002189636  0.10195128619670868  0.5594878196716309  1.0000
  Se  Se1       1.0  0.3204557001590729  0.49339020252227783  0.013892633840441801  1.0000
  Ti  Ti1       1.0  0.8196661472320557  0.9175218343734741  0.7166000604629518  1.0000
