data_image0
_chemical_formula_structural       F4NNpORuZn3Zr4
_chemical_formula_sum              "F4 N1 Np1 O1 Ru1 Zn3 Zr4"
_cell_length_a       5.762511469393839
_cell_length_b       5.459996650625431
_cell_length_c       7.303294658660889
_cell_angle_alpha    69.07707678696379
_cell_angle_beta     70.92411554772134
_cell_angle_gamma    67.68437309594046

_space_group_name_H-M_alt    "P 1"
_space_group_IT_number       1

loop_
  _space_group_symop_operation_xyz
  'x, y, z'

loop_
  _atom_site_type_symbol
  _atom_site_label
  _atom_site_symmetry_multiplicity
  _atom_site_fract_x
  _atom_site_fract_y
  _atom_site_fract_z
  _atom_site_occupancy
  F   F1        1.0  0.056772783398628235  0.6431786417961121  0.30388179421424866  1.0000
  F   F2        1.0  0.23541736602783203  0.5738766193389893  0.025000615045428276  1.0000
  F   F3        1.0  0.6850100755691528  0.5997911095619202  0.3652069568634033  1.0000
  F   F4        1.0  0.980631947517395  0.7033264636993408  0.6650342345237732  1.0000
  N   N1        1.0  0.6949073672294617  0.377437025308609  0.6976348757743835  1.0000
  Np  Np1       1.0  0.37735751271247864  0.029791926965117455  0.040083494037389755  1.0000
  O   O1        1.0  0.9474341869354248  0.9757977724075317  0.5099757313728333  1.0000
  Ru  Ru1       1.0  0.04715689644217491  0.9029877185821533  0.9238858819007875  1.0000
  Zn  Zn1       1.0  0.5039188861846924  0.814598798751831  0.8749521374702454  1.0000
  Zn  Zn2       1.0  0.4498494863510132  0.5898695588111877  0.03250423073768616  1.0000
  Zn  Zn3       1.0  0.023482192307710648  0.19184213876724243  0.2411442995071411  1.0000
  Zr  Zr1       1.0  0.009516154415905476  0.6738421320915222  0.2588977217674255  1.0000
  Zr  Zr2       1.0  0.5076131820678711  0.5855627655982971  0.4466855227947235  1.0000
  Zr  Zr3       1.0  0.011893774382770061  0.27838119864463806  0.4697035551071167  1.0000
  Zr  Zr4       1.0  0.016397301107645035  0.5753740668296814  0.43256476521492004  1.0000
