data_image0
_chemical_formula_structural       F6Ga3OZn5
_chemical_formula_sum              "F6 Ga3 O1 Zn5"
_cell_length_a       6.3150151708693745
_cell_length_b       6.289294092546529
_cell_length_c       7.1946611404418945
_cell_angle_alpha    109.37771159127843
_cell_angle_beta     107.69468885515843
_cell_angle_gamma    110.16192234925856

_space_group_name_H-M_alt    "P 1"
_space_group_IT_number       1

loop_
  _space_group_symop_operation_xyz
  'x, y, z'

loop_
  _atom_site_type_symbol
  _atom_site_label
  _atom_site_symmetry_multiplicity
  _atom_site_fract_x
  _atom_site_fract_y
  _atom_site_fract_z
  _atom_site_occupancy
  F   F1        1.0  0.35323077440261835  0.06180358678102494  0.6291962265968322  1.0000
  F   F2        1.0  0.8462229371070861  0.9112199544906616  0.8253527879714965  1.0000
  F   F3        1.0  0.8617750406265258  0.7733572721481323  0.9944365620613097  1.0000
  F   F4        1.0  0.8484477996826171  0.7146638631820679  0.2179821580648422  1.0000
  F   F5        1.0  0.6779689788818359  0.8038113713264465  0.9692165255546569  1.0000
  F   F6        1.0  0.32528913021087646  0.04367699846625328  0.46266484260559076  1.0000
  Ga  Ga1       1.0  0.2696647047996521  0.6384520530700684  0.1537963151931763  1.0000
  Ga  Ga2       1.0  0.8619421124458312  0.09927777200937271  0.18339961767196652  1.0000
  Ga  Ga3       1.0  0.8439946770668029  0.8203439116477966  0.1637224107980728  1.0000
  O   O1        1.0  0.36209738254547114  0.09316607564687729  0.3186663091182708  1.0000
  Zn  Zn1       1.0  0.3524076044559478  0.3861081004142761  0.1787491589784622  1.0000
  Zn  Zn2       1.0  0.8549495339393615  0.2859835624694824  0.011416566558182238  1.0000
  Zn  Zn3       1.0  0.35467532277107233  0.23075063526630402  0.2248633950948715  1.0000
  Zn  Zn4       1.0  0.3539340198040008  0.7959681153297424  0.6664718389511107  1.0000
  Zn  Zn5       1.0  0.8463807702064513  0.17958605289459229  0.2209009677171707  1.0000
