data_image0
_chemical_formula_structural       F4Ga2PPrZn4Zr3
_chemical_formula_sum              "F4 Ga2 P1 Pr1 Zn4 Zr3"
_cell_length_a       5.181225946771151
_cell_length_b       4.305356221899538
_cell_length_c       8.69906997680664
_cell_angle_alpha    123.45224192393863
_cell_angle_beta     90.08283864080991
_cell_angle_gamma    87.96940006508606

_space_group_name_H-M_alt    "P 1"
_space_group_IT_number       1

loop_
  _space_group_symop_operation_xyz
  'x, y, z'

loop_
  _atom_site_type_symbol
  _atom_site_label
  _atom_site_symmetry_multiplicity
  _atom_site_fract_x
  _atom_site_fract_y
  _atom_site_fract_z
  _atom_site_occupancy
  F   F1        1.0  0.6151031255722046  0.8528121113777161  0.9925847053527832  1.0000
  F   F2        1.0  0.7152987122535706  0.6942026019096375  0.39481407403945923  1.0000
  F   F3        1.0  0.12481847405433655  0.3981909453868866  0.9805230498313904  1.0000
  F   F4        1.0  0.26761534810066223  0.4103085696697235  0.5086143612861633  1.0000
  Ga  Ga1       1.0  0.580772876739502  0.21734583377838135  0.9193025231361389  1.0000
  Ga  Ga2       1.0  0.6145113110542297  0.7801960110664368  0.5979537963867188  1.0000
  P   P1        1.0  0.5735291242599487  0.8186773061752319  0.9651793837547302  1.0000
  Pr  Pr1       1.0  0.08511409908533096  0.1821962147951126  0.31672167778015137  1.0000
  Zn  Zn1       1.0  0.744899570941925  0.581436812877655  0.44934967160224915  1.0000
  Zn  Zn2       1.0  0.7350392937660217  0.8257376551628113  0.32970136404037476  1.0000
  Zn  Zn3       1.0  0.08458766341209412  0.9571953415870667  0.852615237236023  1.0000
  Zn  Zn4       1.0  0.6100677251815796  0.7715118527412415  0.18042123317718506  1.0000
  Zr  Zr1       1.0  0.22640088200569153  0.9054975509643555  0.06524410098791122  1.0000
  Zr  Zr2       1.0  0.5755109190940857  0.6700388193130493  0.31481537222862244  1.0000
  Zr  Zr3       1.0  0.2753828763961792  0.04845837131142616  0.4874713122844696  1.0000
