data_image0
_chemical_formula_structural       F5Ga4ORu5
_chemical_formula_sum              "F5 Ga4 O1 Ru5"
_cell_length_a       5.5649779386625795
_cell_length_b       5.903915231700237
_cell_length_c       7.376819610595703
_cell_angle_alpha    89.99949016946003
_cell_angle_beta     90.28523092038955
_cell_angle_gamma    88.82430662339647

_space_group_name_H-M_alt    "P 1"
_space_group_IT_number       1

loop_
  _space_group_symop_operation_xyz
  'x, y, z'

loop_
  _atom_site_type_symbol
  _atom_site_label
  _atom_site_symmetry_multiplicity
  _atom_site_fract_x
  _atom_site_fract_y
  _atom_site_fract_z
  _atom_site_occupancy
  F   F1        1.0  0.9810691475868225  0.6054667234420776  0.12814649939537048  1.0000
  F   F2        1.0  0.9993367195129395  0.9036242961883545  0.1281587779521942  1.0000
  F   F3        1.0  0.5066972374916077  0.33037829399108887  0.1333455890417099  1.0000
  F   F4        1.0  0.9752334356307983  0.682854413986206  0.5960425734519958  1.0000
  F   F5        1.0  0.4818447232246399  0.2260933816432953  0.5663913488388062  1.0000
  Ga  Ga1       1.0  0.9905248284339905  0.7428873181343079  0.396339476108551  1.0000
  Ga  Ga2       1.0  0.0013950204011052847  0.034693069756031036  0.6657836437225342  1.0000
  Ga  Ga3       1.0  0.49353039264678955  0.7832708358764648  0.8764087557792662  1.0000
  Ga  Ga4       1.0  0.9967114925384521  0.3880036175251007  0.42863559722900385  1.0000
  O   O1        1.0  0.4972822070121765  0.28967761993408203  0.6728964447975159  1.0000
  Ru  Ru1       1.0  0.3666365444660187  0.7114710807800293  0.6342631578445435  1.0000
  Ru  Ru2       1.0  0.01779933087527752  0.0863165408372879  0.4628929495811462  1.0000
  Ru  Ru3       1.0  0.506718099117279  0.050910599529743195  0.21582323312759397  1.0000
  Ru  Ru4       1.0  0.508272647857666  0.9931103587150574  0.42603018879890436  1.0000
  Ru  Ru5       1.0  0.0028923600912094116  0.8824906349182129  0.04710527881979942  1.0000
