data_image0
_chemical_formula_structural       AgF3Ga3NpOP2Ru4
_chemical_formula_sum              "Ag1 F3 Ga3 Np1 O1 P2 Ru4"
_cell_length_a       5.301798293486773
_cell_length_b       5.834554807205206
_cell_length_c       7.355572700500488
_cell_angle_alpha    93.37072537945554
_cell_angle_beta     92.37786157113712
_cell_angle_gamma    91.88558928275911

_space_group_name_H-M_alt    "P 1"
_space_group_IT_number       1

loop_
  _space_group_symop_operation_xyz
  'x, y, z'

loop_
  _atom_site_type_symbol
  _atom_site_label
  _atom_site_symmetry_multiplicity
  _atom_site_fract_x
  _atom_site_fract_y
  _atom_site_fract_z
  _atom_site_occupancy
  Ag  Ag1       1.0  0.5032976269721985  0.22539710998535156  0.342293381690979  1.0000
  F   F1        1.0  0.5025589466094971  0.5415922999382019  0.8009984493255615  1.0000
  F   F2        1.0  0.0023894309997558594  0.9838976263999939  0.7922535538673401  1.0000
  F   F3        1.0  0.006408844608813524  0.4392244517803192  0.9256073236465454  1.0000
  Ga  Ga1       1.0  0.5026198029518127  0.3843284547328949  0.46202152967453003  1.0000
  Ga  Ga2       1.0  0.5034851431846619  0.8231979608535767  0.3797265589237213  1.0000
  Ga  Ga3       1.0  0.0032984018325805664  0.37566453218460083  0.04421130195260048  1.0000
  Np  Np1       1.0  0.0025238990783691406  0.7663010954856873  0.04794305190443992  1.0000
  O   O1        1.0  0.5034681558609009  0.8239381909370422  0.9811655282974243  1.0000
  P   P1        1.0  0.5042929649353027  0.33247730135917664  0.2629680335521698  1.0000
  P   P2        1.0  0.504557728767395  0.9140297174453735  0.27075791358947754  1.0000
  Ru  Ru1       1.0  0.006742312107235193  0.42229852080345154  0.21672622859477997  1.0000
  Ru  Ru2       1.0  0.503787636756897  0.3323279917240143  0.5931333899497986  1.0000
  Ru  Ru3       1.0  0.5061342120170593  0.46745002269744873  0.1848042607307434  1.0000
  Ru  Ru4       1.0  0.005743259098380804  0.8421259522438049  0.8074281215667725  1.0000
