data_image0
_chemical_formula_structural       F5Ga3O2RuZn3Zr
_chemical_formula_sum              "F5 Ga3 O2 Ru1 Zn3 Zr1"
_cell_length_a       5.053427909584746
_cell_length_b       5.9415044044044185
_cell_length_c       6.7142653465271
_cell_angle_alpha    117.94799184808143
_cell_angle_beta     89.23224034084399
_cell_angle_gamma    86.89733843454584

_space_group_name_H-M_alt    "P 1"
_space_group_IT_number       1

loop_
  _space_group_symop_operation_xyz
  'x, y, z'

loop_
  _atom_site_type_symbol
  _atom_site_label
  _atom_site_symmetry_multiplicity
  _atom_site_fract_x
  _atom_site_fract_y
  _atom_site_fract_z
  _atom_site_occupancy
  F   F1        1.0  0.7520762085914612  0.5407558083534241  0.22147747874259946  1.0000
  F   F2        1.0  0.7480251789093018  0.24162092804908752  0.8349239826202393  1.0000
  F   F3        1.0  0.2332594245672226  0.8398527503013611  0.8118468523025513  1.0000
  F   F4        1.0  0.7494218945503235  0.4832760989665985  0.43841588497161865  1.0000
  F   F5        1.0  0.7431616187095642  0.92008376121521  0.8552032113075256  1.0000
  Ga  Ga1       1.0  0.2453482747077942  0.20127978920936584  0.010744875296950323  1.0000
  Ga  Ga2       1.0  0.5332705974578857  0.251417875289917  0.2413039356470108  1.0000
  Ga  Ga3       1.0  0.7431743144989014  0.3786172866821289  0.8588053584098816  1.0000
  O   O1        1.0  0.2463057041168213  0.9209914207458496  0.13792611658573142  1.0000
  O   O2        1.0  0.2390715330839157  0.7445067763328552  0.7077106833457947  1.0000
  Ru  Ru1       1.0  0.7360662221908569  0.9988105297088623  0.335328459739685  1.0000
  Zn  Zn1       1.0  0.23881790041923523  0.11638949066400528  0.48566171526908875  1.0000
  Zn  Zn2       1.0  0.2435283064842224  0.46696925163269043  0.403401643037796  1.0000
  Zn  Zn3       1.0  0.7447075843811035  0.5294991731643677  0.12997496128082273  1.0000
  Zr  Zr1       1.0  0.21882881224155426  0.16926679015159607  0.3255871534347534  1.0000
