data_image0
_chemical_formula_structural       Np5Zn4
_chemical_formula_sum              "Np5 Zn4"
_cell_length_a       5.4762750720887245
_cell_length_b       5.749327505846188
_cell_length_c       7.156421184539795
_cell_angle_alpha    89.94366485997467
_cell_angle_beta     89.67724080674918
_cell_angle_gamma    90.29285910508166

_space_group_name_H-M_alt    "P 1"
_space_group_IT_number       1

loop_
  _space_group_symop_operation_xyz
  'x, y, z'

loop_
  _atom_site_type_symbol
  _atom_site_label
  _atom_site_symmetry_multiplicity
  _atom_site_fract_x
  _atom_site_fract_y
  _atom_site_fract_z
  _atom_site_occupancy
  Np  Np1       1.0  0.2240191251039505  0.46090930700302124  0.39318606257438654  1.0000
  Np  Np2       1.0  0.7330469489097595  0.5178154110908508  0.07900385558605194  1.0000
  Np  Np3       1.0  0.23911629617214203  0.20050783455371857  0.04824134334921836  1.0000
  Np  Np4       1.0  0.2380508929491043  0.03299796208739281  0.22411538660526273  1.0000
  Np  Np5       1.0  0.9419296383857727  0.476925253868103  0.944544494152069  1.0000
  Zn  Zn1       1.0  0.7368963360786438  0.15896977484226227  0.4801340997219085  1.0000
  Zn  Zn2       1.0  0.7423921823501587  0.30661147832870483  0.9165502786636351  1.0000
  Zn  Zn3       1.0  0.2433532476425171  0.8104978203773499  0.7775386571884154  1.0000
  Zn  Zn4       1.0  0.7382210493087769  0.21421949565410614  0.517686665058136  1.0000
