data_image0
_chemical_formula_structural       Np4RuZn4
_chemical_formula_sum              "Np4 Ru1 Zn4"
_cell_length_a       5.47321535623758
_cell_length_b       6.135851179102766
_cell_length_c       7.1306586265563965
_cell_angle_alpha    90.30984756520148
_cell_angle_beta     89.51540876376136
_cell_angle_gamma    100.87851532634704

_space_group_name_H-M_alt    "P 1"
_space_group_IT_number       1

loop_
  _space_group_symop_operation_xyz
  'x, y, z'

loop_
  _atom_site_type_symbol
  _atom_site_label
  _atom_site_symmetry_multiplicity
  _atom_site_fract_x
  _atom_site_fract_y
  _atom_site_fract_z
  _atom_site_occupancy
  Np  Np1       1.0  0.31610196828842163  0.6456983089447021  0.5381545424461365  1.0000
  Np  Np2       1.0  0.8305522203445435  0.27872908115386963  0.1543014943599701  1.0000
  Np  Np3       1.0  0.567380428314209  0.22391620278358462  0.9260100722312927  1.0000
  Np  Np4       1.0  0.8302859663963318  0.7721165418624878  0.9101988673210144  1.0000
  Ru  Ru1       1.0  0.8312223553657532  0.855331063270569  0.11820763349533081  1.0000
  Zn  Zn1       1.0  0.8266251087188721  0.48496985435485845  0.2528894245624542  1.0000
  Zn  Zn2       1.0  0.3279605805873871  0.373517245054245  0.6881345510482788  1.0000
  Zn  Zn3       1.0  0.32589074969291687  0.7873640060424805  0.7262011766433716  1.0000
  Zn  Zn4       1.0  0.3211517930030823  0.6033509969711304  0.4957127273082733  1.0000
