data_image0
_chemical_formula_structural       AsNp4Zn4
_chemical_formula_sum              "As1 Np4 Zn4"
_cell_length_a       5.060494444821742
_cell_length_b       5.192018213401767
_cell_length_c       7.930637359619141
_cell_angle_alpha    88.91543026563804
_cell_angle_beta     89.28989916215203
_cell_angle_gamma    84.9659688256331

_space_group_name_H-M_alt    "P 1"
_space_group_IT_number       1

loop_
  _space_group_symop_operation_xyz
  'x, y, z'

loop_
  _atom_site_type_symbol
  _atom_site_label
  _atom_site_symmetry_multiplicity
  _atom_site_fract_x
  _atom_site_fract_y
  _atom_site_fract_z
  _atom_site_occupancy
  As  As1       1.0  0.9125919938087463  0.9094420075416565  0.0727485865354538  1.0000
  Np  Np1       1.0  0.41202133893966675  0.6228057742118835  0.3889588713645935  1.0000
  Np  Np2       1.0  0.9117918610572815  0.12949438393115997  0.09749314934015274  1.0000
  Np  Np3       1.0  0.41071465611457825  0.8101328611373901  0.12011676281690598  1.0000
  Np  Np4       1.0  0.9157314300537109  0.9375396966934204  0.8264773488044739  1.0000
  Zn  Zn1       1.0  0.9102161526679993  0.6202662587165833  0.025313030928373337  1.0000
  Zn  Zn2       1.0  0.40441128611564636  0.8051133155822754  0.5417304039001465  1.0000
  Zn  Zn3       1.0  0.409484326839447  0.004163424950093031  0.4277122914791107  1.0000
  Zn  Zn4       1.0  0.9030346870422363  0.22892217338085175  0.6705273389816284  1.0000
