data_image0
_chemical_formula_structural       Np3Ru3Zn3
_chemical_formula_sum              "Np3 Ru3 Zn3"
_cell_length_a       4.68384923357184
_cell_length_b       4.705171280649553
_cell_length_c       6.745326995849609
_cell_angle_alpha    91.35571473550891
_cell_angle_beta     89.77344802418294
_cell_angle_gamma    93.06023533904435

_space_group_name_H-M_alt    "P 1"
_space_group_IT_number       1

loop_
  _space_group_symop_operation_xyz
  'x, y, z'

loop_
  _atom_site_type_symbol
  _atom_site_label
  _atom_site_symmetry_multiplicity
  _atom_site_fract_x
  _atom_site_fract_y
  _atom_site_fract_z
  _atom_site_occupancy
  Np  Np1       1.0  0.9760378003120422  0.4311160147190094  0.4103139042854309  1.0000
  Np  Np2       1.0  0.9760306477546692  0.30789801478385925  0.9700435400009155  1.0000
  Np  Np3       1.0  0.12568144500255585  0.2664068639278412  0.2934355139732361  1.0000
  Ru  Ru1       1.0  0.5216943621635437  0.8795684576034547  0.6376775503158569  1.0000
  Ru  Ru2       1.0  0.96501624584198  0.25242623686790466  0.9561102986335754  1.0000
  Ru  Ru3       1.0  0.48978301882743835  0.8670130372047424  0.30200135707855225  1.0000
  Zn  Zn1       1.0  0.47707870602607727  0.5518843531608582  0.3547576367855072  1.0000
  Zn  Zn2       1.0  0.9760496020317078  0.45756021142005926  0.23736213147640228  1.0000
  Zn  Zn3       1.0  0.9786126613616943  0.08197371661663055  0.27108636498451233  1.0000
