data_image0
_chemical_formula_structural       O6P5PbV
_chemical_formula_sum              "O6 P5 Pb1 V1"
_cell_length_a       4.302464858027069
_cell_length_b       7.069898197314146
_cell_length_c       7.669645309448242
_cell_angle_alpha    99.84531675901091
_cell_angle_beta     93.1607316647359
_cell_angle_gamma    91.88775521648482

_space_group_name_H-M_alt    "P 1"
_space_group_IT_number       1

loop_
  _space_group_symop_operation_xyz
  'x, y, z'

loop_
  _atom_site_type_symbol
  _atom_site_label
  _atom_site_symmetry_multiplicity
  _atom_site_fract_x
  _atom_site_fract_y
  _atom_site_fract_z
  _atom_site_occupancy
  O   O1        1.0  0.2906331419944763  0.47542649507522583  0.7461823225021363  1.0000
  O   O2        1.0  0.25550609827041626  0.64559406042099  0.48214817047119146  1.0000
  O   O3        1.0  0.07704547792673111  0.16223324835300446  0.14598399400711062  1.0000
  O   O4        1.0  0.6092610359191895  0.8943890929222107  0.07701078057289125  1.0000
  O   O5        1.0  0.5597735643386841  0.9309622645378113  0.2577323913574219  1.0000
  O   O6        1.0  0.07264837622642517  0.3205626904964447  0.22645369172096255  1.0000
  P   P1        1.0  0.09519834071397781  0.9101119637489319  0.45959085226058966  1.0000
  P   P2        1.0  0.09164366126060486  0.5715996623039246  0.2613408863544464  1.0000
  P   P3        1.0  0.1990744173526764  0.1848583221435547  0.8472658395767213  1.0000
  P   P4        1.0  0.5907303690910339  0.2793961763381958  0.3044543862342835  1.0000
  P   P5        1.0  0.591966986656189  0.6794281601905823  0.9739845395088197  1.0000
  Pb  Pb1       1.0  0.6151610016822815  0.9618154168128967  0.20280355215072635  1.0000
  V   V1        1.0  0.6252303123474121  0.9169906377792358  0.8049119114875795  1.0000
