data_image0
_chemical_formula_structural       O5P4Pb3V
_chemical_formula_sum              "O5 P4 Pb3 V1"
_cell_length_a       4.6006514930457705
_cell_length_b       7.2830339156224335
_cell_length_c       7.438570976257324
_cell_angle_alpha    95.35041367930032
_cell_angle_beta     97.91201354964679
_cell_angle_gamma    88.4073109069411

_space_group_name_H-M_alt    "P 1"
_space_group_IT_number       1

loop_
  _space_group_symop_operation_xyz
  'x, y, z'

loop_
  _atom_site_type_symbol
  _atom_site_label
  _atom_site_symmetry_multiplicity
  _atom_site_fract_x
  _atom_site_fract_y
  _atom_site_fract_z
  _atom_site_occupancy
  O   O1        1.0  0.6410949230194092  0.6913163065910339  0.9675998687744141  1.0000
  O   O2        1.0  0.649117648601532  0.16377151012420654  0.12538334727287292  1.0000
  O   O3        1.0  0.1928568184375763  0.30595862865448  0.2614639401435852  1.0000
  O   O4        1.0  0.3691031336784363  0.9102939367294312  0.4833441376686096  1.0000
  O   O5        1.0  0.7485601902008057  0.7201995253562927  0.3284189701080322  1.0000
  P   P1        1.0  0.37472736835479736  0.4250158369541168  0.8902156949043274  1.0000
  P   P2        1.0  0.16081055998802185  0.8763653635978699  0.5541046857833862  1.0000
  P   P3        1.0  0.8593820333480835  0.6047263741493225  0.9354418516159058  1.0000
  P   P4        1.0  0.6402730941772461  0.653198778629303  0.19626329839229584  1.0000
  Pb  Pb1       1.0  0.45997798442840576  0.09612543135881424  0.6993330121040344  1.0000
  Pb  Pb2       1.0  0.16368094086647034  0.3387566804885864  0.312389612197876  1.0000
  Pb  Pb3       1.0  0.664443850517273  0.3644496500492096  0.2324799746274948  1.0000
  V   V1        1.0  0.07676740735769272  0.7561198472976685  0.1086481511592865  1.0000
