data_image0
_chemical_formula_structural       Ag2O3Pb4V4
_chemical_formula_sum              "Ag2 O3 Pb4 V4"
_cell_length_a       5.605554848789321
_cell_length_b       7.1296182348524475
_cell_length_c       7.026595592498779
_cell_angle_alpha    118.40491467198184
_cell_angle_beta     89.48517286762285
_cell_angle_gamma    89.18126167678373

_space_group_name_H-M_alt    "P 1"
_space_group_IT_number       1

loop_
  _space_group_symop_operation_xyz
  'x, y, z'

loop_
  _atom_site_type_symbol
  _atom_site_label
  _atom_site_symmetry_multiplicity
  _atom_site_fract_x
  _atom_site_fract_y
  _atom_site_fract_z
  _atom_site_occupancy
  Ag  Ag1       1.0  0.17282254993915558  0.19536931812763214  0.9283321499824525  1.0000
  Ag  Ag2       1.0  0.909927248954773  0.06438590586185455  0.9236130118370056  1.0000
  O   O1        1.0  0.42334142327308655  0.5137960910797119  0.7731028199195862  1.0000
  O   O2        1.0  0.4309450089931488  0.4924059212207794  0.7335699796676636  1.0000
  O   O3        1.0  0.8996499180793762  0.7663301229476929  0.18015567958354956  1.0000
  Pb  Pb1       1.0  0.42295965552330017  0.06685414165258408  0.5054357051849365  1.0000
  Pb  Pb2       1.0  0.9090772867202759  0.27660006284713745  0.24834716320037842  1.0000
  Pb  Pb3       1.0  0.9082009196281433  0.29194527864456177  0.9444544911384583  1.0000
  Pb  Pb4       1.0  0.9036367535591125  0.7347395420074463  0.7096187472343445  1.0000
  V   V1        1.0  0.4102787673473358  0.830778181552887  0.5222885608673096  1.0000
  V   V2        1.0  0.42193108797073364  0.5037455558776855  0.7904117703437805  1.0000
  V   V3        1.0  0.4130171537399292  0.5528576374053955  0.502560019493103  1.0000
  V   V4        1.0  0.41116905212402344  0.25451740622520447  0.7937294244766235  1.0000
