data_image0
_chemical_formula_structural       AgO7P3PbS
_chemical_formula_sum              "Ag1 O7 P3 Pb1 S1"
_cell_length_a       4.522747600308391
_cell_length_b       6.851636287060304
_cell_length_c       7.34769868850708
_cell_angle_alpha    105.9530176328808
_cell_angle_beta     90.54378382952224
_cell_angle_gamma    92.67933023015739

_space_group_name_H-M_alt    "P 1"
_space_group_IT_number       1

loop_
  _space_group_symop_operation_xyz
  'x, y, z'

loop_
  _atom_site_type_symbol
  _atom_site_label
  _atom_site_symmetry_multiplicity
  _atom_site_fract_x
  _atom_site_fract_y
  _atom_site_fract_z
  _atom_site_occupancy
  Ag  Ag1       1.0  0.863089382648468  0.5219497680664062  0.4293073415756226  1.0000
  O   O1        1.0  0.9118412137031555  0.5075645446777344  0.0013731074286624865  1.0000
  O   O2        1.0  0.1262120008468628  0.11011283844709396  0.6168967485427856  1.0000
  O   O3        1.0  0.5380866527557373  0.013004202395677567  0.49781292676925665  1.0000
  O   O4        1.0  0.11603011190891266  0.33766528964042664  0.7775635719299318  1.0000
  O   O5        1.0  0.19986772537231445  0.5317134857177734  0.39471116662025457  1.0000
  O   O6        1.0  0.6200240850448608  0.7680351734161377  0.8652388453483583  1.0000
  O   O7        1.0  0.8166313171386719  0.018839338794350624  0.8517827391624452  1.0000
  P   P1        1.0  0.9624374508857727  0.014888321980834007  0.9942687153816224  1.0000
  P   P2        1.0  0.9497092962265015  0.5354129076004028  0.9914209842681886  1.0000
  P   P3        1.0  0.9302207231521606  0.2513359487056732  0.6775333881378175  1.0000
  Pb  Pb1       1.0  0.41919946670532227  0.34425026178359985  0.9133142232894899  1.0000
  S   S1        1.0  0.8681336641311646  0.7068374752998352  0.4259632229804993  1.0000
