data_image0
_chemical_formula_structural       AgO2PPb4SbV3Zr
_chemical_formula_sum              "Ag1 O2 P1 Pb4 Sb1 V3 Zr1"
_cell_length_a       4.849977643151161
_cell_length_b       7.116136156161189
_cell_length_c       6.537606716156006
_cell_angle_alpha    121.0498103468995
_cell_angle_beta     87.15988383153515
_cell_angle_gamma    90.40646830877157

_space_group_name_H-M_alt    "P 1"
_space_group_IT_number       1

loop_
  _space_group_symop_operation_xyz
  'x, y, z'

loop_
  _atom_site_type_symbol
  _atom_site_label
  _atom_site_symmetry_multiplicity
  _atom_site_fract_x
  _atom_site_fract_y
  _atom_site_fract_z
  _atom_site_occupancy
  Ag  Ag1       1.0  0.48728489875793457  0.3313681185245514  0.9228557944297789  1.0000
  O   O1        1.0  0.4692031443119049  0.6114048957824707  0.8978613018989562  1.0000
  O   O2        1.0  0.9804176092147828  0.9211246967315673  0.3243795931339264  1.0000
  P   P1        1.0  0.5116922855377197  0.18287523090839383  0.6894240975379944  1.0000
  Pb  Pb1       1.0  0.48918488621711737  0.7063000202178954  0.28481391072273254  1.0000
  Pb  Pb2       1.0  0.9990005493164064  0.14241240918636322  0.025922397151589376  1.0000
  Pb  Pb3       1.0  0.9928846359252931  0.8639351129531859  0.1194549649953842  1.0000
  Pb  Pb4       1.0  0.0028571572620421665  0.3861027359962463  0.9367230534553527  1.0000
  Sb  Sb1       1.0  0.48424968123435974  0.056704897433519356  0.016046795994043347  1.0000
  V   V1        1.0  0.7312723398208618  0.43592566251754755  0.43542209267616266  1.0000
  V   V2        1.0  0.4857359230518341  0.2369592487812042  0.7552533149719238  1.0000
  V   V3        1.0  0.9937335252761842  0.4964644312858581  0.6901717782020569  1.0000
  Zr  Zr1       1.0  0.9780859947204591  0.7117316126823424  0.17446881532669067  1.0000
