data_image0
_chemical_formula_structural       O7P4SbV
_chemical_formula_sum              "O7 P4 Sb1 V1"
_cell_length_a       4.859716674994395
_cell_length_b       6.757332411545502
_cell_length_c       7.176482677459717
_cell_angle_alpha    90.09104823787456
_cell_angle_beta     89.72132940516995
_cell_angle_gamma    90.810487929132

_space_group_name_H-M_alt    "P 1"
_space_group_IT_number       1

loop_
  _space_group_symop_operation_xyz
  'x, y, z'

loop_
  _atom_site_type_symbol
  _atom_site_label
  _atom_site_symmetry_multiplicity
  _atom_site_fract_x
  _atom_site_fract_y
  _atom_site_fract_z
  _atom_site_occupancy
  O   O1        1.0  0.7521553635597229  0.2500331401824951  0.5296548008918762  1.0000
  O   O2        1.0  0.36196351051330566  0.4638135731220245  0.5760254859924316  1.0000
  O   O3        1.0  0.19096866250038147  0.8591437935829161  0.9550997614860535  1.0000
  O   O4        1.0  0.8729494214057922  0.47547957301139826  0.30486977100372314  1.0000
  O   O5        1.0  0.8546876907348633  0.27999553084373474  0.23670828342437744  1.0000
  O   O6        1.0  0.9896831512451172  0.004760840907692909  0.7149040699005127  1.0000
  O   O7        1.0  0.40019336342811584  0.4827910661697387  0.2981562316417694  1.0000
  P   P1        1.0  0.8611778020858765  0.42354780435562134  0.02454903908073902  1.0000
  P   P2        1.0  0.5754056572914124  0.4675974249839782  0.34020110964775085  1.0000
  P   P3        1.0  0.871922194957733  0.9544675946235656  0.4392097592353821  1.0000
  P   P4        1.0  0.359110027551651  0.21224988996982574  0.4895158112049103  1.0000
  Sb  Sb1       1.0  0.3715890049934387  0.47099831700325007  0.07130831480026245  1.0000
  V   V1        1.0  0.859258770942688  0.7077258825302124  0.37440747022628784  1.0000
