data_image0
_chemical_formula_structural       Na2OsP4PdSi2
_chemical_formula_sum              "Na2 Os1 P4 Pd1 Si2"
_cell_length_a       4.987666518650869
_cell_length_b       6.450612321682596
_cell_length_c       8.245988845825195
_cell_angle_alpha    113.08294817802243
_cell_angle_beta     98.35056762002417
_cell_angle_gamma    89.56328527880872

_space_group_name_H-M_alt    "P 1"
_space_group_IT_number       1

loop_
  _space_group_symop_operation_xyz
  'x, y, z'

loop_
  _atom_site_type_symbol
  _atom_site_label
  _atom_site_symmetry_multiplicity
  _atom_site_fract_x
  _atom_site_fract_y
  _atom_site_fract_z
  _atom_site_occupancy
  Na  Na1       1.0  0.32576149702072144  0.07074257731437683  0.6659960150718689  1.0000
  Na  Na2       1.0  0.9404370784759521  0.321153849363327  0.230504110455513  1.0000
  Os  Os1       1.0  0.0805291011929512  0.5675817131996155  0.5235707759857178  1.0000
  P   P1        1.0  0.20779168605804443  0.049829766154289246  0.20207326114177704  1.0000
  P   P2        1.0  0.9259090423583984  0.028614047914743423  0.8645713925361633  1.0000
  P   P3        1.0  0.6158022284507751  0.8172249794006348  0.211297869682312  1.0000
  P   P4        1.0  0.20193535089492798  0.8535544276237488  0.3015711009502411  1.0000
  Pd  Pd1       1.0  0.6607044339179993  0.8154557347297668  0.7452237606048584  1.0000
  Si  Si1       1.0  0.6658709049224854  0.5801781415939331  0.1599355190992355  1.0000
  Si  Si2       1.0  0.07973957061767578  0.5555536150932312  0.5106820464134216  1.0000
