data_image0
_chemical_formula_structural       Na3NiOsP4Ti
_chemical_formula_sum              "Na3 Ni1 Os1 P4 Ti1"
_cell_length_a       5.184302888861665
_cell_length_b       6.571632638981602
_cell_length_c       6.818636894226074
_cell_angle_alpha    118.2212214982219
_cell_angle_beta     101.60222086076799
_cell_angle_gamma    87.36346217501948

_space_group_name_H-M_alt    "P 1"
_space_group_IT_number       1

loop_
  _space_group_symop_operation_xyz
  'x, y, z'

loop_
  _atom_site_type_symbol
  _atom_site_label
  _atom_site_symmetry_multiplicity
  _atom_site_fract_x
  _atom_site_fract_y
  _atom_site_fract_z
  _atom_site_occupancy
  Na  Na1       1.0  0.24302516877651215  0.18491226434707642  0.7731784582138062  1.0000
  Na  Na2       1.0  0.7486979365348816  0.41695162653923035  0.5123451352119446  1.0000
  Na  Na3       1.0  0.745673418045044  0.9253206253051758  0.44445130228996277  1.0000
  Ni  Ni1       1.0  0.47770991921424866  0.45666277408599854  0.9430810213088989  1.0000
  Os  Os1       1.0  0.005176623351871967  0.8836627006530762  0.8648735284805298  1.0000
  P   P1        1.0  0.03330773115158081  0.9646201133728027  0.8770906925201416  1.0000
  P   P2        1.0  0.5294841527938843  0.28399765491485596  0.5906825661659241  1.0000
  P   P3        1.0  0.5179198980331421  0.8014124631881714  0.5297867059707642  1.0000
  P   P4        1.0  0.02410823106765747  0.7512563467025757  0.23917312920093536  1.0000
  Ti  Ti1       1.0  0.707048773765564  0.4274751543998718  0.805583655834198  1.0000
