data_image0
_chemical_formula_structural       Cd3FeILaNa3P
_chemical_formula_sum              "Cd3 Fe1 I1 La1 Na3 P1"
_cell_length_a       5.790525613016152
_cell_length_b       8.85737340730714
_cell_length_c       9.173349380493164
_cell_angle_alpha    120.05620108094337
_cell_angle_beta     88.07820894313062
_cell_angle_gamma    89.31296251027433

_space_group_name_H-M_alt    "P 1"
_space_group_IT_number       1

loop_
  _space_group_symop_operation_xyz
  'x, y, z'

loop_
  _atom_site_type_symbol
  _atom_site_label
  _atom_site_symmetry_multiplicity
  _atom_site_fract_x
  _atom_site_fract_y
  _atom_site_fract_z
  _atom_site_occupancy
  Cd  Cd1       1.0  0.18146419525146484  0.6664530038833618  0.15782691538333893  1.0000
  Cd  Cd2       1.0  0.17173737287521362  0.0052390811033546925  0.2464071661233902  1.0000
  Cd  Cd3       1.0  0.16506212949752808  0.3348065912723541  0.45338886976242065  1.0000
  Fe  Fe1       1.0  0.19609516859054563  0.010991894640028477  0.8424959778785706  1.0000
  I   I1        1.0  0.6896925568580627  0.500600278377533  0.3808535933494568  1.0000
  La  La1       1.0  0.1462441235780716  0.9374249577522278  0.957899272441864  1.0000
  Na  Na1       1.0  0.6709330081939697  0.9315451383590698  0.1497451663017273  1.0000
  Na  Na2       1.0  0.6980178952217102  0.9234251976013184  0.56252121925354  1.0000
  Na  Na3       1.0  0.6866945624351501  0.40447738766670227  0.7201963067054749  1.0000
  P   P1        1.0  0.6859936714172363  0.38854071497917175  0.7777783870697021  1.0000
