data_image0
_chemical_formula_structural       CdNa2P5Pd2
_chemical_formula_sum              "Cd1 Na2 P5 Pd2"
_cell_length_a       5.970896889033269
_cell_length_b       6.99543449598992
_cell_length_c       7.792868614196777
_cell_angle_alpha    114.19588936684589
_cell_angle_beta     111.10042797250473
_cell_angle_gamma    88.30427562704236

_space_group_name_H-M_alt    "P 1"
_space_group_IT_number       1

loop_
  _space_group_symop_operation_xyz
  'x, y, z'

loop_
  _atom_site_type_symbol
  _atom_site_label
  _atom_site_symmetry_multiplicity
  _atom_site_fract_x
  _atom_site_fract_y
  _atom_site_fract_z
  _atom_site_occupancy
  Cd  Cd1       1.0  0.2915261685848236  0.05624176189303398  0.05907674133777618  1.0000
  Na  Na1       1.0  0.5556824803352356  0.3445604741573334  0.12716403603553772  1.0000
  Na  Na2       1.0  0.9319790601730348  0.7496040463447571  0.14722378551959991  1.0000
  P   P1        1.0  0.7658693790435791  0.08709932863712311  0.7004532217979431  1.0000
  P   P2        1.0  0.5888915657997131  0.5772213935852051  0.4661404192447662  1.0000
  P   P3        1.0  0.5942531228065491  0.8418696522712708  0.8039278984069824  1.0000
  P   P4        1.0  0.8842552900314331  0.31804096698760986  0.5685058832168579  1.0000
  P   P5        1.0  0.27287912368774414  0.3963029086589813  0.5365867614746094  1.0000
  Pd  Pd1       1.0  0.8147854208946228  0.04493824020028114  0.41811016201972956  1.0000
  Pd  Pd2       1.0  0.09455180913209915  0.8306058645248413  0.7872731685638428  1.0000
