data_image0
_chemical_formula_structural       LaNa3P4SZn
_chemical_formula_sum              "La1 Na3 P4 S1 Zn1"
_cell_length_a       6.064144680777826
_cell_length_b       7.918504380301434
_cell_length_c       8.091106414794922
_cell_angle_alpha    119.5070090622954
_cell_angle_beta     90.72394396507869
_cell_angle_gamma    89.84381056236003

_space_group_name_H-M_alt    "P 1"
_space_group_IT_number       1

loop_
  _space_group_symop_operation_xyz
  'x, y, z'

loop_
  _atom_site_type_symbol
  _atom_site_label
  _atom_site_symmetry_multiplicity
  _atom_site_fract_x
  _atom_site_fract_y
  _atom_site_fract_z
  _atom_site_occupancy
  La  La1       1.0  0.3790040612220764  0.7333258390426636  0.19158570468425745  1.0000
  Na  Na1       1.0  0.17755860090255737  0.34611448645591736  0.6141219139099121  1.0000
  Na  Na2       1.0  0.6204333901405334  0.019823865965008736  0.7557651400566101  1.0000
  Na  Na3       1.0  0.873104453086853  0.5243107676506042  0.19677564501762385  1.0000
  P   P1        1.0  0.46742042899131775  0.6103479266166687  0.3970251679420471  1.0000
  P   P2        1.0  0.456927090883255  0.24874871969223022  0.8803765773773193  1.0000
  P   P3        1.0  0.7048138976097107  0.8282299637794495  0.06486915051937098  1.0000
  P   P4        1.0  0.9375230669975281  0.5557323098182678  0.20577460527420044  1.0000
  S   S1        1.0  0.16515006124973297  0.5267114639282227  0.6320157051086426  1.0000
  Zn  Zn1       1.0  0.9268431067466736  0.04536072909832001  0.3899533450603485  1.0000
