data_image0
_chemical_formula_structural       Cd4Na2OsPRb2
_chemical_formula_sum              "Cd4 Na2 Os1 P1 Rb2"
_cell_length_a       4.821912662097298
_cell_length_b       7.902832146508956
_cell_length_c       7.916497230529785
_cell_angle_alpha    119.16251054679019
_cell_angle_beta     91.51690805877013
_cell_angle_gamma    95.61431261211247

_space_group_name_H-M_alt    "P 1"
_space_group_IT_number       1

loop_
  _space_group_symop_operation_xyz
  'x, y, z'

loop_
  _atom_site_type_symbol
  _atom_site_label
  _atom_site_symmetry_multiplicity
  _atom_site_fract_x
  _atom_site_fract_y
  _atom_site_fract_z
  _atom_site_occupancy
  Cd  Cd1       1.0  0.7035530805587769  0.9868659377098083  0.6086211800575256  1.0000
  Cd  Cd2       1.0  0.7130484580993652  0.5699383616447449  0.817150354385376  1.0000
  Cd  Cd3       1.0  0.22170138359069824  0.13402418792247772  0.9691169857978822  1.0000
  Cd  Cd4       1.0  0.7236914038658142  0.6553453803062439  0.17965954542160034  1.0000
  Na  Na1       1.0  0.21278300881385803  0.24767081439495087  0.8251761198043823  1.0000
  Na  Na2       1.0  0.7173058986663818  0.21409523487091064  0.1278570145368576  1.0000
  Os  Os1       1.0  0.21007072925567627  0.8648691177368164  0.5468243956565857  1.0000
  P   P1        1.0  0.1530555784702301  0.4145362973213196  0.27785226702690125  1.0000
  Rb  Rb1       1.0  0.21561597287654877  0.7981997132301331  0.29845201969146734  1.0000
  Rb  Rb2       1.0  0.20961034297943115  0.9683954119682312  0.2106822282075882  1.0000
