data_image0
_chemical_formula_structural       Ca6O3Si2TbZn2
_chemical_formula_sum              "Ca6 O3 Si2 Tb1 Zn2"
_cell_length_a       7.400196267495569
_cell_length_b       7.394732182395898
_cell_length_c       7.667907238006592
_cell_angle_alpha    65.74656818792752
_cell_angle_beta     60.111301765105395
_cell_angle_gamma    60.34555201363469

_space_group_name_H-M_alt    "P 1"
_space_group_IT_number       1

loop_
  _space_group_symop_operation_xyz
  'x, y, z'

loop_
  _atom_site_type_symbol
  _atom_site_label
  _atom_site_symmetry_multiplicity
  _atom_site_fract_x
  _atom_site_fract_y
  _atom_site_fract_z
  _atom_site_occupancy
  Ca  Ca1       1.0  0.7618563771247865  0.3627800643444062  0.7981293201446533  1.0000
  Ca  Ca2       1.0  0.24776440858840945  0.5071837902069092  0.8855242133140564  1.0000
  Ca  Ca3       1.0  0.7495052814483644  0.3258274495601654  0.5190430283546447  1.0000
  Ca  Ca4       1.0  0.753841519355774  0.29411354660987854  0.3425765335559845  1.0000
  Ca  Ca5       1.0  0.25211766362190247  0.03546500951051712  0.9793468713760376  1.0000
  Ca  Ca6       1.0  0.28006303310394287  0.3568478226661682  0.6869721412658691  1.0000
  O   O1        1.0  0.5849384069442749  0.640366792678833  0.8690443634986877  1.0000
  O   O2        1.0  0.5283603668212891  0.18933799862861636  0.2821520268917084  1.0000
  O   O3        1.0  0.014502621255815014  0.2384344041347504  0.736735999584198  1.0000
  Si  Si1       1.0  0.2912990152835846  0.7426030039787294  0.2691153585910797  1.0000
  Si  Si2       1.0  0.2569977939128876  0.5688713788986206  0.9563986659049988  1.0000
  Tb  Tb1       1.0  0.7277640104293824  0.6716762781143188  0.5653507113456726  1.0000
  Zn  Zn1       1.0  0.26895672082901  0.39252287149429327  0.7674658894538879  1.0000
  Zn  Zn2       1.0  0.7249687314033509  0.23819470405578616  0.11526837199926376  1.0000
