data_image0
_chemical_formula_structural       Ca7O4PbSi2
_chemical_formula_sum              "Ca7 O4 Pb1 Si2"
_cell_length_a       7.0351944286617565
_cell_length_b       7.018032052192341
_cell_length_c       7.701279163360596
_cell_angle_alpha    77.64920857919563
_cell_angle_beta     71.01269447995803
_cell_angle_gamma    78.07102917667117

_space_group_name_H-M_alt    "P 1"
_space_group_IT_number       1

loop_
  _space_group_symop_operation_xyz
  'x, y, z'

loop_
  _atom_site_type_symbol
  _atom_site_label
  _atom_site_symmetry_multiplicity
  _atom_site_fract_x
  _atom_site_fract_y
  _atom_site_fract_z
  _atom_site_occupancy
  Ca  Ca1       1.0  0.5330296754837036  0.3200220465660095  0.15612144768238068  1.0000
  Ca  Ca2       1.0  0.5327082872390747  0.11074234545230865  0.5154233574867249  1.0000
  Ca  Ca3       1.0  0.5358090400695801  0.9831544160842896  0.05443182587623596  1.0000
  Ca  Ca4       1.0  0.7427316308021545  0.7227734327316284  0.9377692341804503  1.0000
  Ca  Ca5       1.0  0.03295625373721123  0.29241928458213806  0.5174039602279663  1.0000
  Ca  Ca6       1.0  0.0347231961786747  0.02090461552143097  0.38121700286865234  1.0000
  Ca  Ca7       1.0  0.03430640697479248  0.03749890252947807  0.0779665857553482  1.0000
  O   O1        1.0  0.7211539149284363  0.7529993057250977  0.017810571938753128  1.0000
  O   O2        1.0  0.8549794554710388  0.7520095109939575  0.35603880882263184  1.0000
  O   O3        1.0  0.7750445604324341  0.28595104813575745  0.6231404542922974  1.0000
  O   O4        1.0  0.32955873012542725  0.6536646485328674  0.715417206287384  1.0000
  Pb  Pb1       1.0  0.33155933022499084  0.17982742190361023  0.9054985642433167  1.0000
  Si  Si1       1.0  0.025055646896362305  0.5651294589042664  0.23571254312992093  1.0000
  Si  Si2       1.0  0.24475282430648804  0.1324109584093094  0.030103305354714376  1.0000
