data_image0
_chemical_formula_structural       AlCa4IO4PbSi2Tb
_chemical_formula_sum              "Al1 Ca4 I1 O4 Pb1 Si2 Tb1"
_cell_length_a       6.306919646447494
_cell_length_b       6.1231615913288335
_cell_length_c       6.636835098266602
_cell_angle_alpha    60.104467714943915
_cell_angle_beta     60.96945597923314
_cell_angle_gamma    59.20117831281811

_space_group_name_H-M_alt    "P 1"
_space_group_IT_number       1

loop_
  _space_group_symop_operation_xyz
  'x, y, z'

loop_
  _atom_site_type_symbol
  _atom_site_label
  _atom_site_symmetry_multiplicity
  _atom_site_fract_x
  _atom_site_fract_y
  _atom_site_fract_z
  _atom_site_occupancy
  Al  Al1       1.0  0.7847689390182495  0.26435190439224243  0.1460253745317459  1.0000
  Ca  Ca1       1.0  0.2965850532054901  0.7131387591362  0.6235446929931641  1.0000
  Ca  Ca2       1.0  0.8000545501708984  0.6523936986923218  0.9304980635643005  1.0000
  Ca  Ca3       1.0  0.3415071666240692  0.2532389461994171  0.2858865559101105  1.0000
  Ca  Ca4       1.0  0.29886651039123535  0.6442700028419495  0.795552134513855  1.0000
  I   I1        1.0  0.9853531122207642  0.5981597304344177  0.3030863106250763  1.0000
  O   O1        1.0  0.2945481240749359  0.8672487735748291  0.7637225985527039  1.0000
  O   O2        1.0  0.8072687983512878  0.7000861763954163  0.5043242573738098  1.0000
  O   O3        1.0  0.11407189816236496  0.887495219707489  0.3982079029083252  1.0000
  O   O4        1.0  0.5689987540245056  0.6658791303634644  0.6094173789024353  1.0000
  Pb  Pb1       1.0  0.2798261046409607  0.1922713816165924  0.6094549894332886  1.0000
  Si  Si1       1.0  0.5452982187271118  0.8240410089492798  0.178050696849823  1.0000
  Si  Si2       1.0  0.7331987619400024  0.07407981902360916  0.6319268345832825  1.0000
  Tb  Tb1       1.0  0.7892899513244629  0.6692222356796265  0.47029685974121094  1.0000
