data_image0
_chemical_formula_structural       Ca5MnO4Si4
_chemical_formula_sum              "Ca5 Mn1 O4 Si4"
_cell_length_a       5.895217614828522
_cell_length_b       4.9614156849235425
_cell_length_c       4.81810998916626
_cell_angle_alpha    84.31162447072239
_cell_angle_beta     41.4920888387602
_cell_angle_gamma    52.82591724272402

_space_group_name_H-M_alt    "P 1"
_space_group_IT_number       1

loop_
  _space_group_symop_operation_xyz
  'x, y, z'

loop_
  _atom_site_type_symbol
  _atom_site_label
  _atom_site_symmetry_multiplicity
  _atom_site_fract_x
  _atom_site_fract_y
  _atom_site_fract_z
  _atom_site_occupancy
  Ca  Ca1       1.0  0.5027478933334351  0.8597880601882935  0.26762986183166504  1.0000
  Ca  Ca2       1.0  0.31460294127464294  0.6879570484161377  0.45572230219841003  1.0000
  Ca  Ca3       1.0  0.812979519367218  0.9184162020683289  0.281127691268921  1.0000
  Ca  Ca4       1.0  0.7789064645767212  0.2492323815822599  0.5709407925605774  1.0000
  Ca  Ca5       1.0  0.8050822019577026  0.06907487660646436  0.7932612895965576  1.0000
  Mn  Mn1       1.0  0.18153734505176544  0.8047667741775514  0.7588213682174683  1.0000
  O   O1        1.0  0.18049514293670635  0.521744430065155  0.8438809514045716  1.0000
  O   O2        1.0  0.18095566332340238  0.42535197734832764  0.2713569104671479  1.0000
  O   O3        1.0  0.3193224668502807  0.7166631817817688  0.1796540617942811  1.0000
  O   O4        1.0  0.818946123123169  0.9911699295043945  0.06604439020156863  1.0000
  Si  Si1       1.0  0.7939591407775878  0.35958781838417053  0.5539084672927858  1.0000
  Si  Si2       1.0  0.1833454370498657  0.6699789762496948  0.38418942689895635  1.0000
  Si  Si3       1.0  0.7713329792022706  0.7788164615631102  0.564996302127838  1.0000
  Si  Si4       1.0  0.40967512130737305  0.29420876502990717  0.32400208711624146  1.0000
