data_image0
_chemical_formula_structural       Ca7O4Si3
_chemical_formula_sum              "Ca7 O4 Si3"
_cell_length_a       6.316000953126419
_cell_length_b       6.292042036016616
_cell_length_c       6.892503261566162
_cell_angle_alpha    67.03070360195107
_cell_angle_beta     65.11532346245207
_cell_angle_gamma    67.96693223017766

_space_group_name_H-M_alt    "P 1"
_space_group_IT_number       1

loop_
  _space_group_symop_operation_xyz
  'x, y, z'

loop_
  _atom_site_type_symbol
  _atom_site_label
  _atom_site_symmetry_multiplicity
  _atom_site_fract_x
  _atom_site_fract_y
  _atom_site_fract_z
  _atom_site_occupancy
  Ca  Ca1       1.0  0.37126249074935913  0.6556121706962585  0.8356094956398009  1.0000
  Ca  Ca2       1.0  0.3043493032455445  0.8683144450187682  0.47371101379394526  1.0000
  Ca  Ca3       1.0  0.40262916684150696  0.41528177261352534  0.7771067023277282  1.0000
  Ca  Ca4       1.0  0.9270005226135256  0.052635360509157174  0.2729712426662444  1.0000
  Ca  Ca5       1.0  0.9428151249885559  0.9609550237655639  0.5625271797180176  1.0000
  Ca  Ca6       1.0  0.9334570169448853  0.5645244121551514  0.23823159933090207  1.0000
  Ca  Ca7       1.0  0.45184585452079773  0.11809585243463515  0.4274333715438842  1.0000
  O   O1        1.0  0.43526414036750793  0.7732266187667846  0.5841104388237  1.0000
  O   O2        1.0  0.9197291135787964  0.59784996509552  0.6078744530677795  1.0000
  O   O3        1.0  0.9058892130851746  0.5443093776702881  0.0545462742447853  1.0000
  O   O4        1.0  0.30576425790786743  0.7211556434631348  0.6723857522010803  1.0000
  Si  Si1       1.0  0.4525291621685028  0.8768572211265563  0.3468245565891266  1.0000
  Si  Si2       1.0  0.7472506165504456  0.628110408782959  0.7535250782966613  1.0000
  Si  Si3       1.0  0.9159478545188904  0.7991729974746703  0.7955728769302367  1.0000
