data_image0
_chemical_formula_structural       Ca3O6PSi4
_chemical_formula_sum              "Ca3 O6 P1 Si4"
_cell_length_a       5.692100115767368
_cell_length_b       5.864617827234251
_cell_length_c       6.474605560302734
_cell_angle_alpha    65.53282020087359
_cell_angle_beta     62.983043459416386
_cell_angle_gamma    62.31756098198947

_space_group_name_H-M_alt    "P 1"
_space_group_IT_number       1

loop_
  _space_group_symop_operation_xyz
  'x, y, z'

loop_
  _atom_site_type_symbol
  _atom_site_label
  _atom_site_symmetry_multiplicity
  _atom_site_fract_x
  _atom_site_fract_y
  _atom_site_fract_z
  _atom_site_occupancy
  Ca  Ca1       1.0  0.13169419765472412  0.21105137467384338  0.5325013399124146  1.0000
  Ca  Ca2       1.0  0.10180706530809402  0.3811953365802765  0.2591317296028137  1.0000
  Ca  Ca3       1.0  0.7634644508361816  0.8198733329772949  0.06759271770715714  1.0000
  O   O1        1.0  0.5467908978462219  0.31132981181144714  0.7149388790130615  1.0000
  O   O2        1.0  0.5839428305625916  0.4434717893600464  0.6179846525192261  1.0000
  O   O3        1.0  0.4405117332935333  0.5685579776763916  0.14196275174617767  1.0000
  O   O4        1.0  0.7915021777153015  0.5378413796424866  0.05789877101778984  1.0000
  O   O5        1.0  0.6815951466560364  0.4419976770877838  0.0800415500998497  1.0000
  O   O6        1.0  0.9008809328079224  0.3145083487033844  0.0055915857665240765  1.0000
  P   P1        1.0  0.6483432054519653  0.025873882696032524  0.15714433789253235  1.0000
  Si  Si1       1.0  0.2620376646518707  0.3392554223537445  0.26508763432502747  1.0000
  Si  Si2       1.0  0.09154081344604492  0.33364495635032654  0.689507782459259  1.0000
  Si  Si3       1.0  0.4450366497039795  0.5587633848190308  0.08256571739912033  1.0000
  Si  Si4       1.0  0.28164929151535034  0.8753958344459534  0.9074002504348755  1.0000
