data_image0
_chemical_formula_structural       DyGe7OsSeZn2
_chemical_formula_sum              "Dy1 Ge7 Os1 Se1 Zn2"
_cell_length_a       6.686101105407556
_cell_length_b       6.729803007393292
_cell_length_c       7.316941261291504
_cell_angle_alpha    107.34188319091474
_cell_angle_beta     110.99920527114386
_cell_angle_gamma    114.2726793868419

_space_group_name_H-M_alt    "P 1"
_space_group_IT_number       1

loop_
  _space_group_symop_operation_xyz
  'x, y, z'

loop_
  _atom_site_type_symbol
  _atom_site_label
  _atom_site_symmetry_multiplicity
  _atom_site_fract_x
  _atom_site_fract_y
  _atom_site_fract_z
  _atom_site_occupancy
  Dy  Dy1       1.0  0.19102738797664642  0.3406987488269806  0.8434721231460571  1.0000
  Ge  Ge1       1.0  0.30908790230751043  0.49745035171508795  0.012512128800153732  1.0000
  Ge  Ge2       1.0  0.32031634449958807  0.8353928923606874  0.20576930046081543  1.0000
  Ge  Ge3       1.0  0.36457473039627075  0.7414027452468872  0.17893077433109283  1.0000
  Ge  Ge4       1.0  0.6650789380073547  0.5451307892799377  0.30082955956459045  1.0000
  Ge  Ge5       1.0  0.12532019615173348  0.8746520876884462  0.30257338285446167  1.0000
  Ge  Ge6       1.0  0.7973820567131042  0.16620072722434998  0.8397793769836426  1.0000
  Ge  Ge7       1.0  0.774226188659668  0.937693476676941  0.15683962404727936  1.0000
  Os  Os1       1.0  0.576729953289032  0.11715691536664964  0.5492457151412964  1.0000
  Se  Se1       1.0  0.6157282590866089  0.7409842014312744  0.2375471591949463  1.0000
  Zn  Zn1       1.0  0.4334335327148438  0.8652237057685853  0.6146925091743469  1.0000
  Zn  Zn2       1.0  0.2688888609409332  0.19166088104248047  0.221249520778656  1.0000
