data_image0
_chemical_formula_structural       AsGe5ILuPSeZn2
_chemical_formula_sum              "As1 Ge5 I1 Lu1 P1 Se1 Zn2"
_cell_length_a       5.13080248588779
_cell_length_b       6.224174551487127
_cell_length_c       7.710665225982666
_cell_angle_alpha    91.89248305819706
_cell_angle_beta     90.38640549670427
_cell_angle_gamma    120.94516102546055

_space_group_name_H-M_alt    "P 1"
_space_group_IT_number       1

loop_
  _space_group_symop_operation_xyz
  'x, y, z'

loop_
  _atom_site_type_symbol
  _atom_site_label
  _atom_site_symmetry_multiplicity
  _atom_site_fract_x
  _atom_site_fract_y
  _atom_site_fract_z
  _atom_site_occupancy
  As  As1       1.0  0.1606026142835617  0.9909681081771851  0.8710855245590209  1.0000
  Ge  Ge1       1.0  0.7249186635017395  0.7520530819892883  0.6936179995536803  1.0000
  Ge  Ge2       1.0  0.1426156461238861  0.9620592594146729  0.31140103936195374  1.0000
  Ge  Ge3       1.0  0.706189751625061  0.8984150290489197  0.7459663152694701  1.0000
  Ge  Ge4       1.0  0.22702768445014954  0.7806161642074585  0.598065197467804  1.0000
  Ge  Ge5       1.0  0.25366446375846863  0.3736610412597656  0.8019761443138121  1.0000
  I   I1        1.0  0.2055891901254654  0.6122021079063416  0.9995031356811522  1.0000
  Lu  Lu1       1.0  0.7071166038513184  0.816885232925415  0.17605310678482053  1.0000
  P   P1        1.0  0.17052891850471497  0.44490548968315125  0.5533288717269897  1.0000
  Se  Se1       1.0  0.5494768619537354  0.21547026932239532  0.5158429145812988  1.0000
  Zn  Zn1       1.0  0.7339602112770081  0.22195906937122345  0.4906012117862701  1.0000
  Zn  Zn2       1.0  0.17916405200958252  0.7969388365745544  0.4765490889549255  1.0000
