data_image0
_chemical_formula_structural       CuGe8Lu2Os
_chemical_formula_sum              "Cu1 Ge8 Lu2 Os1"
_cell_length_a       5.681254893598474
_cell_length_b       5.207361582890646
_cell_length_c       5.700751781463623
_cell_angle_alpha    105.36999645280923
_cell_angle_beta     103.46808932871488
_cell_angle_gamma    99.18352231631953

_space_group_name_H-M_alt    "P 1"
_space_group_IT_number       1

loop_
  _space_group_symop_operation_xyz
  'x, y, z'

loop_
  _atom_site_type_symbol
  _atom_site_label
  _atom_site_symmetry_multiplicity
  _atom_site_fract_x
  _atom_site_fract_y
  _atom_site_fract_z
  _atom_site_occupancy
  Cu  Cu1       1.0  0.7587490081787109  0.49332430958747864  0.5439057350158691  1.0000
  Ge  Ge1       1.0  0.25152334570884705  0.23540954291820526  0.17072665691375732  1.0000
  Ge  Ge2       1.0  0.47602796554565424  0.04738535359501839  0.6171241402626038  1.0000
  Ge  Ge3       1.0  0.2741781175136566  0.9847490191459656  0.7937219738960266  1.0000
  Ge  Ge4       1.0  0.796598494052887  0.9505663514137268  0.7348029613494873  1.0000
  Ge  Ge5       1.0  0.013825478032231331  0.07244428247213364  0.5160236358642578  1.0000
  Ge  Ge6       1.0  0.05049300566315651  0.25233379006385803  0.869470775127411  1.0000
  Ge  Ge7       1.0  0.3013676702976227  0.40937870740890503  0.4475184082984925  1.0000
  Ge  Ge8       1.0  0.7944657802581787  0.47607290744781494  0.7549108862876892  1.0000
  Lu  Lu1       1.0  0.8139485716819763  0.8679458498954773  0.19425125420093536  1.0000
  Lu  Lu2       1.0  0.7579753994941711  0.003696508938446641  0.10835075378417966  1.0000
  Os  Os1       1.0  0.3736283481121063  0.7197651863098145  0.9960152506828309  1.0000
