data_image0
_chemical_formula_structural       AsGe3LiLu4UZn2
_chemical_formula_sum              "As1 Ge3 Li1 Lu4 U1 Zn2"
_cell_length_a       5.295366196801393
_cell_length_b       6.109640916374211
_cell_length_c       7.109652519226074
_cell_angle_alpha    88.79644177690133
_cell_angle_beta     90.35051688633251
_cell_angle_gamma    118.53387294640221

_space_group_name_H-M_alt    "P 1"
_space_group_IT_number       1

loop_
  _space_group_symop_operation_xyz
  'x, y, z'

loop_
  _atom_site_type_symbol
  _atom_site_label
  _atom_site_symmetry_multiplicity
  _atom_site_fract_x
  _atom_site_fract_y
  _atom_site_fract_z
  _atom_site_occupancy
  As  As1       1.0  0.19514976441860202  0.4319757223129273  0.6230697631835938  1.0000
  Ge  Ge1       1.0  0.6307924389839172  0.5694386959075928  0.001325537567026912  1.0000
  Ge  Ge2       1.0  0.04625714197754864  0.4148142039775849  0.9985894560813904  1.0000
  Ge  Ge3       1.0  0.5254212617874146  0.5509687066078186  0.4471187889575958  1.0000
  Li  Li1       1.0  0.12941588461399078  0.6702173948287964  0.8230087757110596  1.0000
  Lu  Lu1       1.0  0.6825758814811707  0.13109438121318817  0.8077368140220642  1.0000
  Lu  Lu2       1.0  0.9809377193450928  0.9919837713241578  0.15090693533420563  1.0000
  Lu  Lu3       1.0  0.6144125461578369  0.08275511860847473  0.20809698104858398  1.0000
  Lu  Lu4       1.0  0.5849798321723939  0.9811225533485414  0.025356244295835495  1.0000
  U   U1        1.0  0.09656848758459091  0.10631851106882097  0.4161433279514313  1.0000
  Zn  Zn1       1.0  0.08594906330108643  0.09627680480480195  0.2935991883277893  1.0000
  Zn  Zn2       1.0  0.9911842346191406  0.1677873730659485  0.42946872115135193  1.0000
