data_image0
_chemical_formula_structural       Ge3Lu7TiZn
_chemical_formula_sum              "Ge3 Lu7 Ti1 Zn1"
_cell_length_a       5.391954398174585
_cell_length_b       5.845441267324002
_cell_length_c       7.261475086212158
_cell_angle_alpha    118.14342392227374
_cell_angle_beta     101.64321290005674
_cell_angle_gamma    100.17265195451796

_space_group_name_H-M_alt    "P 1"
_space_group_IT_number       1

loop_
  _space_group_symop_operation_xyz
  'x, y, z'

loop_
  _atom_site_type_symbol
  _atom_site_label
  _atom_site_symmetry_multiplicity
  _atom_site_fract_x
  _atom_site_fract_y
  _atom_site_fract_z
  _atom_site_occupancy
  Ge  Ge1       1.0  0.5031376481056213  0.409021258354187  0.8859015107154846  1.0000
  Ge  Ge2       1.0  0.2583990693092346  0.8883981704711914  0.018245596438646317  1.0000
  Ge  Ge3       1.0  0.8119350075721741  0.8476933240890503  0.2456567883491516  1.0000
  Lu  Lu1       1.0  0.2822403609752655  0.7570776343345642  0.27062088251113897  1.0000
  Lu  Lu2       1.0  0.5357009768486023  0.08182109892368317  0.23175151646137238  1.0000
  Lu  Lu3       1.0  0.2590561807155609  0.5692721605300903  0.6346381306648254  1.0000
  Lu  Lu4       1.0  0.25081512331962585  0.06750138849020004  0.5987975597381592  1.0000
  Lu  Lu5       1.0  0.012985151261091232  0.2738562524318695  0.030257156118750572  1.0000
  Lu  Lu6       1.0  0.4662143588066101  0.634522020816803  0.5446033477783203  1.0000
  Lu  Lu7       1.0  0.839363694190979  0.7082914113998413  0.9472864866256714  1.0000
  Ti  Ti1       1.0  0.4706403911113739  0.6874066591262817  0.30460217595100403  1.0000
  Zn  Zn1       1.0  0.5078787207603455  0.7263908982276917  0.9877541065216064  1.0000
