data_image0
_chemical_formula_structural       GdGe9LuOs
_chemical_formula_sum              "Gd1 Ge9 Lu1 Os1"
_cell_length_a       5.646988485590729
_cell_length_b       6.717143787791034
_cell_length_c       6.97482967376709
_cell_angle_alpha    91.33032453968995
_cell_angle_beta     95.77406622046759
_cell_angle_gamma    113.90461185922207

_space_group_name_H-M_alt    "P 1"
_space_group_IT_number       1

loop_
  _space_group_symop_operation_xyz
  'x, y, z'

loop_
  _atom_site_type_symbol
  _atom_site_label
  _atom_site_symmetry_multiplicity
  _atom_site_fract_x
  _atom_site_fract_y
  _atom_site_fract_z
  _atom_site_occupancy
  Gd  Gd1       1.0  0.5523079037666321  0.40861591696739197  0.6439939141273499  1.0000
  Ge  Ge1       1.0  0.559127926826477  0.9551441073417664  0.9978337287902832  1.0000
  Ge  Ge2       1.0  0.8194358944892884  0.9044479727745056  0.3932812809944153  1.0000
  Ge  Ge3       1.0  0.45125618577003485  0.23008187115192413  0.882579505443573  1.0000
  Ge  Ge4       1.0  0.5567246675491333  0.44187667965888977  0.9433319568634033  1.0000
  Ge  Ge5       1.0  0.8466956019401551  0.05739246681332588  0.2682421803474426  1.0000
  Ge  Ge6       1.0  0.945544183254242  0.3781747817993164  0.7828061580657959  1.0000
  Ge  Ge7       1.0  0.6673114895820618  0.20138172805309296  0.3314608037471771  1.0000
  Ge  Ge8       1.0  0.141572505235672  0.9336390495300293  0.27660417556762695  1.0000
  Ge  Ge9       1.0  0.15725965797901154  0.8504667282104492  0.7216712832450867  1.0000
  Lu  Lu1       1.0  0.5457801818847656  0.3891122043132782  0.9533703923225403  1.0000
  Os  Os1       1.0  0.12758849561214447  0.6658816337585449  0.03663266822695732  1.0000
