data_image0
_chemical_formula_structural       EuGe4I2Zn4
_chemical_formula_sum              "Eu1 Ge4 I2 Zn4"
_cell_length_a       6.913093017061692
_cell_length_b       7.10537173191103
_cell_length_c       10.198058128356934
_cell_angle_alpha    91.28124216477656
_cell_angle_beta     90.44783124805404
_cell_angle_gamma    105.80185985479262

_space_group_name_H-M_alt    "P 1"
_space_group_IT_number       1

loop_
  _space_group_symop_operation_xyz
  'x, y, z'

loop_
  _atom_site_type_symbol
  _atom_site_label
  _atom_site_symmetry_multiplicity
  _atom_site_fract_x
  _atom_site_fract_y
  _atom_site_fract_z
  _atom_site_occupancy
  Eu  Eu1       1.0  0.07024388015270233  0.7421284914016724  0.5480849742889404  1.0000
  Ge  Ge1       1.0  0.042156115174293525  0.7503776550292969  0.35634368658065796  1.0000
  Ge  Ge2       1.0  0.5314038395881653  0.3565382659435272  0.4458194971084595  1.0000
  Ge  Ge3       1.0  0.5967766642570496  0.0746808871626854  0.09043823182582855  1.0000
  Ge  Ge4       1.0  0.21618975698947906  0.8697975873947142  0.20979174971580505  1.0000
  I   I1        1.0  0.5360758304595947  0.30419257283210754  0.8737793564796448  1.0000
  I   I2        1.0  0.7138902544975282  0.5292705297470093  0.9469319581985474  1.0000
  Zn  Zn1       1.0  0.7112569808959962  0.26447418332099915  0.2356034517288208  1.0000
  Zn  Zn2       1.0  0.06172210723161698  0.3750559687614441  0.5857316255569458  1.0000
  Zn  Zn3       1.0  0.20578001439571383  0.2776712477207184  0.09076523780822754  1.0000
  Zn  Zn4       1.0  0.6936605572700502  0.6305599808692932  0.648108184337616  1.0000
