data_image0
_chemical_formula_structural       Ge5SbZn4Zr
_chemical_formula_sum              "Ge5 Sb1 Zn4 Zr1"
_cell_length_a       4.882380602119818
_cell_length_b       6.549750585606473
_cell_length_c       9.63334846496582
_cell_angle_alpha    90.3342604241366
_cell_angle_beta     90.82996967740577
_cell_angle_gamma    92.08678877584423

_space_group_name_H-M_alt    "P 1"
_space_group_IT_number       1

loop_
  _space_group_symop_operation_xyz
  'x, y, z'

loop_
  _atom_site_type_symbol
  _atom_site_label
  _atom_site_symmetry_multiplicity
  _atom_site_fract_x
  _atom_site_fract_y
  _atom_site_fract_z
  _atom_site_occupancy
  Ge  Ge1       1.0  0.9898366928100586  0.5601300597190857  0.3601929545402527  1.0000
  Ge  Ge2       1.0  0.43755125999450684  0.005593687295913696  0.27256718277931213  1.0000
  Ge  Ge3       1.0  0.9886820912361145  0.8492765426635742  0.4393944144248963  1.0000
  Ge  Ge4       1.0  0.4852813482284546  0.28302499651908875  0.46182984113693243  1.0000
  Ge  Ge5       1.0  0.4903619885444641  0.6567040085792542  0.4554164409637452  1.0000
  Sb  Sb1       1.0  0.9926257133483887  0.34252771735191345  0.7101595401763916  1.0000
  Zn  Zn1       1.0  0.4929400682449341  0.5223867893218994  0.24654512107372287  1.0000
  Zn  Zn2       1.0  0.9852980375289917  0.5846197009086609  0.381567120552063  1.0000
  Zn  Zn3       1.0  0.7739558219909668  0.6227868795394897  0.2761044502258301  1.0000
  Zn  Zn4       1.0  0.3940820097923279  0.15156692266464233  0.10771910101175308  1.0000
  Zr  Zr1       1.0  0.4885060489177704  0.49601516127586365  0.960531234741211  1.0000
