data_image0
_chemical_formula_structural       Ge6SeZn4
_chemical_formula_sum              "Ge6 Se1 Zn4"
_cell_length_a       6.105075181632149
_cell_length_b       6.425168239093052
_cell_length_c       7.167232513427734
_cell_angle_alpha    94.96985125147904
_cell_angle_beta     99.09117304860915
_cell_angle_gamma    91.51316674391069

_space_group_name_H-M_alt    "P 1"
_space_group_IT_number       1

loop_
  _space_group_symop_operation_xyz
  'x, y, z'

loop_
  _atom_site_type_symbol
  _atom_site_label
  _atom_site_symmetry_multiplicity
  _atom_site_fract_x
  _atom_site_fract_y
  _atom_site_fract_z
  _atom_site_occupancy
  Ge  Ge1       1.0  0.3117336332798004  0.043092966079711914  0.360912561416626  1.0000
  Ge  Ge2       1.0  0.7891737222671509  0.9308570623397827  0.7508132457733154  1.0000
  Ge  Ge3       1.0  0.29327771067619324  0.9516199827194214  0.029555968940258026  1.0000
  Ge  Ge4       1.0  0.30227985978126526  0.048033248633146286  0.07461823523044586  1.0000
  Ge  Ge5       1.0  0.7929115295410156  0.3125903606414795  0.06756366044282912  1.0000
  Ge  Ge6       1.0  0.7762052416801453  0.28202661871910095  0.1824875921010971  1.0000
  Se  Se1       1.0  0.765094518661499  0.49834272265434265  0.8188530206680298  1.0000
  Zn  Zn1       1.0  0.8195216655731201  0.7019362449645996  0.27672889828681946  1.0000
  Zn  Zn2       1.0  0.29478946328163147  0.8761947751045227  0.052399806678295135  1.0000
  Zn  Zn3       1.0  0.30085936188697815  0.2736245393753052  0.7692999839782715  1.0000
  Zn  Zn4       1.0  0.8069140315055847  0.05986844375729561  0.8405240774154663  1.0000
