data_image0
_chemical_formula_structural       Ge5LuV2Zn3
_chemical_formula_sum              "Ge5 Lu1 V2 Zn3"
_cell_length_a       5.852044324280205
_cell_length_b       5.07119943284
_cell_length_c       8.332199096679688
_cell_angle_alpha    107.21220547317724
_cell_angle_beta     106.35375475670774
_cell_angle_gamma    145.53886660692515

_space_group_name_H-M_alt    "P 1"
_space_group_IT_number       1

loop_
  _space_group_symop_operation_xyz
  'x, y, z'

loop_
  _atom_site_type_symbol
  _atom_site_label
  _atom_site_symmetry_multiplicity
  _atom_site_fract_x
  _atom_site_fract_y
  _atom_site_fract_z
  _atom_site_occupancy
  Ge  Ge1       1.0  0.1668128818273544  0.1272577196359634  0.27635642886161804  1.0000
  Ge  Ge2       1.0  0.3020574152469631  0.6425672173500057  0.8496204614639281  1.0000
  Ge  Ge3       1.0  0.8037941455841062  0.001069314894266182  0.4603464901447295  1.0000
  Ge  Ge4       1.0  0.7020550966262814  0.8898738622665402  0.4699596464633941  1.0000
  Ge  Ge5       1.0  0.16088451445102675  0.570771276950836  0.6933786273002625  1.0000
  Lu  Lu1       1.0  0.6723928451538083  0.43054187297821017  0.9353244304656981  1.0000
  V   V1        1.0  0.43638297915458646  0.4218991696834561  0.5928555130958556  1.0000
  V   V2        1.0  0.4320047795772552  0.10285081714391707  0.2551281452178955  1.0000
  Zn  Zn1       1.0  0.37071880698204007  0.7484308481216427  0.5197418928146361  1.0000
  Zn  Zn2       1.0  0.8158252835273743  0.8150088191032409  0.1265714317560196  1.0000
  Zn  Zn3       1.0  0.809260308742523  0.030220149084925475  0.7906234264373779  1.0000
