data_image0
_chemical_formula_structural       Ge6Zn5
_chemical_formula_sum              "Ge6 Zn5"
_cell_length_a       6.941245712152928
_cell_length_b       6.832254348270339
_cell_length_c       6.991081237792969
_cell_angle_alpha    91.34229046271128
_cell_angle_beta     98.28930051050068
_cell_angle_gamma    115.9804477309482

_space_group_name_H-M_alt    "P 1"
_space_group_IT_number       1

loop_
  _space_group_symop_operation_xyz
  'x, y, z'

loop_
  _atom_site_type_symbol
  _atom_site_label
  _atom_site_symmetry_multiplicity
  _atom_site_fract_x
  _atom_site_fract_y
  _atom_site_fract_z
  _atom_site_occupancy
  Ge  Ge1       1.0  0.9730063676834106  0.08415907621383667  0.8192754983901979  1.0000
  Ge  Ge2       1.0  0.034681085497140884  0.26333075761795044  0.8188929557800295  1.0000
  Ge  Ge3       1.0  0.02661670744419098  0.6539174318313599  0.7995982170104982  1.0000
  Ge  Ge4       1.0  0.5557920336723328  0.09189527481794357  0.1746788322925568  1.0000
  Ge  Ge5       1.0  0.04494452476501465  0.36925843358039856  0.17325240373611453  1.0000
  Ge  Ge6       1.0  0.619567334651947  0.9879498481750488  0.674207091331482  1.0000
  Zn  Zn1       1.0  0.04181625321507454  0.7958989143371582  0.540582001209259  1.0000
  Zn  Zn2       1.0  0.058758445084095  0.23048605024814606  0.6451244950294495  1.0000
  Zn  Zn3       1.0  0.03534230217337608  0.03681391477584839  0.8143296241760255  1.0000
  Zn  Zn4       1.0  0.550378680229187  0.6206274628639221  0.514085054397583  1.0000
  Zn  Zn5       1.0  0.5490288734436035  0.8225335478782654  0.6535238027572632  1.0000
