data_image0
_chemical_formula_structural       Ge5ITmZn4
_chemical_formula_sum              "Ge5 I1 Tm1 Zn4"
_cell_length_a       7.846354945148677
_cell_length_b       7.488070431930776
_cell_length_c       7.777846813201904
_cell_angle_alpha    92.63250036463
_cell_angle_beta     95.32721739288544
_cell_angle_gamma    121.99420712973206

_space_group_name_H-M_alt    "P 1"
_space_group_IT_number       1

loop_
  _space_group_symop_operation_xyz
  'x, y, z'

loop_
  _atom_site_type_symbol
  _atom_site_label
  _atom_site_symmetry_multiplicity
  _atom_site_fract_x
  _atom_site_fract_y
  _atom_site_fract_z
  _atom_site_occupancy
  Ge  Ge1       1.0  0.23920057713985443  0.4448296427726746  0.34234872460365295  1.0000
  Ge  Ge2       1.0  0.2710753083229065  0.12644559144973755  0.15393929183483124  1.0000
  Ge  Ge3       1.0  0.8475742936134337  0.8076935410499574  0.3401419222354889  1.0000
  Ge  Ge4       1.0  0.6205477714538574  0.25093701481819153  0.7827445864677429  1.0000
  Ge  Ge5       1.0  0.779503047466278  0.7229251265525819  0.2121439427137375  1.0000
  I   I1        1.0  0.3509489297866821  0.2486892938613892  0.3735138475894928  1.0000
  Tm  Tm1       1.0  0.08641169965267181  0.1782743334770203  0.9239829778671265  1.0000
  Zn  Zn1       1.0  0.7880475521087645  0.04900335893034936  0.7267593741416931  1.0000
  Zn  Zn2       1.0  0.5764036774635315  0.235322579741478  0.3080635368824005  1.0000
  Zn  Zn3       1.0  0.792943239212036  0.7694984078407289  0.7469339966773987  1.0000
  Zn  Zn4       1.0  0.28738951683044434  0.286263644695282  0.20790649950504303  1.0000
