data_image0
_chemical_formula_structural       O5SbSr2Te2Ti
_chemical_formula_sum              "O5 Sb1 Sr2 Te2 Ti1"
_cell_length_a       6.902808119647172
_cell_length_b       7.3036151422197815
_cell_length_c       7.146385669708252
_cell_angle_alpha    108.85332914137234
_cell_angle_beta     109.10191358784026
_cell_angle_gamma    113.29800482536787

_space_group_name_H-M_alt    "P 1"
_space_group_IT_number       1

loop_
  _space_group_symop_operation_xyz
  'x, y, z'

loop_
  _atom_site_type_symbol
  _atom_site_label
  _atom_site_symmetry_multiplicity
  _atom_site_fract_x
  _atom_site_fract_y
  _atom_site_fract_z
  _atom_site_occupancy
  O   O1        1.0  0.7677311301231384  0.47977814078330994  0.8842261433601379  1.0000
  O   O2        1.0  0.5636954307556152  0.804986834526062  0.24593342840671545  1.0000
  O   O3        1.0  0.648340106010437  0.08131184428930283  0.6219328045845032  1.0000
  O   O4        1.0  0.4594932198524475  0.7797675728797913  0.5927659273147583  1.0000
  O   O5        1.0  0.9528957605361938  0.8097143769264221  0.6792376637458801  1.0000
  Sb  Sb1       1.0  0.23530489206314087  0.46321818232536316  0.15907229483127594  1.0000
  Sr  Sr1       1.0  0.4697585701942444  0.7900630235671997  0.16825447976589203  1.0000
  Sr  Sr2       1.0  0.5542111396789551  0.23858800530433655  0.5708174109458923  1.0000
  Te  Te1       1.0  0.23841477930545807  0.9941871166229248  0.4192770719528199  1.0000
  Te  Te2       1.0  0.456662654876709  0.9834736585617065  0.4236673414707184  1.0000
  Ti  Ti1       1.0  0.13092005252838135  0.28209400177001953  0.9204370379447937  1.0000
