data_image0
_chemical_formula_structural       O4SiSr2Te2TiTl
_chemical_formula_sum              "O4 Si1 Sr2 Te2 Ti1 Tl1"
_cell_length_a       5.767378204697572
_cell_length_b       6.917309498888211
_cell_length_c       7.514404773712158
_cell_angle_alpha    115.95152900714696
_cell_angle_beta     109.79835777145139
_cell_angle_gamma    88.65553980225036

_space_group_name_H-M_alt    "P 1"
_space_group_IT_number       1

loop_
  _space_group_symop_operation_xyz
  'x, y, z'

loop_
  _atom_site_type_symbol
  _atom_site_label
  _atom_site_symmetry_multiplicity
  _atom_site_fract_x
  _atom_site_fract_y
  _atom_site_fract_z
  _atom_site_occupancy
  O   O1        1.0  0.8568862676620483  0.2753051221370697  0.4887212514877319  1.0000
  O   O2        1.0  0.45896559953689575  0.32921963930130005  0.10703983902931212  1.0000
  O   O3        1.0  0.27791598439216614  0.7541987895965576  0.12423786520957945  1.0000
  O   O4        1.0  0.18778124451637268  0.41379261016845703  0.6335299611091613  1.0000
  Si  Si1       1.0  0.8543011546134949  0.9037522673606873  0.7743318676948546  1.0000
  Sr  Sr1       1.0  0.3936930000782013  0.14818549156188965  0.09438039362430571  1.0000
  Sr  Sr2       1.0  0.31975531578063965  0.27209576964378357  0.23063832521438596  1.0000
  Te  Te1       1.0  0.6017869114875793  0.9204269647598267  0.6829457879066466  1.0000
  Te  Te2       1.0  0.8195132613182068  0.6611666083335876  0.23377130925655362  1.0000
  Ti  Ti1       1.0  0.600360631942749  0.23683853447437286  0.3546097576618194  1.0000
  Tl  Tl1       1.0  0.08073797076940536  0.6599867343902588  0.6141902804374695  1.0000
