data_image0
_chemical_formula_structural       O4Sr4Te3
_chemical_formula_sum              "O4 Sr4 Te3"
_cell_length_a       6.584804257950621
_cell_length_b       6.924082904064192
_cell_length_c       6.923041820526123
_cell_angle_alpha    94.04069447630538
_cell_angle_beta     91.26797184006104
_cell_angle_gamma    94.80305150987753

_space_group_name_H-M_alt    "P 1"
_space_group_IT_number       1

loop_
  _space_group_symop_operation_xyz
  'x, y, z'

loop_
  _atom_site_type_symbol
  _atom_site_label
  _atom_site_symmetry_multiplicity
  _atom_site_fract_x
  _atom_site_fract_y
  _atom_site_fract_z
  _atom_site_occupancy
  O   O1        1.0  0.853295087814331  0.19041109085083008  0.9156379699707031  1.0000
  O   O2        1.0  0.7956876754760742  0.6413306593894958  1.7046928405753702e-05  1.0000
  O   O3        1.0  0.28644227981567383  0.8526907563209534  0.270471453666687  1.0000
  O   O4        1.0  0.24898068606853485  0.13701818883419037  0.9031700491905212  1.0000
  Sr  Sr1       1.0  0.7522714138031006  0.4185892641544342  0.5307287573814392  1.0000
  Sr  Sr2       1.0  0.2608877718448639  0.5692762136459351  0.9296333193778992  1.0000
  Sr  Sr3       1.0  0.8291128873825073  0.4837761521339416  0.5077149868011475  1.0000
  Sr  Sr4       1.0  0.39246121048927307  0.13359732925891876  0.24268211424350739  1.0000
  Te  Te1       1.0  0.7478882670402527  0.0852472335100174  0.9378085732460022  1.0000
  Te  Te2       1.0  0.4318241477012634  0.8896746635437012  0.46878132224082947  1.0000
  Te  Te3       1.0  0.8864412903785706  0.6318774223327637  0.08560460060834885  1.0000
