data_image0
_chemical_formula_structural       O5SiSrTe3Tl
_chemical_formula_sum              "O5 Si1 Sr1 Te3 Tl1"
_cell_length_a       6.89930267204321
_cell_length_b       7.623963949665261
_cell_length_c       7.707767963409424
_cell_angle_alpha    111.1759880320837
_cell_angle_beta     112.4929210586842
_cell_angle_gamma    98.7086918643349

_space_group_name_H-M_alt    "P 1"
_space_group_IT_number       1

loop_
  _space_group_symop_operation_xyz
  'x, y, z'

loop_
  _atom_site_type_symbol
  _atom_site_label
  _atom_site_symmetry_multiplicity
  _atom_site_fract_x
  _atom_site_fract_y
  _atom_site_fract_z
  _atom_site_occupancy
  O   O1        1.0  0.0040793824009597345  0.053092986345291145  0.9405779838562013  1.0000
  O   O2        1.0  0.018375540152192116  0.664347767829895  0.3325027227401734  1.0000
  O   O3        1.0  0.2591921091079712  0.18455831706523895  0.027274591848254207  1.0000
  O   O4        1.0  0.49983906745910645  0.6411400437355042  0.3663864731788635  1.0000
  O   O5        1.0  0.981559693813324  0.7379734516143799  0.5770320892333984  1.0000
  Si  Si1       1.0  0.6441372632980347  0.05578839778900147  0.147793710231781  1.0000
  Sr  Sr1       1.0  0.513389527797699  0.7077680230140686  0.364205926656723  1.0000
  Te  Te1       1.0  0.1498025357723236  0.37300679087638855  0.8685805797576905  1.0000
  Te  Te2       1.0  0.5060961842536926  0.6738264560699463  0.06862871348857885  1.0000
  Te  Te3       1.0  0.6352132558822632  0.3585905134677887  0.8614979386329651  1.0000
  Tl  Tl1       1.0  0.9939386248588562  0.6482510566711426  0.5718382596969604  1.0000
