data_image0
_chemical_formula_structural       O5Sr3Te3
_chemical_formula_sum              "O5 Sr3 Te3"
_cell_length_a       7.677159746852224
_cell_length_b       8.107749688613472
_cell_length_c       7.5996809005737305
_cell_angle_alpha    64.92786640708329
_cell_angle_beta     62.14581269555141
_cell_angle_gamma    61.58187504433469

_space_group_name_H-M_alt    "P 1"
_space_group_IT_number       1

loop_
  _space_group_symop_operation_xyz
  'x, y, z'

loop_
  _atom_site_type_symbol
  _atom_site_label
  _atom_site_symmetry_multiplicity
  _atom_site_fract_x
  _atom_site_fract_y
  _atom_site_fract_z
  _atom_site_occupancy
  O   O1        1.0  0.9977108836174011  0.8000783920288086  0.7564271092414856  1.0000
  O   O2        1.0  0.2277049571275711  0.6403516530990601  0.28307098150253296  1.0000
  O   O3        1.0  0.2479892075061798  0.28449398279190063  0.14685671031475067  1.0000
  O   O4        1.0  0.8509207963943481  0.7521185278892517  0.08063839375972748  1.0000
  O   O5        1.0  0.7634041905403137  0.44713258743286133  0.208903968334198  1.0000
  Sr  Sr1       1.0  0.2561168074607849  0.9961681962013245  0.644156813621521  1.0000
  Sr  Sr2       1.0  0.7386360764503479  0.2417059689760208  0.5866683125495911  1.0000
  Sr  Sr3       1.0  0.7497047781944275  0.7602944374084473  0.014676351100206375  1.0000
  Te  Te1       1.0  0.26436731219291687  0.9964765310287476  0.9314091205596924  1.0000
  Te  Te2       1.0  0.756416916847229  0.3577423691749573  0.9954390525817871  1.0000
  Te  Te3       1.0  0.10200563073158264  0.9272356629371643  0.5109398365020752  1.0000
