data_image0
_chemical_formula_structural       LaO4ScSrTe4
_chemical_formula_sum              "La1 O4 Sc1 Sr1 Te4"
_cell_length_a       5.293256104805787
_cell_length_b       8.000913975752244
_cell_length_c       8.136960983276367
_cell_angle_alpha    103.55098178540199
_cell_angle_beta     98.81657290397744
_cell_angle_gamma    90.85438668966658

_space_group_name_H-M_alt    "P 1"
_space_group_IT_number       1

loop_
  _space_group_symop_operation_xyz
  'x, y, z'

loop_
  _atom_site_type_symbol
  _atom_site_label
  _atom_site_symmetry_multiplicity
  _atom_site_fract_x
  _atom_site_fract_y
  _atom_site_fract_z
  _atom_site_occupancy
  La  La1       1.0  0.3002396821975708  0.6022049188613892  0.2314162403345108  1.0000
  O   O1        1.0  0.8216489553451538  0.6297897696495056  0.7952399253845215  1.0000
  O   O2        1.0  0.5173379778862  0.5306341648101807  0.584632933139801  1.0000
  O   O3        1.0  0.7339573502540588  0.5267638564109802  0.03677333891391754  1.0000
  O   O4        1.0  0.012217823415994655  0.9720373749732972  0.552347719669342  1.0000
  Sc  Sc1       1.0  0.9133203029632568  0.008130485191941261  0.29452285170555115  1.0000
  Sr  Sr1       1.0  0.30064111948013306  0.6776525974273682  0.8222303986549377  1.0000
  Te  Te1       1.0  0.7568956017494202  0.9624723196029664  0.1215225979685784  1.0000
  Te  Te2       1.0  0.7497414350509644  0.136790469288826  0.8059423565864563  1.0000
  Te  Te3       1.0  0.32692012190818787  0.16321514546871185  0.7904375791549683  1.0000
  Te  Te4       1.0  0.7714238166809082  0.6981725692749023  0.5627943873405457  1.0000
