data_image0
_chemical_formula_structural       ClF2I2LiOU2Zn2Zr
_chemical_formula_sum              "Cl1 F2 I2 Li1 O1 U2 Zn2 Zr1"
_cell_length_a       6.503962497328048
_cell_length_b       6.595814081645182
_cell_length_c       8.744077682495117
_cell_angle_alpha    86.27971998146982
_cell_angle_beta     71.20941792963801
_cell_angle_gamma    80.69277791453021

_space_group_name_H-M_alt    "P 1"
_space_group_IT_number       1

loop_
  _space_group_symop_operation_xyz
  'x, y, z'

loop_
  _atom_site_type_symbol
  _atom_site_label
  _atom_site_symmetry_multiplicity
  _atom_site_fract_x
  _atom_site_fract_y
  _atom_site_fract_z
  _atom_site_occupancy
  Cl  Cl1       1.0  0.870767056941986  0.38444143533706665  0.6537066102027893  1.0000
  F   F1        1.0  0.9510880708694457  0.40435153245925903  0.8693385720252991  1.0000
  F   F2        1.0  0.25308576226234436  0.5903609395027161  0.050570473074913025  1.0000
  I   I1        1.0  0.14132019877433777  0.12706921994686127  0.8578372001647949  1.0000
  I   I2        1.0  0.5864777565002441  0.5055234432220459  0.4032553434371948  1.0000
  Li  Li1       1.0  0.19973863661289212  0.8740019202232361  0.909863293170929  1.0000
  O   O1        1.0  0.15176953375339508  0.851138174533844  0.2980332672595978  1.0000
  U   U1        1.0  0.9265818595886229  0.013952436856925488  0.39993318915367126  1.0000
  U   U2        1.0  0.6988756656646729  0.6959831118583679  0.44242849946022034  1.0000
  Zn  Zn1       1.0  0.3065599501132965  0.7608662247657776  0.08644002676010132  1.0000
  Zn  Zn2       1.0  0.5987304449081421  0.690561056137085  0.5234709978103638  1.0000
  Zr  Zr1       1.0  0.1847185492515564  0.3030136525630951  0.9055853486061097  1.0000
