data_image0
_chemical_formula_structural       CrCsFGeSeU2VZn2Zr2
_chemical_formula_sum              "Cr1 Cs1 F1 Ge1 Se1 U2 V1 Zn2 Zr2"
_cell_length_a       6.874413417384033
_cell_length_b       6.849971497549848
_cell_length_c       7.522540092468262
_cell_angle_alpha    117.03882601019951
_cell_angle_beta     115.81815174872897
_cell_angle_gamma    95.14568138105854

_space_group_name_H-M_alt    "P 1"
_space_group_IT_number       1

loop_
  _space_group_symop_operation_xyz
  'x, y, z'

loop_
  _atom_site_type_symbol
  _atom_site_label
  _atom_site_symmetry_multiplicity
  _atom_site_fract_x
  _atom_site_fract_y
  _atom_site_fract_z
  _atom_site_occupancy
  Cr  Cr1       1.0  0.5636593699455261  0.09620166569948196  0.7078129649162292  1.0000
  Cs  Cs1       1.0  0.051651343703269965  0.810484766960144  0.8878420591354371  1.0000
  F   F1        1.0  0.6323210000991821  0.9796849489212036  0.7592395544052125  1.0000
  Ge  Ge1       1.0  0.9592911005020143  0.08949127793312073  0.5182628631591797  1.0000
  Se  Se1       1.0  0.2892696261405945  0.2613748013973236  0.5823674201965332  1.0000
  U   U1        1.0  0.28643468022346497  0.3683634400367737  0.040926061570644434  1.0000
  U   U2        1.0  0.00866677612066269  0.9080333709716797  0.6893329024314881  1.0000
  V   V1        1.0  0.4951801002025605  0.605646550655365  0.7546802759170532  1.0000
  Zn  Zn1       1.0  0.5572249889373779  0.5480437278747559  0.7106457352638246  1.0000
  Zn  Zn2       1.0  0.2830362915992737  0.3848257064819336  0.6399834156036377  1.0000
  Zr  Zr1       1.0  0.017874933779239655  0.710109293460846  0.2309308946132661  1.0000
  Zr  Zr2       1.0  0.28249576687812805  0.3044704496860504  0.5332344770431519  1.0000
