data_image0
_chemical_formula_structural       F2Na4NiO5
_chemical_formula_sum              "F2 Na4 Ni1 O5"
_cell_length_a       4.948858817411144
_cell_length_b       5.126734409730631
_cell_length_c       5.539572715759277
_cell_angle_alpha    129.28377979818544
_cell_angle_beta     84.90252650119017
_cell_angle_gamma    78.29261834506423

_space_group_name_H-M_alt    "P 1"
_space_group_IT_number       1

loop_
  _space_group_symop_operation_xyz
  'x, y, z'

loop_
  _atom_site_type_symbol
  _atom_site_label
  _atom_site_symmetry_multiplicity
  _atom_site_fract_x
  _atom_site_fract_y
  _atom_site_fract_z
  _atom_site_occupancy
  F   F1        1.0  0.6382383704185486  0.9425305128097535  0.9073076844215393  1.0000
  F   F2        1.0  0.13381499052047724  0.7949011325836183  0.8730084300041199  1.0000
  Na  Na1       1.0  0.12678340077400208  0.05019965767860413  0.924329400062561  1.0000
  Na  Na2       1.0  0.11212538927793497  0.9482871890068055  0.7223344445228577  1.0000
  Na  Na3       1.0  0.6196646094322205  0.04992271214723588  0.2534452974796295  1.0000
  Na  Na4       1.0  0.6217714548110962  0.6657552719116211  0.4631516039371491  1.0000
  Ni  Ni1       1.0  0.11121062189340591  0.7209001183509827  0.6494490504264833  1.0000
  O   O1        1.0  0.650342583656311  0.6122643351554871  0.015943782404065212  1.0000
  O   O2        1.0  0.12791338562965393  0.3355284631252289  0.1159987524151802  1.0000
  O   O3        1.0  0.5866787433624268  0.7304045557975769  0.6540055274963379  1.0000
  O   O4        1.0  0.6517047882080078  0.8864779472351075  0.15796610713005074  1.0000
  O   O5        1.0  0.15308281779289246  0.5886135697364807  0.13960242271423343  1.0000
