data_image0
_chemical_formula_structural       F4InLiOUV2ZnZr
_chemical_formula_sum              "F4 In1 Li1 O1 U1 V2 Zn1 Zr1"
_cell_length_a       5.468628154660371
_cell_length_b       3.5351739163122624
_cell_length_c       5.655259132385254
_cell_angle_alpha    57.633321507068246
_cell_angle_beta     62.178527474561065
_cell_angle_gamma    38.19758289218305

_space_group_name_H-M_alt    "P 1"
_space_group_IT_number       1

loop_
  _space_group_symop_operation_xyz
  'x, y, z'

loop_
  _atom_site_type_symbol
  _atom_site_label
  _atom_site_symmetry_multiplicity
  _atom_site_fract_x
  _atom_site_fract_y
  _atom_site_fract_z
  _atom_site_occupancy
  F   F1        1.0  0.7450290322303772  0.4201231598854065  0.1104125827550888  1.0000
  F   F2        1.0  0.429230660200119  0.9588814377784729  0.6385869383811951  1.0000
  F   F3        1.0  0.09705036133527756  0.4865565299987793  0.36896127462387085  1.0000
  F   F4        1.0  0.0781719833612442  0.8856887221336365  0.013255562633275986  1.0000
  In  In1       1.0  0.44314324855804443  0.795219898223877  0.7187670469284058  1.0000
  Li  Li1       1.0  0.2741965651512146  0.14004990458488464  0.8076526522636414  1.0000
  O   O1        1.0  0.5448038578033447  0.4827577769756317  0.17843158543109894  1.0000
  U   U1        1.0  0.8139827847480774  0.7962096333503723  0.5106252431869507  1.0000
  V   V1        1.0  0.30250877141952515  0.28009364008903503  0.6934133172035217  1.0000
  V   V2        1.0  0.8508791923522949  0.394351601600647  0.1685599833726883  1.0000
  Zn  Zn1       1.0  0.7899793982505798  0.9454236030578613  0.36129996180534363  1.0000
  Zr  Zr1       1.0  0.6686526536941528  0.03708910197019577  0.12158419191837311  1.0000
