data_image0
_chemical_formula_structural       F2Na6NiO3
_chemical_formula_sum              "F2 Na6 Ni1 O3"
_cell_length_a       5.448132041121295
_cell_length_b       6.118767667901414
_cell_length_c       6.05004358291626
_cell_angle_alpha    117.30025830086183
_cell_angle_beta     88.88150099370164
_cell_angle_gamma    88.7104397848652

_space_group_name_H-M_alt    "P 1"
_space_group_IT_number       1

loop_
  _space_group_symop_operation_xyz
  'x, y, z'

loop_
  _atom_site_type_symbol
  _atom_site_label
  _atom_site_symmetry_multiplicity
  _atom_site_fract_x
  _atom_site_fract_y
  _atom_site_fract_z
  _atom_site_occupancy
  F   F1        1.0  0.737420380115509  0.9387494325637817  0.5557969212532043  1.0000
  F   F2        1.0  0.22128911316394806  0.11332030594348907  0.8211525678634644  1.0000
  Na  Na1       1.0  0.729057788848877  0.046144839376211166  0.4057259261608124  1.0000
  Na  Na2       1.0  0.22844550013542175  0.6534507274627686  0.895540952682495  1.0000
  Na  Na3       1.0  0.7276290059089661  0.7947436571121216  0.9825071096420287  1.0000
  Na  Na4       1.0  0.7269231081008911  0.15397562086582184  0.771719217300415  1.0000
  Na  Na5       1.0  0.22863711416721344  0.923155665397644  0.9869024157524108  1.0000
  Na  Na6       1.0  0.7259607911109924  0.2240568846464157  0.8098067045211792  1.0000
  Ni  Ni1       1.0  0.2287178486585617  0.27353206276893616  0.06648152321577074  1.0000
  O   O1        1.0  0.22535337507724762  0.6762720346450806  0.12579196691513064  1.0000
  O   O2        1.0  0.21859578788280487  0.8652383089065552  0.3332147896289826  1.0000
  O   O3        1.0  0.7269508242607117  0.8552039861679077  0.8142605423927307  1.0000
