data_image0
_chemical_formula_structural       F3LiO2PbRuU2ZnZr
_chemical_formula_sum              "F3 Li1 O2 Pb1 Ru1 U2 Zn1 Zr1"
_cell_length_a       4.786419056840816
_cell_length_b       7.427589317345029
_cell_length_c       6.95906925201416
_cell_angle_alpha    125.69246662154436
_cell_angle_beta     90.72079519869654
_cell_angle_gamma    87.53755016994289

_space_group_name_H-M_alt    "P 1"
_space_group_IT_number       1

loop_
  _space_group_symop_operation_xyz
  'x, y, z'

loop_
  _atom_site_type_symbol
  _atom_site_label
  _atom_site_symmetry_multiplicity
  _atom_site_fract_x
  _atom_site_fract_y
  _atom_site_fract_z
  _atom_site_occupancy
  F   F1        1.0  0.7523614764213562  0.10801777988672255  0.48588845133781433  1.0000
  F   F2        1.0  0.7928985953330994  0.9838374853134154  0.540119469165802  1.0000
  F   F3        1.0  0.811393141746521  0.9382870793342589  0.46474128961563127  1.0000
  Li  Li1       1.0  0.8259813785552979  0.6182938814163208  0.9943268895149231  1.0000
  O   O1        1.0  0.4675092995166778  0.4689041674137115  0.947237491607666  1.0000
  O   O2        1.0  0.27207955718040466  0.2959645092487335  0.8476317524909974  1.0000
  Pb  Pb1       1.0  0.2625599801540375  0.41707834601402277  0.4350251853466034  1.0000
  Ru  Ru1       1.0  0.30307188630104065  0.31727904081344604  0.9809601902961731  1.0000
  U   U1        1.0  0.27050140500068665  0.5452649593353271  0.28011551499366755  1.0000
  U   U2        1.0  0.7694602012634277  0.6800289750099182  0.45641797780990595  1.0000
  Zn  Zn1       1.0  0.7702026963233948  0.018178816884756088  0.2558631896972656  1.0000
  Zr  Zr1       1.0  0.29417118430137634  0.4481165409088134  0.8445353507995605  1.0000
