data_image0
_chemical_formula_structural       GaPSV3
_chemical_formula_sum              "Ga1 P1 S1 V3"
_cell_length_a       4.06001385209098
_cell_length_b       5.13326115793198
_cell_length_c       5.3046875
_cell_angle_alpha    115.0012401238497
_cell_angle_beta     89.88833599636821
_cell_angle_gamma    87.41805637985327

_space_group_name_H-M_alt    "P 1"
_space_group_IT_number       1

loop_
  _space_group_symop_operation_xyz
  'x, y, z'

loop_
  _atom_site_type_symbol
  _atom_site_label
  _atom_site_symmetry_multiplicity
  _atom_site_fract_x
  _atom_site_fract_y
  _atom_site_fract_z
  _atom_site_occupancy
  Ga  Ga1       1.0  0.2673996090888977  0.1346554011106491  0.5867894887924194  1.0000
  P   P1        1.0  0.7744141817092896  0.19867753982543945  0.8213961720466614  1.0000
  S   S1        1.0  0.773396372795105  0.7208460569381714  0.8067110776901245  1.0000
  V   V1        1.0  0.26555687189102173  0.21529161930084229  0.3185513913631439  1.0000
  V   V2        1.0  0.7730189561843872  0.512286901473999  0.3044975399971008  1.0000
  V   V3        1.0  0.2670231759548187  0.5071388483047485  0.5716462731361389  1.0000
