data_image0
_chemical_formula_structural       Cl2GaV3
_chemical_formula_sum              "Cl2 Ga1 V3"
_cell_length_a       3.26693560667999
_cell_length_b       4.955187224588066
_cell_length_c       6.350512504577637
_cell_angle_alpha    88.5830296912467
_cell_angle_beta     94.92609243159328
_cell_angle_gamma    102.24302976247999

_space_group_name_H-M_alt    "P 1"
_space_group_IT_number       1

loop_
  _space_group_symop_operation_xyz
  'x, y, z'

loop_
  _atom_site_type_symbol
  _atom_site_label
  _atom_site_symmetry_multiplicity
  _atom_site_fract_x
  _atom_site_fract_y
  _atom_site_fract_z
  _atom_site_occupancy
  Cl  Cl1       1.0  0.4943835735321045  0.34934476017951965  0.5870711207389832  1.0000
  Cl  Cl2       1.0  0.01018691435456276  0.5304479598999023  0.7138109803199767  1.0000
  Ga  Ga1       1.0  0.6920450329780579  0.8724482655525208  0.21420939266681668  1.0000
  V   V1        1.0  0.5072739124298096  0.32869914174079895  0.7206783294677733  1.0000
  V   V2        1.0  0.019055452197790146  0.02173682302236557  0.7091463208198546  1.0000
  V   V3        1.0  0.13946273922920227  0.9924696087837219  0.21266803145408628  1.0000
