data_image0
_chemical_formula_structural       Ba2ClGaV2
_chemical_formula_sum              "Ba2 Cl1 Ga1 V2"
_cell_length_a       3.725872858048562
_cell_length_b       4.863642403621388
_cell_length_c       6.568008899688721
_cell_angle_alpha    95.29695416921085
_cell_angle_beta     102.9971322885649
_cell_angle_gamma    96.15818701930729

_space_group_name_H-M_alt    "P 1"
_space_group_IT_number       1

loop_
  _space_group_symop_operation_xyz
  'x, y, z'

loop_
  _atom_site_type_symbol
  _atom_site_label
  _atom_site_symmetry_multiplicity
  _atom_site_fract_x
  _atom_site_fract_y
  _atom_site_fract_z
  _atom_site_occupancy
  Ba  Ba1       1.0  0.6266494393348694  0.14961695671081543  0.10915024578571318  1.0000
  Ba  Ba2       1.0  0.26671093702316284  0.9669272899627686  0.7473317384719849  1.0000
  Cl  Cl1       1.0  0.9245335459709169  0.17787839472293854  0.3906244039535522  1.0000
  Ga  Ga1       1.0  0.5455718040466309  0.7586546540260315  0.5240258574485779  1.0000
  V   V1        1.0  0.9720720648765565  0.8034985661506653  0.07726572453975677  1.0000
  V   V2        1.0  0.4346166551113129  0.1801387220621109  0.5287107825279236  1.0000
