data_image0
_chemical_formula_structural       AlHO9P3PrZn2
_chemical_formula_sum              "Al1 H1 O9 P3 Pr1 Zn2"
_cell_length_a       5.143519813192571
_cell_length_b       7.629340803139392
_cell_length_c       8.118343353271484
_cell_angle_alpha    105.34524075983198
_cell_angle_beta     89.30224488343245
_cell_angle_gamma    89.2070324257076

_space_group_name_H-M_alt    "P 1"
_space_group_IT_number       1

loop_
  _space_group_symop_operation_xyz
  'x, y, z'

loop_
  _atom_site_type_symbol
  _atom_site_label
  _atom_site_symmetry_multiplicity
  _atom_site_fract_x
  _atom_site_fract_y
  _atom_site_fract_z
  _atom_site_occupancy
  Al  Al1       1.0  0.48109203577041626  0.2770843803882599  0.4944462776184082  1.0000
  H   H1        1.0  0.026147814467549324  0.7229088544845581  0.7749260067939758  1.0000
  O   O1        1.0  0.7572933435440063  0.9441593885421753  0.5797304511070251  1.0000
  O   O2        1.0  0.5293914079666138  0.4617812931537628  0.5957264304161072  1.0000
  O   O3        1.0  0.5026640892028809  0.9905215501785278  0.06886515766382217  1.0000
  O   O4        1.0  0.9963507652282715  0.8993628025054932  0.08401475101709369  1.0000
  O   O5        1.0  0.979901909828186  0.3286832869052887  0.7244512438774109  1.0000
  O   O6        1.0  0.2535591423511505  0.9601191282272339  0.4367811977863312  1.0000
  O   O7        1.0  0.525065541267395  0.3937931954860687  0.3105248212814331  1.0000
  O   O8        1.0  0.034411653876304626  0.13941225409507751  0.8338944911956787  1.0000
  O   O9        1.0  0.5160570740699768  0.11143505573272705  0.8360247611999512  1.0000
  P   P1        1.0  0.30083125829696655  0.5376257300376892  0.05137370154261589  1.0000
  P   P2        1.0  0.7373044490814209  0.7565313577651978  0.5585275888442993  1.0000
  P   P3        1.0  0.032817862927913666  0.056549981236457825  0.9397023320198059  1.0000
  Pr  Pr1       1.0  0.024411045014858246  0.3349660634994507  0.7786668539047241  1.0000
  Zn  Zn1       1.0  0.4519837498664856  0.004289270844310522  0.28019189834594727  1.0000
  Zn  Zn2       1.0  0.9650217294692993  0.9438223838806152  0.049137555062770844  1.0000
