data_image0
_chemical_formula_structural       HO9P2Pr2Zn3
_chemical_formula_sum              "H1 O9 P2 Pr2 Zn3"
_cell_length_a       6.459074594556654
_cell_length_b       6.48679082958151
_cell_length_c       6.75098991394043
_cell_angle_alpha    61.91798661102472
_cell_angle_beta     61.90791566144298
_cell_angle_gamma    62.12000940560913

_space_group_name_H-M_alt    "P 1"
_space_group_IT_number       1

loop_
  _space_group_symop_operation_xyz
  'x, y, z'

loop_
  _atom_site_type_symbol
  _atom_site_label
  _atom_site_symmetry_multiplicity
  _atom_site_fract_x
  _atom_site_fract_y
  _atom_site_fract_z
  _atom_site_occupancy
  H   H1        1.0  0.2605760395526886  0.01915421150624752  0.3207418620586395  1.0000
  O   O1        1.0  0.5868320465087891  0.8710438013076782  0.2937281131744385  1.0000
  O   O2        1.0  0.7861688733100891  0.4910047650337219  0.4686740040779114  1.0000
  O   O3        1.0  0.8713382482528687  0.7431545257568359  0.9500974416732788  1.0000
  O   O4        1.0  0.6296543478965759  0.6952759027481079  0.11019380390644073  1.0000
  O   O5        1.0  0.27281656861305237  0.0036076935939490795  0.4003053605556488  1.0000
  O   O6        1.0  0.325626939535141  0.9587356448173523  0.64581698179245  1.0000
  O   O7        1.0  0.8738505840301514  0.1018747091293335  0.255321741104126  1.0000
  O   O8        1.0  0.8041239380836487  0.48820728063583374  0.9271737933158875  1.0000
  O   O9        1.0  0.3643880784511566  0.9822902679443359  0.09861767292022705  1.0000
  P   P1        1.0  0.5270004272460938  0.8177587389945984  0.2949655055999756  1.0000
  P   P2        1.0  0.740944504737854  0.47160646319389343  0.77263343334198  1.0000
  Pr  Pr1       1.0  0.2318178415298462  0.7454417943954468  0.8778964281082153  1.0000
  Pr  Pr2       1.0  0.35025539994239807  0.4895516335964203  0.4570971727371216  1.0000
  Zn  Zn1       1.0  0.5221821665763855  0.3666229844093323  0.48078465461730957  1.0000
  Zn  Zn2       1.0  0.5400664806365967  0.21797528862953186  0.21228735148906708  1.0000
  Zn  Zn3       1.0  0.01884686015546322  0.8864150643348694  0.24656847119331365  1.0000
