data_image0
_chemical_formula_structural       H3O6P2PrZn5
_chemical_formula_sum              "H3 O6 P2 Pr1 Zn5"
_cell_length_a       4.837709136634209
_cell_length_b       6.119548560587706
_cell_length_c       9.017718315124512
_cell_angle_alpha    89.30122342833084
_cell_angle_beta     88.79856221009021
_cell_angle_gamma    89.42499454134014

_space_group_name_H-M_alt    "P 1"
_space_group_IT_number       1

loop_
  _space_group_symop_operation_xyz
  'x, y, z'

loop_
  _atom_site_type_symbol
  _atom_site_label
  _atom_site_symmetry_multiplicity
  _atom_site_fract_x
  _atom_site_fract_y
  _atom_site_fract_z
  _atom_site_occupancy
  H   H1        1.0  0.42947572469711304  0.09030073136091232  0.05520119145512581  1.0000
  H   H2        1.0  0.7185744643211365  0.36335378885269165  0.6791054606437683  1.0000
  H   H3        1.0  0.4094089865684509  0.17159301042556763  0.5620299577713013  1.0000
  O   O1        1.0  0.7161750197410583  0.03340185061097145  0.9545718431472778  1.0000
  O   O2        1.0  0.7090327739715576  0.3689209520816803  0.8828108906745911  1.0000
  O   O3        1.0  0.9526590704917908  0.8634340167045593  0.6749477982521057  1.0000
  O   O4        1.0  0.9123684167861938  0.5617218613624573  0.5755813717842102  1.0000
  O   O5        1.0  0.3434494733810425  0.2146073579788208  0.36062103509902954  1.0000
  O   O6        1.0  0.058013711124658585  0.7257974147796631  0.27036115527153015  1.0000
  P   P1        1.0  0.9175521731376648  0.6146040558815002  0.2187105119228363  1.0000
  P   P2        1.0  0.9168828725814819  0.06216392666101456  0.6074539422988892  1.0000
  Pr  Pr1       1.0  0.9235462546348572  0.5575894117355347  0.27903303503990173  1.0000
  Zn  Zn1       1.0  0.4285438060760498  0.7435207962989807  0.5545591711997986  1.0000
  Zn  Zn2       1.0  0.9232949614524841  0.55122971534729  0.2251528650522232  1.0000
  Zn  Zn3       1.0  0.6811715960502625  0.6263998746871948  0.7773589491844177  1.0000
  Zn  Zn4       1.0  0.13917922973632812  0.9810753464698792  0.5384493470191956  1.0000
  Zn  Zn5       1.0  0.437481164932251  0.27619126439094543  0.03607972711324692  1.0000
