data_image0
_chemical_formula_structural       H5O8P2SeZn
_chemical_formula_sum              "H5 O8 P2 Se1 Zn1"
_cell_length_a       5.36727733017816
_cell_length_b       6.542440428486005
_cell_length_c       6.805315971374512
_cell_angle_alpha    91.15263007026188
_cell_angle_beta     89.97155093011985
_cell_angle_gamma    88.90717323972892

_space_group_name_H-M_alt    "P 1"
_space_group_IT_number       1

loop_
  _space_group_symop_operation_xyz
  'x, y, z'

loop_
  _atom_site_type_symbol
  _atom_site_label
  _atom_site_symmetry_multiplicity
  _atom_site_fract_x
  _atom_site_fract_y
  _atom_site_fract_z
  _atom_site_occupancy
  H   H1        1.0  0.6864172220230103  0.9709334373474121  0.1884424388408661  1.0000
  H   H2        1.0  0.7111038565635681  0.7523649334907532  0.9042748808860779  1.0000
  H   H3        1.0  0.0462469682097435  0.10921777039766312  0.33983874320983887  1.0000
  H   H4        1.0  0.04671220853924751  0.5854218602180481  0.8881775140762329  1.0000
  H   H5        1.0  0.14266596734523773  0.5588746070861816  0.3368580639362335  1.0000
  O   O1        1.0  0.31565389037132263  0.9963573217391968  0.7034822106361389  1.0000
  O   O2        1.0  0.6840335130691528  0.09600304067134857  0.36517247557640076  1.0000
  O   O3        1.0  0.9875121712684631  0.23872721195220947  0.33006447553634644  1.0000
  O   O4        1.0  0.8913925290107727  0.5545758605003357  0.6814567446708679  1.0000
  O   O5        1.0  0.19744378328323364  0.8597339987754822  0.0971711128950119  1.0000
  O   O6        1.0  0.4302976131439209  0.02395332045853138  0.4470789134502411  1.0000
  O   O7        1.0  0.3077893853187561  0.7423510551452637  0.3524063229560852  1.0000
  O   O8        1.0  0.6484988927841187  0.5628907680511475  0.8422064185142517  1.0000
  P   P1        1.0  0.15221211314201355  0.048153892159461975  0.1778542548418045  1.0000
  P   P2        1.0  0.45602545142173767  0.45835861563682556  0.6071646809577942  1.0000
  Se  Se1       1.0  0.5306355357170105  0.45416948199272156  0.03737945109605789  1.0000
  Zn  Zn1       1.0  0.8565605282783508  0.20661047101020813  0.6385552287101746  1.0000
