data_image0
_chemical_formula_structural       H3O9P2RbTeZn
_chemical_formula_sum              "H3 O9 P2 Rb1 Te1 Zn1"
_cell_length_a       5.984504958797575
_cell_length_b       7.839168533830761
_cell_length_c       8.008209228515625
_cell_angle_alpha    117.75964805417259
_cell_angle_beta     89.10752145515502
_cell_angle_gamma    89.61957429213416

_space_group_name_H-M_alt    "P 1"
_space_group_IT_number       1

loop_
  _space_group_symop_operation_xyz
  'x, y, z'

loop_
  _atom_site_type_symbol
  _atom_site_label
  _atom_site_symmetry_multiplicity
  _atom_site_fract_x
  _atom_site_fract_y
  _atom_site_fract_z
  _atom_site_occupancy
  H   H1        1.0  0.9946589469909668  0.533205509185791  0.8907576203346252  1.0000
  H   H2        1.0  0.4193733036518097  0.5074675679206848  0.6200493574142456  1.0000
  H   H3        1.0  0.5707414150238037  0.8148386478424071  0.25339493155479426  1.0000
  O   O1        1.0  0.6087914705276489  0.9531561732292174  0.7845450639724731  1.0000
  O   O2        1.0  0.2820014953613281  0.8053991198539733  0.6990098357200623  1.0000
  O   O3        1.0  0.3023505210876465  0.02231373824179172  0.45281219482421875  1.0000
  O   O4        1.0  0.3278863728046417  0.08071614801883696  0.13149937987327576  1.0000
  O   O5        1.0  0.7710415720939637  0.3359042108058929  0.3319268226623535  1.0000
  O   O6        1.0  0.0774778500199318  0.02876736596226692  0.2825210988521576  1.0000
  O   O7        1.0  0.12662898004055023  0.2668992280960083  0.3749632239341736  1.0000
  O   O8        1.0  0.7784218192100525  0.719385802745819  0.35892933607101435  1.0000
  O   O9        1.0  0.07255776971578598  0.4003330767154693  0.8543862104415894  1.0000
  P   P1        1.0  0.8552076816558838  0.11250162124633788  0.5054152011871338  1.0000
  P   P2        1.0  0.19090239703655243  0.0799986571073532  0.6880315542221069  1.0000
  Rb  Rb1       1.0  0.5032920241355896  0.6044144034385681  0.9877693057060242  1.0000
  Te  Te1       1.0  0.9652999043464661  0.11982037872076033  0.22393999993801117  1.0000
  Zn  Zn1       1.0  0.5191329717636108  0.3771637082099914  0.8534908890724182  1.0000
