data_image0
_chemical_formula_structural       H3O9PZn4
_chemical_formula_sum              "H3 O9 P1 Zn4"
_cell_length_a       4.408520493941947
_cell_length_b       7.236598286438422
_cell_length_c       8.00606918334961
_cell_angle_alpha    89.91287202428381
_cell_angle_beta     90.3376838638389
_cell_angle_gamma    90.67993144913177

_space_group_name_H-M_alt    "P 1"
_space_group_IT_number       1

loop_
  _space_group_symop_operation_xyz
  'x, y, z'

loop_
  _atom_site_type_symbol
  _atom_site_label
  _atom_site_symmetry_multiplicity
  _atom_site_fract_x
  _atom_site_fract_y
  _atom_site_fract_z
  _atom_site_occupancy
  H   H1        1.0  0.7251638770103455  0.6647381782531738  0.5055096745491028  1.0000
  H   H2        1.0  0.41202685236930847  0.9348747730255127  0.43694034218788147  1.0000
  H   H3        1.0  0.22839798033237457  0.6724286079406738  0.5862962007522583  1.0000
  O   O1        1.0  0.3967961072921753  0.7517614364624023  0.3568955957889557  1.0000
  O   O2        1.0  0.4454019069671631  0.35929635167121887  0.2703109681606293  1.0000
  O   O3        1.0  0.9386447072029114  0.9379259943962097  0.8319256901741028  1.0000
  O   O4        1.0  0.13247652351856232  0.6617503762245178  0.7944524884223938  1.0000
  O   O5        1.0  0.07719217985868454  0.2503949701786041  0.5968560576438904  1.0000
  O   O6        1.0  0.20047655701637268  0.055331360548734665  0.10049676895141602  1.0000
  O   O7        1.0  0.7359133362770081  0.6833677887916565  0.09959131479263306  1.0000
  O   O8        1.0  0.6599069237709045  0.09914585947990417  0.8595609664916992  1.0000
  O   O9        1.0  0.4228006899356842  0.35097214579582214  0.5654330849647522  1.0000
  P   P1        1.0  0.863161563873291  0.4464249908924103  0.8746421933174133  1.0000
  Zn  Zn1       1.0  0.8912100791931152  0.9971767067909241  0.5984905958175659  1.0000
  Zn  Zn2       1.0  0.0009096860885620117  0.7017324566841125  0.08040786534547806  1.0000
  Zn  Zn3       1.0  0.5059483647346497  0.6963348388671875  0.4966777563095093  1.0000
  Zn  Zn4       1.0  0.3792261779308319  0.42773085832595825  0.8622392416000366  1.0000
