data_image0
_chemical_formula_structural       Ba5LaO7Sb
_chemical_formula_sum              "Ba5 La1 O7 Sb1"
_cell_length_a       6.575911244850717
_cell_length_b       7.259786842718233
_cell_length_c       7.901782035827637
_cell_angle_alpha    67.97281170149638
_cell_angle_beta     66.28151739227262
_cell_angle_gamma    62.9031580521947

_space_group_name_H-M_alt    "P 1"
_space_group_IT_number       1

loop_
  _space_group_symop_operation_xyz
  'x, y, z'

loop_
  _atom_site_type_symbol
  _atom_site_label
  _atom_site_symmetry_multiplicity
  _atom_site_fract_x
  _atom_site_fract_y
  _atom_site_fract_z
  _atom_site_occupancy
  Ba  Ba1       1.0  0.6931206583976746  0.17030669748783112  0.7536197304725648  1.0000
  Ba  Ba2       1.0  0.1882883906364441  0.8882615566253662  0.14223389327526093  1.0000
  Ba  Ba3       1.0  0.6795691251754761  0.39281517267227173  0.6383512616157533  1.0000
  Ba  Ba4       1.0  0.03045141138136387  0.2550491690635681  0.5350875854492188  1.0000
  Ba  Ba5       1.0  0.2886122465133667  0.8809794783592224  0.5521185994148254  1.0000
  La  La1       1.0  0.7220512628555298  0.9108585715293884  0.9992023110389711  1.0000
  O   O1        1.0  0.29375532269477844  0.6791423559188843  0.03679765015840531  1.0000
  O   O2        1.0  0.05740372836589813  0.21324405074119568  0.74285227060318  1.0000
  O   O3        1.0  0.5407553315162659  0.7235173583030701  0.27753859758377075  1.0000
  O   O4        1.0  0.1860213726758957  0.6686062216758728  0.28158536553382874  1.0000
  O   O5        1.0  0.0042192935943603516  0.22921748459339142  0.7385373115539552  1.0000
  O   O6        1.0  0.5754421353340149  0.6472936272621155  0.7848766446113588  1.0000
  O   O7        1.0  0.5200406908988953  0.0966460183262825  0.5753047466278077  1.0000
  Sb  Sb1       1.0  0.6759542226791382  0.40821367502212524  0.006493062712252141  1.0000
