data_image0
_chemical_formula_structural       BBa3O7Sb2Se
_chemical_formula_sum              "B1 Ba3 O7 Sb2 Se1"
_cell_length_a       6.727618002094289
_cell_length_b       7.030287684536721
_cell_length_c       6.9055681228637695
_cell_angle_alpha    63.305163076187505
_cell_angle_beta     62.03206425935785
_cell_angle_gamma    61.5437476848846

_space_group_name_H-M_alt    "P 1"
_space_group_IT_number       1

loop_
  _space_group_symop_operation_xyz
  'x, y, z'

loop_
  _atom_site_type_symbol
  _atom_site_label
  _atom_site_symmetry_multiplicity
  _atom_site_fract_x
  _atom_site_fract_y
  _atom_site_fract_z
  _atom_site_occupancy
  B   B1        1.0  0.7800843715667725  0.3730432391166687  0.07355817407369614  1.0000
  Ba  Ba1       1.0  0.13527768850326538  0.5946743488311768  0.47285667061805725  1.0000
  Ba  Ba2       1.0  0.10015565901994705  0.04485636204481125  0.1735047549009323  1.0000
  Ba  Ba3       1.0  0.12659645080566406  0.3358820080757141  0.7143140435218811  1.0000
  O   O1        1.0  0.9636491537094116  0.7079973816871643  0.4500505328178406  1.0000
  O   O2        1.0  0.7119285464286804  0.6619787812232971  0.7679588794708252  1.0000
  O   O3        1.0  0.38397732377052307  0.34729811549186707  0.8122056126594543  1.0000
  O   O4        1.0  0.09818070381879807  0.5898016095161438  0.21143242716789246  1.0000
  O   O5        1.0  0.46523523330688477  0.20098334550857544  0.6418910622596741  1.0000
  O   O6        1.0  0.9653244018554688  0.6911239624023438  0.9393746256828308  1.0000
  O   O7        1.0  0.6534023284912109  0.9086450934410095  0.6010639071464539  1.0000
  Sb  Sb1       1.0  0.4702198803424835  0.9333135485649109  0.09330981224775314  1.0000
  Sb  Sb2       1.0  0.34650421142578125  0.851681113243103  0.9636333584785461  1.0000
  Se  Se1       1.0  0.8277238011360168  0.33477726578712463  0.2845012843608856  1.0000
