data_image0
_chemical_formula_structural       BBa2O8Sb3
_chemical_formula_sum              "B1 Ba2 O8 Sb3"
_cell_length_a       6.067014892987511
_cell_length_b       6.72352794955518
_cell_length_c       8.096514701843262
_cell_angle_alpha    105.8807989384399
_cell_angle_beta     108.83117523350171
_cell_angle_gamma    99.31447912399366

_space_group_name_H-M_alt    "P 1"
_space_group_IT_number       1

loop_
  _space_group_symop_operation_xyz
  'x, y, z'

loop_
  _atom_site_type_symbol
  _atom_site_label
  _atom_site_symmetry_multiplicity
  _atom_site_fract_x
  _atom_site_fract_y
  _atom_site_fract_z
  _atom_site_occupancy
  B   B1        1.0  0.6113295555114746  0.25665926933288574  0.7622592449188232  1.0000
  Ba  Ba1       1.0  0.32229745388031006  0.02818908356130123  0.044464938342571245  1.0000
  Ba  Ba2       1.0  0.8399331569671631  0.0854494646191597  0.22115053236484528  1.0000
  O   O1        1.0  0.8661118745803833  0.510339617729187  0.9964606165885925  1.0000
  O   O2        1.0  0.8612746000289917  0.2815519869327545  0.01661430113017559  1.0000
  O   O3        1.0  0.2663695514202118  0.4898754358291626  0.8534218072891235  1.0000
  O   O4        1.0  0.07404158264398575  0.4096045196056366  0.6927876472473145  1.0000
  O   O5        1.0  0.5747219920158386  0.9027470350265503  0.7169809937477112  1.0000
  O   O6        1.0  0.181832417845726  0.26930639147758484  0.20466817915439606  1.0000
  O   O7        1.0  0.981305718421936  0.6664295792579651  0.5719410181045532  1.0000
  O   O8        1.0  0.8887373805046082  0.30729934573173523  0.5053572654724121  1.0000
  Sb  Sb1       1.0  0.25968560576438904  0.9880688786506653  0.8383095264434814  1.0000
  Sb  Sb2       1.0  0.5105106830596924  0.9020718932151794  0.4174741208553314  1.0000
  Sb  Sb3       1.0  0.4858558475971222  0.6781493425369263  0.5410020351409912  1.0000
