data_image0
_chemical_formula_structural       O7Sb7
_chemical_formula_sum              "O7 Sb7"
_cell_length_a       5.841785029037121
_cell_length_b       7.1923432476824125
_cell_length_c       8.570497512817383
_cell_angle_alpha    106.07864900163057
_cell_angle_beta     88.1496385957867
_cell_angle_gamma    89.29067395263385

_space_group_name_H-M_alt    "P 1"
_space_group_IT_number       1

loop_
  _space_group_symop_operation_xyz
  'x, y, z'

loop_
  _atom_site_type_symbol
  _atom_site_label
  _atom_site_symmetry_multiplicity
  _atom_site_fract_x
  _atom_site_fract_y
  _atom_site_fract_z
  _atom_site_occupancy
  O   O1        1.0  0.25903627276420593  0.48548153042793274  0.13018475472927094  1.0000
  O   O2        1.0  0.08124944567680359  0.4993537366390228  0.4955226182937622  1.0000
  O   O3        1.0  0.5973209738731384  0.4197274446487427  0.8689097166061401  1.0000
  O   O4        1.0  0.6270731687545776  0.8490642309188843  0.11282610893249512  1.0000
  O   O5        1.0  0.76243656873703  0.47664526104927063  0.8125885725021362  1.0000
  O   O6        1.0  0.25660067796707153  0.9156606793403625  0.4955514371395111  1.0000
  O   O7        1.0  0.26747143268585205  0.9750202894210815  0.4612882137298584  1.0000
  Sb  Sb1       1.0  0.7590587735176086  0.38413774967193604  0.5313181281089783  1.0000
  Sb  Sb2       1.0  0.25130853056907654  0.46268054842948914  0.22376100718975067  1.0000
  Sb  Sb3       1.0  0.0795232504606247  0.8583112955093384  0.02527431771159172  1.0000
  Sb  Sb4       1.0  0.09012731164693832  0.1510625183582306  0.03158605098724365  1.0000
  Sb  Sb5       1.0  0.5999644994735718  0.3281068801879883  0.0469515435397625  1.0000
  Sb  Sb6       1.0  0.11363401263952255  0.4907446503639221  0.19692379236221313  1.0000
  Sb  Sb7       1.0  0.6033716797828674  0.6195539832115173  0.6482682228088379  1.0000
