data_image0
_chemical_formula_structural       Bi2O6Sb6
_chemical_formula_sum              "Bi2 O6 Sb6"
_cell_length_a       5.470156613954354
_cell_length_b       6.428422961829919
_cell_length_c       10.947259902954102
_cell_angle_alpha    99.15134157097239
_cell_angle_beta     89.14078456635656
_cell_angle_gamma    88.55396244422909

_space_group_name_H-M_alt    "P 1"
_space_group_IT_number       1

loop_
  _space_group_symop_operation_xyz
  'x, y, z'

loop_
  _atom_site_type_symbol
  _atom_site_label
  _atom_site_symmetry_multiplicity
  _atom_site_fract_x
  _atom_site_fract_y
  _atom_site_fract_z
  _atom_site_occupancy
  Bi  Bi1       1.0  0.7616807222366333  0.3786722719669342  0.44738987088203436  1.0000
  Bi  Bi2       1.0  0.28211042284965515  0.8862000703811646  0.5047244429588318  1.0000
  O   O1        1.0  0.5100418329238892  0.08320348709821701  0.4077477753162384  1.0000
  O   O2        1.0  0.5260137319564819  0.6526087522506714  0.2805502414703369  1.0000
  O   O3        1.0  0.016233112663030624  0.6731055974960327  0.9058765172958375  1.0000
  O   O4        1.0  0.30719226598739624  0.8809152841567993  0.43569338321685797  1.0000
  O   O5        1.0  0.09868256002664566  0.4377036690711975  0.13570518791675568  1.0000
  O   O6        1.0  0.977645993232727  0.21619269251823425  0.7768614888191223  1.0000
  Sb  Sb1       1.0  0.0004625751171261072  0.5706619620323181  0.048155538737773895  1.0000
  Sb  Sb2       1.0  0.7378048896789551  0.0045427302829921246  0.7096685171127319  1.0000
  Sb  Sb3       1.0  0.47725656628608704  0.393899142742157  0.39214998483657837  1.0000
  Sb  Sb4       1.0  0.21882130205631256  0.883841872215271  0.8965376615524293  1.0000
  Sb  Sb5       1.0  0.4695693552494049  0.20225928723812103  0.9129596948623658  1.0000
  Sb  Sb6       1.0  0.9710928201675415  0.23997485637664795  0.4693335890769959  1.0000
