data_image0
_chemical_formula_structural       BBa2O7Sb4
_chemical_formula_sum              "B1 Ba2 O7 Sb4"
_cell_length_a       7.397343806501562
_cell_length_b       7.820801099448693
_cell_length_c       7.811963081359863
_cell_angle_alpha    106.25177200222802
_cell_angle_beta     111.04703734007636
_cell_angle_gamma    108.4885272160636

_space_group_name_H-M_alt    "P 1"
_space_group_IT_number       1

loop_
  _space_group_symop_operation_xyz
  'x, y, z'

loop_
  _atom_site_type_symbol
  _atom_site_label
  _atom_site_symmetry_multiplicity
  _atom_site_fract_x
  _atom_site_fract_y
  _atom_site_fract_z
  _atom_site_occupancy
  B   B1        1.0  0.8346418142318726  0.15671886503696442  0.9312889575958252  1.0000
  Ba  Ba1       1.0  0.03520505130290985  0.9824915528297424  0.6310781240463257  1.0000
  Ba  Ba2       1.0  0.49566909670829773  0.6466730833053589  0.4758870601654053  1.0000
  O   O1        1.0  0.9938787817955017  0.0832006186246872  0.8578765392303467  1.0000
  O   O2        1.0  0.8768864274024963  0.6565765142440796  0.27642229199409485  1.0000
  O   O3        1.0  0.2981871962547302  0.8897039294242859  0.3889517784118652  1.0000
  O   O4        1.0  0.49209773540496826  0.629855215549469  0.8875328302383423  1.0000
  O   O5        1.0  0.5727227330207825  0.13506492972373962  0.9166236519813538  1.0000
  O   O6        1.0  0.9939110279083252  0.16544170677661896  0.41683080792427063  1.0000
  O   O7        1.0  0.8151069283485413  0.33152660727500916  0.9538262486457825  1.0000
  Sb  Sb1       1.0  0.5100938081741333  0.6485623717308044  0.5717108845710754  1.0000
  Sb  Sb2       1.0  0.21380650997161865  0.36453768610954285  0.5871697068214417  1.0000
  Sb  Sb3       1.0  0.18656951189041138  0.545975923538208  0.13061861693859098  1.0000
  Sb  Sb4       1.0  0.07189474254846573  0.8885283470153809  0.0847155600786208  1.0000
