data_image0
_chemical_formula_structural       ClCs2H3NNaNiScSi2Zn2
_chemical_formula_sum              "Cl1 Cs2 H3 N1 Na1 Ni1 Sc1 Si2 Zn2"
_cell_length_a       6.129089091712861
_cell_length_b       6.917135789802336
_cell_length_c       7.081048011779785
_cell_angle_alpha    69.63550538100333
_cell_angle_beta     64.43742315980617
_cell_angle_gamma    65.59123579386736

_space_group_name_H-M_alt    "P 1"
_space_group_IT_number       1

loop_
  _space_group_symop_operation_xyz
  'x, y, z'

loop_
  _atom_site_type_symbol
  _atom_site_label
  _atom_site_symmetry_multiplicity
  _atom_site_fract_x
  _atom_site_fract_y
  _atom_site_fract_z
  _atom_site_occupancy
  Cl  Cl1       1.0  0.8949536681175232  0.24897335469722748  0.6657867431640625  1.0000
  Cs  Cs1       1.0  0.9731363654136658  0.8808228373527527  0.7625133991241455  1.0000
  Cs  Cs2       1.0  0.5896269083023071  0.9335978031158447  0.2923725247383118  1.0000
  H   H1        1.0  0.29999685287475586  0.15073372423648834  0.8518484234809875  1.0000
  H   H2        1.0  0.04813406616449356  0.8010542988777161  0.09868060052394867  1.0000
  H   H3        1.0  0.05110601335763931  0.5813035368919373  0.1002420708537102  1.0000
  N   N1        1.0  0.5598928928375244  0.6508777737617493  0.24535229802131658  1.0000
  Na  Na1       1.0  0.4045513868331909  0.9051056504249573  0.15006862580776215  1.0000
  Ni  Ni1       1.0  0.40449726581573486  0.21074263751506805  0.8040242791175842  1.0000
  Sc  Sc1       1.0  0.7043941617012024  0.48501157760620117  0.6094943284988403  1.0000
  Si  Si1       1.0  0.15950195491313934  0.39277133345603943  0.46731993556022644  1.0000
  Si  Si2       1.0  0.2993806302547455  0.9568348526954651  0.3549803495407105  1.0000
  Zn  Zn1       1.0  0.9209326505661011  0.8491916656494141  0.9310128092765808  1.0000
  Zn  Zn2       1.0  0.29540735483169556  0.2531934678554535  0.6098244786262512  1.0000
