data_image0
_chemical_formula_structural       AsCCsH3Mn2NaU4Zn
_chemical_formula_sum              "As1 C1 Cs1 H3 Mn2 Na1 U4 Zn1"
_cell_length_a       6.4674624494409665
_cell_length_b       6.386628288576154
_cell_length_c       6.718979835510254
_cell_angle_alpha    64.45194137598237
_cell_angle_beta     67.54478508215156
_cell_angle_gamma    66.36212917579402

_space_group_name_H-M_alt    "P 1"
_space_group_IT_number       1

loop_
  _space_group_symop_operation_xyz
  'x, y, z'

loop_
  _atom_site_type_symbol
  _atom_site_label
  _atom_site_symmetry_multiplicity
  _atom_site_fract_x
  _atom_site_fract_y
  _atom_site_fract_z
  _atom_site_occupancy
  As  As1       1.0  0.14358606934547424  0.6755003333091736  0.000903301464859388  1.0000
  C   C1        1.0  0.8167015910148621  0.04486400634050369  0.8815014958381653  1.0000
  Cs  Cs1       1.0  0.7281080484390259  0.819409966468811  0.5634043216705322  1.0000
  H   H1        1.0  0.5096161961555481  0.6403437852859497  0.24448253214359283  1.0000
  H   H2        1.0  0.9396471381187439  0.3455938994884491  0.9586336612701416  1.0000
  H   H3        1.0  0.8580081462860107  0.41278761625289917  0.7569567561149597  1.0000
  Mn  Mn1       1.0  0.9521690011024475  0.3279381990432739  0.7870679497718811  1.0000
  Mn  Mn2       1.0  0.4590756893157959  0.32694998383522034  0.42337092757225037  1.0000
  Na  Na1       1.0  0.8186507821083069  0.5399007201194763  0.8778569102287292  1.0000
  U   U1        1.0  0.45649611949920654  0.36394092440605164  0.4774344563484192  1.0000
  U   U2        1.0  0.2217153012752533  0.8368354439735413  0.0810985341668129  1.0000
  U   U3        1.0  0.7488386034965515  0.31376248598098755  0.977831244468689  1.0000
  U   U4        1.0  0.16536079347133636  0.8457261919975281  0.45868590474128723  1.0000
  Zn  Zn1       1.0  0.1839277595281601  0.4070846736431122  0.9639306664466858  1.0000
