data_image0
_chemical_formula_structural       AlAsBH4MoNaNbScSiUZn
_chemical_formula_sum              "Al1 As1 B1 H4 Mo1 Na1 Nb1 Sc1 Si1 U1 Zn1"
_cell_length_a       5.563598384939511
_cell_length_b       6.138017183796022
_cell_length_c       6.325711250305176
_cell_angle_alpha    70.66984050481072
_cell_angle_beta     65.88127245697713
_cell_angle_gamma    65.51598906140505

_space_group_name_H-M_alt    "P 1"
_space_group_IT_number       1

loop_
  _space_group_symop_operation_xyz
  'x, y, z'

loop_
  _atom_site_type_symbol
  _atom_site_label
  _atom_site_symmetry_multiplicity
  _atom_site_fract_x
  _atom_site_fract_y
  _atom_site_fract_z
  _atom_site_occupancy
  Al  Al1       1.0  0.8583756685256958  0.45831403136253357  0.4591086208820343  1.0000
  As  As1       1.0  0.860806941986084  0.23798274993896482  0.7789297103881836  1.0000
  B   B1        1.0  0.05891219526529313  0.24121391773223874  0.9228942394256592  1.0000
  H   H1        1.0  0.540412425994873  0.7494059801101685  0.4737156629562378  1.0000
  H   H2        1.0  0.07987543940544128  0.5029619932174683  0.11348669230937958  1.0000
  H   H3        1.0  0.20644627511501312  0.6751453280448914  0.13006763160228732  1.0000
  H   H4        1.0  0.7112269401550293  0.16047851741313934  0.5674819350242615  1.0000
  Mo  Mo1       1.0  0.1050824299454689  0.7426382303237915  0.20471630990505219  1.0000
  Na  Na1       1.0  0.6539049744606018  0.26468321681022644  0.9696002006530762  1.0000
  Nb  Nb1       1.0  0.39685794711112976  0.7086132168769836  0.7061399221420288  1.0000
  Sc  Sc1       1.0  0.582338809967041  0.7504550218582153  0.22380755841732025  1.0000
  Si  Si1       1.0  0.9008054137229919  0.09917619079351425  0.2523703873157501  1.0000
  U   U1        1.0  0.39840638637542725  0.11270298808813095  0.1768459528684616  1.0000
  Zn  Zn1       1.0  0.7847625613212585  0.9564887881278991  0.3396797478199005  1.0000
