data_image0
_chemical_formula_structural       As3CsFeHgNa2NiOs4U
_chemical_formula_sum              "As3 Cs1 Fe1 Hg1 Na2 Ni1 Os4 U1"
_cell_length_a       7.134690430147233
_cell_length_b       7.299986837299771
_cell_length_c       7.391234397888184
_cell_angle_alpha    107.93638984569793
_cell_angle_beta     105.55862480072422
_cell_angle_gamma    111.92605622320708

_space_group_name_H-M_alt    "P 1"
_space_group_IT_number       1

loop_
  _space_group_symop_operation_xyz
  'x, y, z'

loop_
  _atom_site_type_symbol
  _atom_site_label
  _atom_site_symmetry_multiplicity
  _atom_site_fract_x
  _atom_site_fract_y
  _atom_site_fract_z
  _atom_site_occupancy
  As  As1       1.0  0.667125940322876  0.566525399684906  0.31358945369720453  1.0000
  As  As2       1.0  0.09060374647378922  0.5479527711868286  0.8281391263008118  1.0000
  As  As3       1.0  0.4119948744773865  0.9458597302436829  0.5752450227737426  1.0000
  Cs  Cs1       1.0  0.2217228263616562  0.7360637784004211  0.9627646207809448  1.0000
  Fe  Fe1       1.0  0.4238132834434509  0.5771276354789734  0.6569758653640747  1.0000
  Hg  Hg1       1.0  0.40865358710289  0.41084641218185425  0.67731773853302  1.0000
  Na  Na1       1.0  0.6910311579704285  0.8803901672363281  0.008954467251896798  1.0000
  Na  Na2       1.0  0.8743739128112793  0.8213851451873779  0.8195346593856812  1.0000
  Ni  Ni1       1.0  0.9219774603843689  0.09532108157873154  0.8459402918815613  1.0000
  Os  Os1       1.0  0.6833836436271667  0.3483223021030426  0.11613968014717102  1.0000
  Os  Os2       1.0  0.09711993485689163  0.2679602801799774  0.7206801772117615  1.0000
  Os  Os3       1.0  0.9170550107955933  0.07391271740198135  0.26467105746269226  1.0000
  Os  Os4       1.0  0.34130915999412537  0.43310168385505676  0.44228124618530273  1.0000
  U   U1        1.0  0.43582725524902344  0.020892303436994553  0.992605984210968  1.0000
