data_image0
_chemical_formula_structural       As3H2HgNaOs6Rh
_chemical_formula_sum              "As3 H2 Hg1 Na1 Os6 Rh1"
_cell_length_a       7.291997637264685
_cell_length_b       7.466837926581729
_cell_length_c       7.509930610656738
_cell_angle_alpha    111.93011285867286
_cell_angle_beta     105.61552219889741
_cell_angle_gamma    111.58824137040112

_space_group_name_H-M_alt    "P 1"
_space_group_IT_number       1

loop_
  _space_group_symop_operation_xyz
  'x, y, z'

loop_
  _atom_site_type_symbol
  _atom_site_label
  _atom_site_symmetry_multiplicity
  _atom_site_fract_x
  _atom_site_fract_y
  _atom_site_fract_z
  _atom_site_occupancy
  As  As1       1.0  0.11850365251302719  0.9204757213592529  0.05475494638085365  1.0000
  As  As2       1.0  0.0874864012002945  0.4805386960506439  0.5623522996902466  1.0000
  As  As3       1.0  0.60245281457901  0.05015290156006813  0.5745420455932617  1.0000
  H   H1        1.0  0.8202905654907227  0.843123197555542  0.5378074645996094  1.0000
  H   H2        1.0  0.7408283948898315  0.19239632785320282  0.8990622758865356  1.0000
  Hg  Hg1       1.0  0.856994092464447  0.5940914154052734  0.6166887879371643  1.0000
  Na  Na1       1.0  0.6052426099777222  0.2704240381717682  0.6203166246414185  1.0000
  Os  Os1       1.0  0.6286554336547852  0.7868906259536743  0.11710134893655777  1.0000
  Os  Os2       1.0  0.33343705534935  0.9408425688743591  0.2176484614610672  1.0000
  Os  Os3       1.0  0.09097539633512497  0.470525324344635  0.8840855360031128  1.0000
  Os  Os4       1.0  0.0936937928199768  0.6929709315299988  0.8667344450950623  1.0000
  Os  Os5       1.0  0.33990636467933655  0.08715884387493134  0.3661959767341614  1.0000
  Os  Os6       1.0  0.6159176230430603  0.2767866849899292  0.022113770246505737  1.0000
  Rh  Rh1       1.0  0.19810645282268524  0.7134882807731628  0.14433680474758148  1.0000
