data_image0
_chemical_formula_structural       AlAsH3MnN2NaScSi2UZn
_chemical_formula_sum              "Al1 As1 H3 Mn1 N2 Na1 Sc1 Si2 U1 Zn1"
_cell_length_a       5.221488096173135
_cell_length_b       6.854855019316584
_cell_length_c       6.824730396270752
_cell_angle_alpha    74.78322134446941
_cell_angle_beta     68.07150042496824
_cell_angle_gamma    72.40608368162148

_space_group_name_H-M_alt    "P 1"
_space_group_IT_number       1

loop_
  _space_group_symop_operation_xyz
  'x, y, z'

loop_
  _atom_site_type_symbol
  _atom_site_label
  _atom_site_symmetry_multiplicity
  _atom_site_fract_x
  _atom_site_fract_y
  _atom_site_fract_z
  _atom_site_occupancy
  Al  Al1       1.0  0.3203770518302917  0.922160029411316  0.19606603682041168  1.0000
  As  As1       1.0  0.1887422502040863  0.3098261058330536  0.8983094096183776  1.0000
  H   H1        1.0  0.4806991219520569  0.6566485166549683  0.45519313216209406  1.0000
  H   H2        1.0  0.23694059252738953  0.6635074019432068  0.24176482856273648  1.0000
  H   H3        1.0  0.8558980822563171  0.9071534276008607  0.02490877546370029  1.0000
  Mn  Mn1       1.0  0.5567684173583984  0.16064773499965668  0.2235041260719299  1.0000
  N   N1        1.0  0.9397839903831482  0.19275060296058658  0.7316560745239258  1.0000
  N   N2        1.0  0.5197031497955322  0.910282075405121  0.7633206248283386  1.0000
  Na  Na1       1.0  0.04370900243520737  0.6807706356048584  0.6148512363433838  1.0000
  Sc  Sc1       1.0  0.21410389244556427  0.31100669503211975  0.9207491278648375  1.0000
  Si  Si1       1.0  0.5931059718132019  0.8040362596511842  0.0543130449950695  1.0000
  Si  Si2       1.0  0.23370544612407684  0.1533212512731552  0.20670330524444577  1.0000
  U   U1        1.0  0.8733145594596863  0.4178303480148316  0.19866251945495603  1.0000
  Zn  Zn1       1.0  0.9262551665306091  0.45152959227561956  0.4380905330181121  1.0000
