data_image0
_chemical_formula_structural       Al3As5B
_chemical_formula_sum              "Al3 As5 B1"
_cell_length_a       4.302541493304689
_cell_length_b       5.660048587426082
_cell_length_c       8.342717170715332
_cell_angle_alpha    117.58892620087644
_cell_angle_beta     103.25211436454579
_cell_angle_gamma    84.26001681796834

_space_group_name_H-M_alt    "P 1"
_space_group_IT_number       1

loop_
  _space_group_symop_operation_xyz
  'x, y, z'

loop_
  _atom_site_type_symbol
  _atom_site_label
  _atom_site_symmetry_multiplicity
  _atom_site_fract_x
  _atom_site_fract_y
  _atom_site_fract_z
  _atom_site_occupancy
  Al  Al1       1.0  0.40621456503868103  0.3942548632621765  0.32308998703956604  1.0000
  Al  Al2       1.0  0.12004859000444412  0.6806009411811829  0.4523378610610962  1.0000
  Al  Al3       1.0  0.7825309038162231  0.7803983092308044  0.49808645248413086  1.0000
  As  As1       1.0  0.37775734066963196  0.16277894377708435  0.4636235237121582  1.0000
  As  As2       1.0  0.8723344802856445  0.3924409747123718  0.8234809637069702  1.0000
  As  As3       1.0  0.8986215591430664  0.12231191247701645  0.2894905209541321  1.0000
  As  As4       1.0  0.563052773475647  0.9313482046127319  0.8810924887657166  1.0000
  As  As5       1.0  0.10979769378900528  0.9056238532066345  0.9687952399253845  1.0000
  B   B1        1.0  0.49304595589637756  0.4879663586616516  0.7452438473701477  1.0000
