data_image0
_chemical_formula_structural       Al3As3CoGaNi
_chemical_formula_sum              "Al3 As3 Co1 Ga1 Ni1"
_cell_length_a       4.524730540359749
_cell_length_b       5.931336201304
_cell_length_c       7.495954990386963
_cell_angle_alpha    118.6465364316303
_cell_angle_beta     102.12750049444232
_cell_angle_gamma    87.8855739767619

_space_group_name_H-M_alt    "P 1"
_space_group_IT_number       1

loop_
  _space_group_symop_operation_xyz
  'x, y, z'

loop_
  _atom_site_type_symbol
  _atom_site_label
  _atom_site_symmetry_multiplicity
  _atom_site_fract_x
  _atom_site_fract_y
  _atom_site_fract_z
  _atom_site_occupancy
  Al  Al1       1.0  0.030091771855950356  0.7918824553489685  0.05551831424236298  1.0000
  Al  Al2       1.0  0.4917888939380646  0.6560574173927307  0.7028059363365174  1.0000
  Al  Al3       1.0  0.669845700263977  0.29633739590644836  0.027452951297163936  1.0000
  As  As1       1.0  0.9975685477256775  0.2490779459476471  0.7077662944793702  1.0000
  As  As2       1.0  0.17643015086650848  0.7870284914970398  0.3741553127765656  1.0000
  As  As3       1.0  0.5142397880554199  0.08660019934177399  0.7724032998085023  1.0000
  Co  Co1       1.0  0.7345536351203918  0.567448616027832  0.5661355257034302  1.0000
  Ga  Ga1       1.0  0.6776068806648254  0.28619396686553955  0.46693402528762823  1.0000
  Ni  Ni1       1.0  0.2507701516151428  0.34730294346809387  0.19240282475948334  1.0000
