data_image0
_chemical_formula_structural       As3Cu5Se
_chemical_formula_sum              "As3 Cu5 Se1"
_cell_length_a       4.8770074602891125
_cell_length_b       5.871545592391518
_cell_length_c       6.1485276222229
_cell_angle_alpha    116.08485903144015
_cell_angle_beta     113.40745467935324
_cell_angle_gamma    87.45578292634241

_space_group_name_H-M_alt    "P 1"
_space_group_IT_number       1

loop_
  _space_group_symop_operation_xyz
  'x, y, z'

loop_
  _atom_site_type_symbol
  _atom_site_label
  _atom_site_symmetry_multiplicity
  _atom_site_fract_x
  _atom_site_fract_y
  _atom_site_fract_z
  _atom_site_occupancy
  As  As1       1.0  0.005256373900920153  0.1331797093153  0.0654030591249466  1.0000
  As  As2       1.0  0.31131088733673096  0.7975888252258301  0.7585322260856628  1.0000
  As  As3       1.0  0.6951348185539246  0.3338053524494171  0.276962548494339  1.0000
  Cu  Cu1       1.0  0.5822722315788269  0.339546799659729  0.5893431305885315  1.0000
  Cu  Cu2       1.0  0.5517896413803101  0.8196223378181458  0.9673334956169128  1.0000
  Cu  Cu3       1.0  0.45441704988479614  0.7189086675643921  0.15339183807373047  1.0000
  Cu  Cu4       1.0  0.9410552382469177  0.6782540082931519  0.535761296749115  1.0000
  Cu  Cu5       1.0  0.21391092240810394  0.07377555221319199  0.7726149559020996  1.0000
  Se  Se1       1.0  0.9902802109718323  0.5186922550201416  0.9635666608810425  1.0000
