data_image0
_chemical_formula_structural       Al3As4EuZn
_chemical_formula_sum              "Al3 As4 Eu1 Zn1"
_cell_length_a       4.4417300730184825
_cell_length_b       5.979431582744228
_cell_length_c       6.994461536407471
_cell_angle_alpha    125.09682751259884
_cell_angle_beta     99.17378797837898
_cell_angle_gamma    79.99499238104586

_space_group_name_H-M_alt    "P 1"
_space_group_IT_number       1

loop_
  _space_group_symop_operation_xyz
  'x, y, z'

loop_
  _atom_site_type_symbol
  _atom_site_label
  _atom_site_symmetry_multiplicity
  _atom_site_fract_x
  _atom_site_fract_y
  _atom_site_fract_z
  _atom_site_occupancy
  Al  Al1       1.0  0.23468919098377228  0.22647224366664886  0.6398388147354127  1.0000
  Al  Al2       1.0  0.2599424123764038  0.6969149708747864  0.4101823568344116  1.0000
  Al  Al3       1.0  0.9410466551780701  0.09364333003759384  0.8843104243278505  1.0000
  As  As1       1.0  0.9038878083229065  0.611120879650116  0.868846356868744  1.0000
  As  As2       1.0  0.1935793161392212  0.686278223991394  0.16566097736358637  1.0000
  As  As3       1.0  0.39144158363342285  0.34080085158348083  0.8606277108192445  1.0000
  As  As4       1.0  0.7158392071723938  0.7863258719444275  0.5171065926551819  1.0000
  Eu  Eu1       1.0  0.658717155456543  0.42205241322517395  0.1668356657028198  1.0000
  Zn  Zn1       1.0  0.9116746187210083  0.05902057886123657  0.07139650732278822  1.0000
