data_image0
_chemical_formula_structural       Ho4O3Ta3
_chemical_formula_sum              "Ho4 O3 Ta3"
_cell_length_a       4.873091555203272
_cell_length_b       6.126288895802047
_cell_length_c       6.759274959564209
_cell_angle_alpha    80.94265288601305
_cell_angle_beta     71.96923327508784
_cell_angle_gamma    67.61345142182101

_space_group_name_H-M_alt    "P 1"
_space_group_IT_number       1

loop_
  _space_group_symop_operation_xyz
  'x, y, z'

loop_
  _atom_site_type_symbol
  _atom_site_label
  _atom_site_symmetry_multiplicity
  _atom_site_fract_x
  _atom_site_fract_y
  _atom_site_fract_z
  _atom_site_occupancy
  Ho  Ho1       1.0  0.642524242401123  0.25324204564094543  0.80112361907959  1.0000
  Ho  Ho2       1.0  0.6654322147369385  0.20980235934257507  0.6409381031990051  1.0000
  Ho  Ho3       1.0  0.6479234099388123  0.16318029165267944  0.05107840895652772  1.0000
  Ho  Ho4       1.0  0.13193930685520172  0.22685815393924713  0.22970962524414065  1.0000
  O   O1        1.0  0.900809645652771  0.5748940110206604  0.817123055458069  1.0000
  O   O2        1.0  0.12861452996730804  0.6445585489273071  0.25188860297203064  1.0000
  O   O3        1.0  0.3581317663192749  0.46381402015686035  0.7400591969490052  1.0000
  Ta  Ta1       1.0  0.15488384664058685  0.8206635117530823  0.09603559970855714  1.0000
  Ta  Ta2       1.0  0.11856851726770401  0.6799619197845459  0.9648568630218507  1.0000
  Ta  Ta3       1.0  0.6226539611816406  0.8949092030525208  0.34571838378906256  1.0000
