data_image0
_chemical_formula_structural       Ho4O5Ta
_chemical_formula_sum              "Ho4 O5 Ta1"
_cell_length_a       4.024167283045653
_cell_length_b       3.324111009552784
_cell_length_c       6.304708003997803
_cell_angle_alpha    111.67911166995601
_cell_angle_beta     100.56050721604186
_cell_angle_gamma    88.64376672657276

_space_group_name_H-M_alt    "P 1"
_space_group_IT_number       1

loop_
  _space_group_symop_operation_xyz
  'x, y, z'

loop_
  _atom_site_type_symbol
  _atom_site_label
  _atom_site_symmetry_multiplicity
  _atom_site_fract_x
  _atom_site_fract_y
  _atom_site_fract_z
  _atom_site_occupancy
  Ho  Ho1       1.0  0.6129003167152405  0.497054636478424  0.3171278238296509  1.0000
  Ho  Ho2       1.0  0.13225308060646057  0.3960077762603759  0.6516080498695374  1.0000
  Ho  Ho3       1.0  0.7034584283828735  0.7197645902633666  0.7714619040489197  1.0000
  Ho  Ho4       1.0  0.6188383102416992  0.5086543560028076  0.25834596157073975  1.0000
  O   O1        1.0  0.07989819347858429  0.3391759395599365  0.01498199813067913  1.0000
  O   O2        1.0  0.11700464040040968  0.06030048802495002  0.5140014290809631  1.0000
  O   O3        1.0  0.12699803709983826  0.26582300662994385  0.13863202929496765  1.0000
  O   O4        1.0  0.5839947462081909  0.49343752861022944  0.6189117431640625  1.0000
  O   O5        1.0  0.561267614364624  0.13889990746974945  0.677646815776825  1.0000
  Ta  Ta1       1.0  0.14110058546066284  0.9111998677253722  0.06801220774650574  1.0000
