data_image0
_chemical_formula_structural       H2Ho5PPbZr
_chemical_formula_sum              "H2 Ho5 P1 Pb1 Zr1"
_cell_length_a       6.67748550443665
_cell_length_b       6.451591030501485
_cell_length_c       7.285481929779053
_cell_angle_alpha    85.13967517389075
_cell_angle_beta     77.89168499589947
_cell_angle_gamma    76.24291613500309

_space_group_name_H-M_alt    "P 1"
_space_group_IT_number       1

loop_
  _space_group_symop_operation_xyz
  'x, y, z'

loop_
  _atom_site_type_symbol
  _atom_site_label
  _atom_site_symmetry_multiplicity
  _atom_site_fract_x
  _atom_site_fract_y
  _atom_site_fract_z
  _atom_site_occupancy
  H   H1        1.0  0.6997990012168884  0.25219517946243286  0.38244879245758057  1.0000
  H   H2        1.0  0.15672431886196136  0.025043273344635967  0.33983519673347473  1.0000
  Ho  Ho1       1.0  0.5541303753852844  0.534984290599823  0.24703657627105713  1.0000
  Ho  Ho2       1.0  0.15391558408737183  0.2553885877132416  0.5723129510879517  1.0000
  Ho  Ho3       1.0  0.17201046645641327  0.06417863070964813  0.8303519487380981  1.0000
  Ho  Ho4       1.0  0.3947521448135376  0.2566772699356079  0.4144943654537201  1.0000
  Ho  Ho5       1.0  0.668831467628479  0.645568311214447  0.3537544310092926  1.0000
  P   P1        1.0  0.16675692796707153  0.27263474464416504  0.2247745841741562  1.0000
  Pb  Pb1       1.0  0.8660447001457214  0.30524933338165283  0.08179923892021179  1.0000
  Zr  Zr1       1.0  0.1713958978652954  0.5674559473991394  0.027374135330319405  1.0000
