data_image0
_chemical_formula_structural       Co2GaHHo2IOTiZr
_chemical_formula_sum              "Co2 Ga1 H1 Ho2 I1 O1 Ti1 Zr1"
_cell_length_a       6.624190338602738
_cell_length_b       6.65989487104114
_cell_length_c       7.839344024658203
_cell_angle_alpha    69.78532749099332
_cell_angle_beta     71.02435507531789
_cell_angle_gamma    64.76630511007295

_space_group_name_H-M_alt    "P 1"
_space_group_IT_number       1

loop_
  _space_group_symop_operation_xyz
  'x, y, z'

loop_
  _atom_site_type_symbol
  _atom_site_label
  _atom_site_symmetry_multiplicity
  _atom_site_fract_x
  _atom_site_fract_y
  _atom_site_fract_z
  _atom_site_occupancy
  Co  Co1       1.0  0.975287139415741  0.5606432557106018  0.10815150290727615  1.0000
  Co  Co2       1.0  0.4981221556663513  0.29721730947494507  0.10821852833032608  1.0000
  Ga  Ga1       1.0  0.9593564867973328  0.5927790403366089  0.2597542405128479  1.0000
  H   H1        1.0  0.49848276376724243  0.8986222743988037  0.6923923492431641  1.0000
  Ho  Ho1       1.0  0.49390003085136414  0.24610354006290436  0.9302293658256531  1.0000
  Ho  Ho2       1.0  0.9901174902915955  0.6846013069152832  0.576011598110199  1.0000
  I   I1        1.0  0.004813595674932003  0.42970630526542664  0.49415987730026245  1.0000
  O   O1        1.0  0.47848835587501526  0.0331135131418705  0.9028992652893068  1.0000
  Ti  Ti1       1.0  0.49880173802375793  0.7311028838157654  0.5022371411323547  1.0000
  Zr  Zr1       1.0  0.4938233196735382  0.5322125554084778  0.05597640946507454  1.0000
