data_image0
_chemical_formula_structural       I2PSbUZn
_chemical_formula_sum              "I2 P1 Sb1 U1 Zn1"
_cell_length_a       5.436288661865686
_cell_length_b       5.386057390335109
_cell_length_c       7.401775360107422
_cell_angle_alpha    107.64481406087984
_cell_angle_beta     105.8571624173827
_cell_angle_gamma    109.09924888868548

_space_group_name_H-M_alt    "P 1"
_space_group_IT_number       1

loop_
  _space_group_symop_operation_xyz
  'x, y, z'

loop_
  _atom_site_type_symbol
  _atom_site_label
  _atom_site_symmetry_multiplicity
  _atom_site_fract_x
  _atom_site_fract_y
  _atom_site_fract_z
  _atom_site_occupancy
  I   I1        1.0  0.5400425791740417  0.8377974629402161  0.23477411270141602  1.0000
  I   I2        1.0  0.9800674319267273  0.4773416519165039  0.9618123173713684  1.0000
  P   P1        1.0  0.2819754183292389  0.771334171295166  0.3280949294567108  1.0000
  Sb  Sb1       1.0  0.31457051634788513  0.06023233383893967  0.012112868018448353  1.0000
  U   U1        1.0  0.022163253277540207  0.09159956127405167  0.5932109951972961  1.0000
  Zn  Zn1       1.0  0.8028826117515564  0.5284331440925598  0.7953607439994812  1.0000
