data_image0
_chemical_formula_structural       I2LiU2Zn
_chemical_formula_sum              "I2 Li1 U2 Zn1"
_cell_length_a       5.3019591208574965
_cell_length_b       5.254764045183218
_cell_length_c       6.03519344329834
_cell_angle_alpha    118.32854267790239
_cell_angle_beta     115.30355298383661
_cell_angle_gamma    90.16445344326038

_space_group_name_H-M_alt    "P 1"
_space_group_IT_number       1

loop_
  _space_group_symop_operation_xyz
  'x, y, z'

loop_
  _atom_site_type_symbol
  _atom_site_label
  _atom_site_symmetry_multiplicity
  _atom_site_fract_x
  _atom_site_fract_y
  _atom_site_fract_z
  _atom_site_occupancy
  I   I1        1.0  0.03702474385499954  0.04239016771316528  0.6291135549545288  1.0000
  I   I2        1.0  0.5364184975624084  0.9167159795761108  0.7161163091659546  1.0000
  Li  Li1       1.0  0.01904669590294361  0.471348375082016  0.5125039219856262  1.0000
  U   U1        1.0  0.035874590277671814  0.6147254109382629  0.29741171002388  1.0000
  U   U2        1.0  0.5418892502784729  0.51731938123703  0.16952712833881378  1.0000
  Zn  Zn1       1.0  0.032662488520145416  0.4462945759296417  0.2788362205028534  1.0000
