data_image0
_chemical_formula_structural       I2LiNbSZn
_chemical_formula_sum              "I2 Li1 Nb1 S1 Zn1"
_cell_length_a       4.8028617175185015
_cell_length_b       5.093498130354084
_cell_length_c       8.386516571044922
_cell_angle_alpha    90.05312657835029
_cell_angle_beta     90.80780316757459
_cell_angle_gamma    112.80424566540283

_space_group_name_H-M_alt    "P 1"
_space_group_IT_number       1

loop_
  _space_group_symop_operation_xyz
  'x, y, z'

loop_
  _atom_site_type_symbol
  _atom_site_label
  _atom_site_symmetry_multiplicity
  _atom_site_fract_x
  _atom_site_fract_y
  _atom_site_fract_z
  _atom_site_occupancy
  I   I1        1.0  0.575447678565979  0.394269734621048  0.7889845371246338  1.0000
  I   I2        1.0  0.07256226986646652  0.10068895667791367  0.33442530035972595  1.0000
  Li  Li1       1.0  0.07357274740934372  0.14161589741706848  0.842538595199585  1.0000
  Nb  Nb1       1.0  0.578380823135376  0.7688987851142883  0.38307562470436096  1.0000
  S   S1        1.0  0.5782764554023743  0.823239803314209  0.3031194806098938  1.0000
  Zn  Zn1       1.0  0.07638151198625565  0.7201336026191711  0.9268165826797485  1.0000
