data_image0
_chemical_formula_structural       BrCdInKPdSnTe3W2
_chemical_formula_sum              "Br1 Cd1 In1 K1 Pd1 Sn1 Te3 W2"
_cell_length_a       4.014423635187148
_cell_length_b       8.04290465659171
_cell_length_c       9.802370071411133
_cell_angle_alpha    108.89061374131654
_cell_angle_beta     89.94734324366506
_cell_angle_gamma    104.56044983893737

_space_group_name_H-M_alt    "P 1"
_space_group_IT_number       1

loop_
  _space_group_symop_operation_xyz
  'x, y, z'

loop_
  _atom_site_type_symbol
  _atom_site_label
  _atom_site_symmetry_multiplicity
  _atom_site_fract_x
  _atom_site_fract_y
  _atom_site_fract_z
  _atom_site_occupancy
  Br  Br1       1.0  0.3537997901439667  0.28955161571502686  0.10431243479251864  1.0000
  Cd  Cd1       1.0  0.717949390411377  0.0045648133382201195  0.03234756737947464  1.0000
  In  In1       1.0  0.4335077702999115  0.42532476782798767  0.8346009254455566  1.0000
  K   K1        1.0  0.026932967826724052  0.6306959986686707  0.2976339757442475  1.0000
  Pd  Pd1       1.0  0.8904162049293518  0.34184902906417847  0.6114203333854675  1.0000
  Sn  Sn1       1.0  0.7797799110412598  0.11989396810531616  0.7797055244445802  1.0000
  Te  Te1       1.0  0.07823515683412552  0.7113592028617859  0.9532209038734436  1.0000
  Te  Te2       1.0  0.722301721572876  0.01857454515993595  0.3677860200405121  1.0000
  Te  Te3       1.0  0.5039722323417664  0.5643327832221985  0.5786610245704651  1.0000
  W   W1        1.0  0.14318490028381348  0.8480555415153503  0.7152858376502991  1.0000
  W   W2        1.0  0.2679486572742462  0.09978432208299637  0.5774791836738586  1.0000
