data_image0
_chemical_formula_structural       Cd3Ga2InSn2W3
_chemical_formula_sum              "Cd3 Ga2 In1 Sn2 W3"
_cell_length_a       5.62596957415438
_cell_length_b       6.342750906901298
_cell_length_c       7.200470924377441
_cell_angle_alpha    104.90777449594367
_cell_angle_beta     107.86984944376445
_cell_angle_gamma    97.46564586473188

_space_group_name_H-M_alt    "P 1"
_space_group_IT_number       1

loop_
  _space_group_symop_operation_xyz
  'x, y, z'

loop_
  _atom_site_type_symbol
  _atom_site_label
  _atom_site_symmetry_multiplicity
  _atom_site_fract_x
  _atom_site_fract_y
  _atom_site_fract_z
  _atom_site_occupancy
  Cd  Cd1       1.0  0.35383105278015137  0.49842989444732666  0.0333983451128006  1.0000
  Cd  Cd2       1.0  0.03297199681401253  0.8364625573158264  0.3041231632232666  1.0000
  Cd  Cd3       1.0  0.6298311352729797  0.90511155128479  0.9952334761619568  1.0000
  Ga  Ga1       1.0  0.37326914072036743  0.22886550426483154  0.6398501992225647  1.0000
  Ga  Ga2       1.0  0.8492703437805176  0.18922342360019684  0.5955708026885986  1.0000
  In  In1       1.0  0.9316272735595703  0.3371063470840454  0.1954849362373352  1.0000
  Sn  Sn1       1.0  0.13818174600601196  0.9388185143470764  0.870640218257904  1.0000
  Sn  Sn2       1.0  0.577301025390625  0.6829187870025635  0.4825755357742309  1.0000
  W   W1        1.0  0.12170598655939102  0.5500198006629944  0.6101424098014832  1.0000
  W   W2        1.0  0.8077310919761658  0.5463502407073975  0.8446916341781616  1.0000
  W   W3        1.0  0.45100802183151245  0.20291876792907715  0.2936682105064392  1.0000
