data_image0
_chemical_formula_structural       Cd3GaInSn3W3
_chemical_formula_sum              "Cd3 Ga1 In1 Sn3 W3"
_cell_length_a       4.539496639621993
_cell_length_b       7.229803474841083
_cell_length_c       7.33001708984375
_cell_angle_alpha    103.95599136785401
_cell_angle_beta     90.0717124267081
_cell_angle_gamma    89.86717101957255

_space_group_name_H-M_alt    "P 1"
_space_group_IT_number       1

loop_
  _space_group_symop_operation_xyz
  'x, y, z'

loop_
  _atom_site_type_symbol
  _atom_site_label
  _atom_site_symmetry_multiplicity
  _atom_site_fract_x
  _atom_site_fract_y
  _atom_site_fract_z
  _atom_site_occupancy
  Cd  Cd1       1.0  0.973480761051178  0.9349810481071472  0.6401240229606628  1.0000
  Cd  Cd2       1.0  0.973003625869751  0.001523032784461975  0.2514057755470276  1.0000
  Cd  Cd3       1.0  0.47222015261650085  0.9558709263801575  0.9586673378944397  1.0000
  Ga  Ga1       1.0  0.47308972477912903  0.8660138845443726  0.3833972215652466  1.0000
  In  In1       1.0  0.4726758897304535  0.5040915012359619  0.10522654652595519  1.0000
  Sn  Sn1       1.0  0.9732277393341064  0.6369827389717102  0.8886654376983643  1.0000
  Sn  Sn2       1.0  0.9746406674385071  0.4921303391456604  0.3883972764015198  1.0000
  Sn  Sn3       1.0  0.47336894273757935  0.25361114740371704  0.7000501751899718  1.0000
  W   W1        1.0  0.972806453704834  0.25261789560317993  0.9842256903648376  1.0000
  W   W2        1.0  0.47263193130493164  0.6301014423370361  0.6162476539611816  1.0000
  W   W3        1.0  0.4717424213886261  0.2523251175880432  0.3248015344142914  1.0000
