data_image0
_chemical_formula_structural       AsCdFKSbTe3W3
_chemical_formula_sum              "As1 Cd1 F1 K1 Sb1 Te3 W3"
_cell_length_a       4.1142993733406446
_cell_length_b       8.074779765876785
_cell_length_c       9.57499885559082
_cell_angle_alpha    101.7264917681415
_cell_angle_beta     90.25456071659033
_cell_angle_gamma    105.16577739039955

_space_group_name_H-M_alt    "P 1"
_space_group_IT_number       1

loop_
  _space_group_symop_operation_xyz
  'x, y, z'

loop_
  _atom_site_type_symbol
  _atom_site_label
  _atom_site_symmetry_multiplicity
  _atom_site_fract_x
  _atom_site_fract_y
  _atom_site_fract_z
  _atom_site_occupancy
  As  As1       1.0  0.18980355560779572  0.6560590863227844  0.71503084897995  1.0000
  Cd  Cd1       1.0  0.26888060569763184  0.8111574649810791  0.38785818219184875  1.0000
  F   F1        1.0  0.8739343881607056  0.017177864909172058  0.8941482901573181  1.0000
  K   K1        1.0  0.9775570034980774  0.19783899188041687  0.28727746009826655  1.0000
  Sb  Sb1       1.0  0.28061527013778687  0.8179234862327576  0.09643236547708511  1.0000
  Te  Te1       1.0  0.5616052150726318  0.3858209252357483  0.9456653594970703  1.0000
  Te  Te2       1.0  0.6394894123077393  0.5452225804328918  0.3877345323562622  1.0000
  Te  Te3       1.0  0.40820202231407166  0.09268435835838318  0.5830924510955809  1.0000
  W   W1        1.0  0.5886451601982117  0.4418577551841736  0.6524336338043213  1.0000
  W   W2        1.0  0.7333813309669495  0.7259706854820251  0.8825660347938538  1.0000
  W   W3        1.0  0.35761865973472595  0.9915862083435059  0.871354341506958  1.0000
