data_image0
_chemical_formula_structural       As3BaI2
_chemical_formula_sum              "As3 Ba1 I2"
_cell_length_a       5.590907427454803
_cell_length_b       5.526324693838336
_cell_length_c       7.322404384613037
_cell_angle_alpha    100.8728409686966
_cell_angle_beta     101.38838822836318
_cell_angle_gamma    105.64750272166327

_space_group_name_H-M_alt    "P 1"
_space_group_IT_number       1

loop_
  _space_group_symop_operation_xyz
  'x, y, z'

loop_
  _atom_site_type_symbol
  _atom_site_label
  _atom_site_symmetry_multiplicity
  _atom_site_fract_x
  _atom_site_fract_y
  _atom_site_fract_z
  _atom_site_occupancy
  As  As1       1.0  0.5596485137939453  0.5410658121109009  0.7264225482940674  1.0000
  As  As2       1.0  0.8835039138793945  0.9268175959587096  0.5990456342697144  1.0000
  As  As3       1.0  0.06957993656396866  0.5590851902961731  0.8475278615951538  1.0000
  Ba  Ba1       1.0  0.4018811285495758  0.4696312546730041  0.029151685535907745  1.0000
  I   I1        1.0  0.8442733883857727  0.7975065112113953  0.2635164856910705  1.0000
  I   I2        1.0  0.4002075791358948  0.317425936460495  0.9102543592453003  1.0000
