data_image0
_chemical_formula_structural       As3I2V
_chemical_formula_sum              "As3 I2 V1"
_cell_length_a       4.770545864360804
_cell_length_b       5.127007312472155
_cell_length_c       7.216455936431885
_cell_angle_alpha    88.98262664962263
_cell_angle_beta     89.70813813690563
_cell_angle_gamma    115.71564431997075

_space_group_name_H-M_alt    "P 1"
_space_group_IT_number       1

loop_
  _space_group_symop_operation_xyz
  'x, y, z'

loop_
  _atom_site_type_symbol
  _atom_site_label
  _atom_site_symmetry_multiplicity
  _atom_site_fract_x
  _atom_site_fract_y
  _atom_site_fract_z
  _atom_site_occupancy
  As  As1       1.0  0.4731650650501251  0.14910422265529633  0.9396242499351503  1.0000
  As  As2       1.0  0.4775754511356354  0.5532313585281372  0.1335909217596054  1.0000
  As  As3       1.0  0.21822477877140045  0.8156728148460388  0.9959700703620912  1.0000
  I   I1        1.0  0.9693065881729126  0.49614298343658453  0.8520382642745973  1.0000
  I   I2        1.0  0.3695550262928009  0.04332122951745987  0.4627769589424134  1.0000
  V   V1        1.0  0.8309314846992493  0.8344271779060364  0.7820593714714051  1.0000
