data_image0
_chemical_formula_structural       IPPb2Pr2SSiZr2
_chemical_formula_sum              "I1 P1 Pb2 Pr2 S1 Si1 Zr2"
_cell_length_a       6.129797208214179
_cell_length_b       6.243843886731538
_cell_length_c       7.762007236480713
_cell_angle_alpha    102.84479703391044
_cell_angle_beta     89.77917701740667
_cell_angle_gamma    90.51919167487694

_space_group_name_H-M_alt    "P 1"
_space_group_IT_number       1

loop_
  _space_group_symop_operation_xyz
  'x, y, z'

loop_
  _atom_site_type_symbol
  _atom_site_label
  _atom_site_symmetry_multiplicity
  _atom_site_fract_x
  _atom_site_fract_y
  _atom_site_fract_z
  _atom_site_occupancy
  I   I1        1.0  0.9854648113250732  0.8566637635231018  0.9103127717971802  1.0000
  P   P1        1.0  0.9752966165542603  0.43315792083740234  0.1499368846416473  1.0000
  Pb  Pb1       1.0  0.484574556350708  0.4967690706253052  0.2421426475048065  1.0000
  Pb  Pb2       1.0  0.9854903221130371  0.041729219257831573  0.37374290823936457  1.0000
  Pr  Pr1       1.0  0.9828729629516602  0.9141501188278198  0.33586633205413813  1.0000
  Pr  Pr2       1.0  0.48482123017311096  0.9583609700202942  0.2953133583068847  1.0000
  S   S1        1.0  0.48565539717674255  0.70301353931427  0.22827604413032532  1.0000
  Si  Si1       1.0  0.4767964482307434  0.4423271715641022  0.5770298838615416  1.0000
  Zr  Zr1       1.0  0.9893508553504944  0.2962033152580261  0.6458060145378112  1.0000
  Zr  Zr2       1.0  0.4881588816642761  0.7622020840644836  0.5260138511657715  1.0000
