data_image0
_chemical_formula_structural       I2PbPrSZr5
_chemical_formula_sum              "I2 Pb1 Pr1 S1 Zr5"
_cell_length_a       5.772444251524975
_cell_length_b       6.54369602442398
_cell_length_c       7.135762691497803
_cell_angle_alpha    133.64066923578434
_cell_angle_beta     92.20247671911655
_cell_angle_gamma    87.43402212834356

_space_group_name_H-M_alt    "P 1"
_space_group_IT_number       1

loop_
  _space_group_symop_operation_xyz
  'x, y, z'

loop_
  _atom_site_type_symbol
  _atom_site_label
  _atom_site_symmetry_multiplicity
  _atom_site_fract_x
  _atom_site_fract_y
  _atom_site_fract_z
  _atom_site_occupancy
  I   I1        1.0  0.759532630443573  0.36952662467956543  0.6349012851715088  1.0000
  I   I2        1.0  0.33766239881515503  0.6428090929985046  0.3333429694175721  1.0000
  Pb  Pb1       1.0  0.365797221660614  0.5149158835411072  0.9951193928718567  1.0000
  Pr  Pr1       1.0  0.35016894340515137  0.787512481212616  0.8228405714035034  1.0000
  S   S1        1.0  0.11354801803827286  0.054877784103155136  0.3465418815612793  1.0000
  Zr  Zr1       1.0  0.8829392194747925  0.26752132177352905  0.5889288783073425  1.0000
  Zr  Zr2       1.0  0.21616478264331818  0.8512988686561584  0.841107189655304  1.0000
  Zr  Zr3       1.0  0.741628110408783  0.6280893087387085  0.09355822950601585  1.0000
  Zr  Zr4       1.0  0.8605926036834717  0.8112563490867615  0.9620786905288697  1.0000
  Zr  Zr5       1.0  0.3894616365432739  0.15732215344905853  0.5794434547424316  1.0000
