data_image0
_chemical_formula_structural       IPr3S5Tl
_chemical_formula_sum              "I1 Pr3 S5 Tl1"
_cell_length_a       4.8535481338218
_cell_length_b       4.7504446023005285
_cell_length_c       6.51377534866333
_cell_angle_alpha    116.15694502715816
_cell_angle_beta     124.08815308830481
_cell_angle_gamma    114.89676699087735

_space_group_name_H-M_alt    "P 1"
_space_group_IT_number       1

loop_
  _space_group_symop_operation_xyz
  'x, y, z'

loop_
  _atom_site_type_symbol
  _atom_site_label
  _atom_site_symmetry_multiplicity
  _atom_site_fract_x
  _atom_site_fract_y
  _atom_site_fract_z
  _atom_site_occupancy
  I   I1        1.0  0.24094995856285098  0.13066005706787112  0.4861887991428376  1.0000
  Pr  Pr1       1.0  0.03820393234491348  0.8543605804443359  0.5303270220756532  1.0000
  Pr  Pr2       1.0  0.9918026924133301  0.48968514800071716  0.06479411572217947  1.0000
  Pr  Pr3       1.0  0.07229693979024876  0.5945112109184264  0.7420302629470825  1.0000
  S   S1        1.0  0.06683912128210057  0.37967991828918446  0.4582245349884033  1.0000
  S   S2        1.0  0.038727577775716726  0.4205735325813293  0.5483219623565674  1.0000
  S   S3        1.0  0.5559835433959962  0.890398681163788  0.6704818010330201  1.0000
  S   S4        1.0  0.5424445867538452  0.4089930951595306  0.09226538240909582  1.0000
  S   S5        1.0  0.5464549064636232  0.9792800545692445  0.8075973391532899  1.0000
  Tl  Tl1       1.0  0.6466473340988159  0.872384250164032  0.643807351589203  1.0000
