data_image0
_chemical_formula_structural       HPbPr7Zr
_chemical_formula_sum              "H1 Pb1 Pr7 Zr1"
_cell_length_a       5.522113612291781
_cell_length_b       6.260585099114158
_cell_length_c       7.622642993927002
_cell_angle_alpha    121.88062578935892
_cell_angle_beta     89.75531061055197
_cell_angle_gamma    87.90498559688346

_space_group_name_H-M_alt    "P 1"
_space_group_IT_number       1

loop_
  _space_group_symop_operation_xyz
  'x, y, z'

loop_
  _atom_site_type_symbol
  _atom_site_label
  _atom_site_symmetry_multiplicity
  _atom_site_fract_x
  _atom_site_fract_y
  _atom_site_fract_z
  _atom_site_occupancy
  H   H1        1.0  0.5453009605407715  0.13834910094738007  0.3091699779033661  1.0000
  Pb  Pb1       1.0  0.05678313225507736  0.33674150705337524  0.31268632411956787  1.0000
  Pr  Pr1       1.0  0.5421724319458008  0.4029695391654968  0.16368654370307922  1.0000
  Pr  Pr2       1.0  0.5319468379020691  0.3544059991836548  0.13035136461257935  1.0000
  Pr  Pr3       1.0  0.5499613881111145  0.8471673130989075  0.03059992566704744  1.0000
  Pr  Pr4       1.0  0.06178966164588928  0.03872290253639221  0.8745267987251282  1.0000
  Pr  Pr5       1.0  0.5546609163284302  0.8304994702339172  0.5031110644340515  1.0000
  Pr  Pr6       1.0  0.5493543148040771  0.42773398756980896  0.5684902667999268  1.0000
  Pr  Pr7       1.0  0.0435001403093338  0.1336788833141327  0.7412473559379578  1.0000
  Zr  Zr1       1.0  0.04714637249708176  0.632297694683075  0.5581178069114685  1.0000
