data_image0
_chemical_formula_structural       MoPr5S2Th2
_chemical_formula_sum              "Mo1 Pr5 S2 Th2"
_cell_length_a       5.957046489322657
_cell_length_b       6.116779796962587
_cell_length_c       6.301767349243164
_cell_angle_alpha    116.0494872125289
_cell_angle_beta     118.2725198315067
_cell_angle_gamma    90.46462187282255

_space_group_name_H-M_alt    "P 1"
_space_group_IT_number       1

loop_
  _space_group_symop_operation_xyz
  'x, y, z'

loop_
  _atom_site_type_symbol
  _atom_site_label
  _atom_site_symmetry_multiplicity
  _atom_site_fract_x
  _atom_site_fract_y
  _atom_site_fract_z
  _atom_site_occupancy
  Mo  Mo1       1.0  0.6059530377388  0.32036328315734863  0.6964243054389954  1.0000
  Pr  Pr1       1.0  0.0671716183423996  0.7553609609603882  0.041957445442676544  1.0000
  Pr  Pr2       1.0  0.5574806332588196  0.4599415063858032  0.809985339641571  1.0000
  Pr  Pr3       1.0  0.6570563912391663  0.698207437992096  0.9235543012619019  1.0000
  Pr  Pr4       1.0  0.09994669258594513  0.45509427785873413  0.2549678981304169  1.0000
  Pr  Pr5       1.0  0.6180593371391296  0.17038999497890472  0.48762989044189453  1.0000
  S   S1        1.0  0.44126299023628235  0.7498034238815308  0.988777220249176  1.0000
  S   S2        1.0  0.5703665614128113  0.3737930357456207  0.5141247510910034  1.0000
  Th  Th1       1.0  0.9756063222885131  0.9528992772102356  0.5380832552909851  1.0000
  Th  Th2       1.0  0.47505247592926025  0.5647681951522827  0.5580666661262512  1.0000
