data_image0
_chemical_formula_structural       DyIP2Pr3Zr3
_chemical_formula_sum              "Dy1 I1 P2 Pr3 Zr3"
_cell_length_a       5.437760893019716
_cell_length_b       7.779481251072157
_cell_length_c       8.20462417602539
_cell_angle_alpha    121.92960338283058
_cell_angle_beta     90.31572010868345
_cell_angle_gamma    87.51650843760238

_space_group_name_H-M_alt    "P 1"
_space_group_IT_number       1

loop_
  _space_group_symop_operation_xyz
  'x, y, z'

loop_
  _atom_site_type_symbol
  _atom_site_label
  _atom_site_symmetry_multiplicity
  _atom_site_fract_x
  _atom_site_fract_y
  _atom_site_fract_z
  _atom_site_occupancy
  Dy  Dy1       1.0  0.512874960899353  0.29639074206352234  0.3799891173839569  1.0000
  I   I1        1.0  0.5112119913101196  0.6545052528381348  0.7797781825065613  1.0000
  P   P1        1.0  0.5181500315666199  0.6157037019729614  0.13220767676830286  1.0000
  P   P2        1.0  0.014387923292815685  0.7275219559669495  0.7170159220695496  1.0000
  Pr  Pr1       1.0  0.013226921670138836  0.5151533484458923  0.9387327432632446  1.0000
  Pr  Pr2       1.0  0.5144696831703186  0.6973863840103149  0.8145317435264587  1.0000
  Pr  Pr3       1.0  0.5148031115531921  0.1913997381925583  0.18064461648464203  1.0000
  Zr  Zr1       1.0  0.5111566781997681  0.39470434188842773  0.020609801635146113  1.0000
  Zr  Zr2       1.0  0.013837235048413277  0.23505611717700958  0.9410340785980225  1.0000
  Zr  Zr3       1.0  0.013429383747279644  0.2910730838775635  0.10804514586925507  1.0000
