data_image0
_chemical_formula_structural       Ca6I2
_chemical_formula_sum              "Ca6 I2"
_cell_length_a       7.031853306516852
_cell_length_b       6.833530652329552
_cell_length_c       7.081121444702148
_cell_angle_alpha    62.20692973932152
_cell_angle_beta     63.03781587144022
_cell_angle_gamma    63.96253996512879

_space_group_name_H-M_alt    "P 1"
_space_group_IT_number       1

loop_
  _space_group_symop_operation_xyz
  'x, y, z'

loop_
  _atom_site_type_symbol
  _atom_site_label
  _atom_site_symmetry_multiplicity
  _atom_site_fract_x
  _atom_site_fract_y
  _atom_site_fract_z
  _atom_site_occupancy
  Ca  Ca1       1.0  0.3748577833175659  0.9644505381584167  0.1710902452468871  1.0000
  Ca  Ca2       1.0  0.8743109107017516  0.08598918467760086  0.9295852184295655  1.0000
  Ca  Ca3       1.0  0.37395018339157104  0.8346614837646484  0.8099295496940614  1.0000
  Ca  Ca4       1.0  0.8799701333045958  0.27278679609298706  0.02683631703257561  1.0000
  Ca  Ca5       1.0  0.8713068366050719  0.8543739318847656  0.7525664567947389  1.0000
  Ca  Ca6       1.0  0.8755823969841002  0.8285968899726868  0.483592301607132  1.0000
  I   I1        1.0  0.37600579857826233  0.19098544120788574  0.11757364124059679  1.0000
  I   I2        1.0  0.3655046820640564  0.8531750440597534  0.2077398151159286  1.0000
