data_image0
_chemical_formula_structural       B2Ca4ISb
_chemical_formula_sum              "B2 Ca4 I1 Sb1"
_cell_length_a       5.516453293845847
_cell_length_b       4.881503288202164
_cell_length_c       5.817882537841797
_cell_angle_alpha    56.3485777617917
_cell_angle_beta     59.05977422011862
_cell_angle_gamma    54.17948198354126

_space_group_name_H-M_alt    "P 1"
_space_group_IT_number       1

loop_
  _space_group_symop_operation_xyz
  'x, y, z'

loop_
  _atom_site_type_symbol
  _atom_site_label
  _atom_site_symmetry_multiplicity
  _atom_site_fract_x
  _atom_site_fract_y
  _atom_site_fract_z
  _atom_site_occupancy
  B   B1        1.0  0.557042121887207  0.872306227684021  0.2088860422372818  1.0000
  B   B2        1.0  0.5650248527526855  0.8587521910667419  0.6151074171066284  1.0000
  Ca  Ca1       1.0  0.5721675157546997  0.5744495391845703  0.5548387169837952  1.0000
  Ca  Ca2       1.0  0.07326444983482361  0.8693881034851074  0.2761223316192627  1.0000
  Ca  Ca3       1.0  0.8245868682861328  0.4730369448661804  0.6281837224960327  1.0000
  Ca  Ca4       1.0  0.07634709030389786  0.5812928080558777  0.400060772895813  1.0000
  I   I1        1.0  0.5535056591033936  0.8813885450363159  0.7646093368530273  1.0000
  Sb  Sb1       1.0  0.8313244581222534  0.10876540094614029  0.6236783266067505  1.0000
