data_image0
_chemical_formula_structural       CsEu2NiO4V2
_chemical_formula_sum              "Cs1 Eu2 Ni1 O4 V2"
_cell_length_a       4.209631641904589
_cell_length_b       6.808338252319361
_cell_length_c       7.853476524353027
_cell_angle_alpha    110.3051710613492
_cell_angle_beta     91.94713746092114
_cell_angle_gamma    89.95044973276003

_space_group_name_H-M_alt    "P 1"
_space_group_IT_number       1

loop_
  _space_group_symop_operation_xyz
  'x, y, z'

loop_
  _atom_site_type_symbol
  _atom_site_label
  _atom_site_symmetry_multiplicity
  _atom_site_fract_x
  _atom_site_fract_y
  _atom_site_fract_z
  _atom_site_occupancy
  Cs  Cs1       1.0  0.6587831974029541  0.22639763355255127  0.8799052834510803  1.0000
  Eu  Eu1       1.0  0.06595436483621597  0.5433051586151123  0.2200309485197067  1.0000
  Eu  Eu2       1.0  0.9856710433959961  0.03480152040719986  0.48830509185791016  1.0000
  Ni  Ni1       1.0  0.4690117835998535  0.8641148805618286  0.5468918681144714  1.0000
  O   O1        1.0  0.29904329776763916  0.34575191140174866  0.407540500164032  1.0000
  O   O2        1.0  0.8202890753746033  0.03432944416999817  0.717879593372345  1.0000
  O   O3        1.0  0.4864731729030609  0.1409594863653183  0.4901640713214874  1.0000
  O   O4        1.0  0.5391994118690491  0.7542893290519714  0.4224961996078491  1.0000
  V   V1        1.0  0.5929628014564514  0.03990110382437706  0.7311992049217224  1.0000
  V   V2        1.0  0.30186519026756287  0.5314196944236755  0.6919679045677185  1.0000
