data_image0
_chemical_formula_structural       Eu2HO5ScZn
_chemical_formula_sum              "Eu2 H1 O5 Sc1 Zn1"
_cell_length_a       4.341001556925634
_cell_length_b       6.368446986672541
_cell_length_c       8.048476219177246
_cell_angle_alpha    109.66532080420264
_cell_angle_beta     101.32521757418445
_cell_angle_gamma    98.73778329284193

_space_group_name_H-M_alt    "P 1"
_space_group_IT_number       1

loop_
  _space_group_symop_operation_xyz
  'x, y, z'

loop_
  _atom_site_type_symbol
  _atom_site_label
  _atom_site_symmetry_multiplicity
  _atom_site_fract_x
  _atom_site_fract_y
  _atom_site_fract_z
  _atom_site_occupancy
  Eu  Eu1       1.0  0.5647979974746704  0.805227518081665  0.596576452255249  1.0000
  Eu  Eu2       1.0  0.9507303833961487  0.12685677409172058  0.9405163526535034  1.0000
  H   H1        1.0  0.49384644627571106  0.1251543015241623  0.8628455400466919  1.0000
  O   O1        1.0  0.03169609606266022  0.29823535680770874  0.541264533996582  1.0000
  O   O2        1.0  0.35712817311286926  0.4898574948310852  0.3717719316482544  1.0000
  O   O3        1.0  0.5396768450737  0.4576285779476166  0.9194629788398743  1.0000
  O   O4        1.0  0.8530539870262146  0.293316125869751  0.17203593254089355  1.0000
  O   O5        1.0  0.0036624823696911335  0.91651451587677  0.7937239408493042  1.0000
  Sc  Sc1       1.0  0.394046813249588  0.993347704410553  0.3663427531719208  1.0000
  Zn  Zn1       1.0  0.829738974571228  0.771557629108429  0.11362884193658829  1.0000
