data_image0
_chemical_formula_structural       O6PScSeW
_chemical_formula_sum              "O6 P1 Sc1 Se1 W1"
_cell_length_a       6.067254742005734
_cell_length_b       5.998267684942282
_cell_length_c       6.56379508972168
_cell_angle_alpha    102.58180467730907
_cell_angle_beta     106.99923113120717
_cell_angle_gamma    114.8088862785005

_space_group_name_H-M_alt    "P 1"
_space_group_IT_number       1

loop_
  _space_group_symop_operation_xyz
  'x, y, z'

loop_
  _atom_site_type_symbol
  _atom_site_label
  _atom_site_symmetry_multiplicity
  _atom_site_fract_x
  _atom_site_fract_y
  _atom_site_fract_z
  _atom_site_occupancy
  O   O1        1.0  0.9493665099143981  0.8694565892219543  0.5610768795013428  1.0000
  O   O2        1.0  0.5664947032928467  0.8221490383148193  0.3634064495563508  1.0000
  O   O3        1.0  0.6902943849563599  0.6153115630149841  0.1161433607339859  1.0000
  O   O4        1.0  0.9952009320259093  0.34203124046325684  0.3626917898654938  1.0000
  O   O5        1.0  0.9598228931427001  0.9037474989891052  0.3672109544277191  1.0000
  O   O6        1.0  0.5629869103431702  0.4396306574344635  0.3644862771034241  1.0000
  P   P1        1.0  0.6310708522796631  0.10202702134847641  0.08363737165927887  1.0000
  Sc  Sc1       1.0  0.7992731928825377  0.3689687252044678  0.31036603450775146  1.0000
  Se  Se1       1.0  0.28409719467163086  0.6081477403640747  0.5649965405464172  1.0000
  W   W1        1.0  0.7399485111236571  0.29118871688842773  0.5646124482154846  1.0000
