data_image0
_chemical_formula_structural       Eu2O5UW2
_chemical_formula_sum              "Eu2 O5 U1 W2"
_cell_length_a       5.314527225750952
_cell_length_b       5.62854627143765
_cell_length_c       6.138721466064453
_cell_angle_alpha    100.6145965899596
_cell_angle_beta     89.72072268363549
_cell_angle_gamma    102.60228036761056

_space_group_name_H-M_alt    "P 1"
_space_group_IT_number       1

loop_
  _space_group_symop_operation_xyz
  'x, y, z'

loop_
  _atom_site_type_symbol
  _atom_site_label
  _atom_site_symmetry_multiplicity
  _atom_site_fract_x
  _atom_site_fract_y
  _atom_site_fract_z
  _atom_site_occupancy
  Eu  Eu1       1.0  0.025695929303765297  0.10023511201143265  0.22760169208049774  1.0000
  Eu  Eu2       1.0  0.030400274321436882  0.6809062957763672  0.032399732619524  1.0000
  O   O1        1.0  0.2638836205005646  0.9203224182128906  0.3771267235279083  1.0000
  O   O2        1.0  0.03373175486922264  0.2566523849964142  0.057341430336236954  1.0000
  O   O3        1.0  0.7182726860046387  0.3543356657028198  0.5357857346534729  1.0000
  O   O4        1.0  0.698995053768158  0.9262486100196838  0.6964877843856812  1.0000
  O   O5        1.0  0.7306410670280457  0.9760072231292725  0.5550864934921265  1.0000
  U   U1        1.0  0.5284393429756165  0.16864976286888123  0.9869576096534728  1.0000
  W   W1        1.0  0.40111857652664185  0.8551157712936401  0.9815806746482848  1.0000
  W   W2        1.0  0.4965108335018158  0.6386287212371826  0.36816829442977905  1.0000
