data_image0
_chemical_formula_structural       O5PScSeWZn
_chemical_formula_sum              "O5 P1 Sc1 Se1 W1 Zn1"
_cell_length_a       5.250159572298434
_cell_length_b       6.5769616995994085
_cell_length_c       6.567645072937012
_cell_angle_alpha    113.14325517072429
_cell_angle_beta     101.62133976550047
_cell_angle_gamma    108.02120056734017

_space_group_name_H-M_alt    "P 1"
_space_group_IT_number       1

loop_
  _space_group_symop_operation_xyz
  'x, y, z'

loop_
  _atom_site_type_symbol
  _atom_site_label
  _atom_site_symmetry_multiplicity
  _atom_site_fract_x
  _atom_site_fract_y
  _atom_site_fract_z
  _atom_site_occupancy
  O   O1        1.0  0.20238639414310455  0.6884229779243469  0.33853793144226063  1.0000
  O   O2        1.0  0.9011775851249696  0.8545672297477722  0.6256999969482422  1.0000
  O   O3        1.0  0.5313326716423035  0.5020163059234619  0.7953443527221679  1.0000
  O   O4        1.0  0.4269443154335022  0.19420993328094482  0.5533245801925659  1.0000
  O   O5        1.0  0.20634415745735168  0.7862343788146973  0.5925219058990479  1.0000
  P   P1        1.0  0.15150991082191467  0.4393472969532013  0.045057307928800576  1.0000
  Sc  Sc1       1.0  0.9359706044197084  0.8732327222824097  0.7360819578170775  1.0000
  Se  Se1       1.0  0.7876361012458801  0.04202723130583763  0.9542948007583617  1.0000
  W   W1        1.0  0.5131747126579285  0.3903800845146179  0.8277934193611144  1.0000
  Zn  Zn1       1.0  0.6976397633552551  0.17774289846420288  0.5450562834739685  1.0000
