data_image0
_chemical_formula_structural       EuGeO5UW2
_chemical_formula_sum              "Eu1 Ge1 O5 U1 W2"
_cell_length_a       4.883491858684617
_cell_length_b       5.316397281012859
_cell_length_c       6.827066421508789
_cell_angle_alpha    86.92196617700023
_cell_angle_beta     89.31182400785907
_cell_angle_gamma    90.9273170774547

_space_group_name_H-M_alt    "P 1"
_space_group_IT_number       1

loop_
  _space_group_symop_operation_xyz
  'x, y, z'

loop_
  _atom_site_type_symbol
  _atom_site_label
  _atom_site_symmetry_multiplicity
  _atom_site_fract_x
  _atom_site_fract_y
  _atom_site_fract_z
  _atom_site_occupancy
  Eu  Eu1       1.0  0.8199790716171265  0.049205321818590164  0.06844072788953781  1.0000
  Ge  Ge1       1.0  0.07193725556135178  0.23002129793167114  0.06497117877006531  1.0000
  O   O1        1.0  0.23586033284664154  0.4693140387535095  0.8153008818626404  1.0000
  O   O2        1.0  0.7341240644454956  0.7356149554252625  0.5649212598800659  1.0000
  O   O3        1.0  0.24316847324371338  0.7137842178344727  0.7412589192390442  1.0000
  O   O4        1.0  0.651136040687561  0.438151091337204  0.2436000555753708  1.0000
  O   O5        1.0  0.2483137845993042  0.4506540894508362  0.5631430149078369  1.0000
  U   U1        1.0  0.3752981722354889  0.7534427046775818  0.05440274998545647  1.0000
  W   W1        1.0  0.8449515700340271  0.7626667618751526  0.8156655430793762  1.0000
  W   W2        1.0  0.807553231716156  0.38769975304603577  0.06429795175790787  1.0000
