data_image0
_chemical_formula_structural       FILi5O3PbSi3
_chemical_formula_sum              "F1 I1 Li5 O3 Pb1 Si3"
_cell_length_a       6.024397031318334
_cell_length_b       6.245055467058928
_cell_length_c       6.581878185272217
_cell_angle_alpha    68.29136033722241
_cell_angle_beta     65.53473224839503
_cell_angle_gamma    63.6658860320204

_space_group_name_H-M_alt    "P 1"
_space_group_IT_number       1

loop_
  _space_group_symop_operation_xyz
  'x, y, z'

loop_
  _atom_site_type_symbol
  _atom_site_label
  _atom_site_symmetry_multiplicity
  _atom_site_fract_x
  _atom_site_fract_y
  _atom_site_fract_z
  _atom_site_occupancy
  F   F1        1.0  0.9578388929367065  0.5942298173904419  0.9830341339111327  1.0000
  I   I1        1.0  0.9518387317657471  0.3176541328430176  0.5718801021575928  1.0000
  Li  Li1       1.0  0.451790988445282  0.9588861465454102  0.9134278297424315  1.0000
  Li  Li2       1.0  0.9293209314346313  0.22464632987976074  0.204411894083023  1.0000
  Li  Li3       1.0  0.9532383680343628  0.7710525393486023  0.30938732624053955  1.0000
  Li  Li4       1.0  0.9313021302223206  0.7399908304214478  0.7839273810386657  1.0000
  Li  Li5       1.0  0.4664439857006073  0.9303744435310364  0.9583988785743712  1.0000
  O   O1        1.0  0.2511097192764282  0.5242724418640137  0.8300451040267943  1.0000
  O   O2        1.0  0.8599448204040527  0.6212186217308044  0.22490055859088895  1.0000
  O   O3        1.0  0.45859378576278687  0.189533531665802  0.0482480376958847  1.0000
  Pb  Pb1       1.0  0.7243227362632751  0.3874484896659851  0.40206322073936457  1.0000
  Si  Si1       1.0  0.26266393065452576  0.7941496968269348  0.07684121280908585  1.0000
  Si  Si2       1.0  0.2761094868183136  0.7610899806022644  0.2464446574449539  1.0000
  Si  Si3       1.0  0.8995152115821838  0.7532917857170105  0.2439323514699935  1.0000
