data_image0
_chemical_formula_structural       Li5O4PbSi4
_chemical_formula_sum              "Li5 O4 Pb1 Si4"
_cell_length_a       5.150886729477329
_cell_length_b       5.647162311319619
_cell_length_c       6.032898902893066
_cell_angle_alpha    69.6772500368376
_cell_angle_beta     63.31432709643546
_cell_angle_gamma    66.51197657418672

_space_group_name_H-M_alt    "P 1"
_space_group_IT_number       1

loop_
  _space_group_symop_operation_xyz
  'x, y, z'

loop_
  _atom_site_type_symbol
  _atom_site_label
  _atom_site_symmetry_multiplicity
  _atom_site_fract_x
  _atom_site_fract_y
  _atom_site_fract_z
  _atom_site_occupancy
  Li  Li1       1.0  0.11776535958051682  0.3263882100582123  0.016046419739723206  1.0000
  Li  Li2       1.0  0.42806634306907654  0.7809509038925171  0.5186374187469482  1.0000
  Li  Li3       1.0  0.8571498394012451  0.1169094666838646  0.8053482174873352  1.0000
  Li  Li4       1.0  0.05459491163492203  0.3861153721809387  0.020084351301193237  1.0000
  Li  Li5       1.0  0.854655921459198  0.14546990394592285  0.3382927179336548  1.0000
  O   O1        1.0  0.6918461322784424  0.6677356362342834  0.1490596979856491  1.0000
  O   O2        1.0  0.34072431921958923  0.4405103921890259  0.029453789815306664  1.0000
  O   O3        1.0  0.47537171840667725  0.573114812374115  0.48518651723861694  1.0000
  O   O4        1.0  0.580776572227478  0.32591351866722107  0.5379863977432251  1.0000
  Pb  Pb1       1.0  0.8886366486549377  0.12594445049762726  0.35085228085517894  1.0000
  Si  Si1       1.0  0.240640327334404  0.5635821223258972  0.905414342880249  1.0000
  Si  Si2       1.0  0.10881255567073822  0.4693330228328705  0.32167911529541016  1.0000
  Si  Si3       1.0  0.6939390301704407  0.7934631705284119  0.9635941386222839  1.0000
  Si  Si4       1.0  0.36505553126335144  0.08574358373880386  0.6223681569099426  1.0000
