data_image0
_chemical_formula_structural       F2GeLi4NiO3Si3
_chemical_formula_sum              "F2 Ge1 Li4 Ni1 O3 Si3"
_cell_length_a       5.770301610760125
_cell_length_b       4.017081456890175
_cell_length_c       5.55805778503418
_cell_angle_alpha    37.534318560393785
_cell_angle_beta     57.421619776275186
_cell_angle_gamma    50.75886392063686

_space_group_name_H-M_alt    "P 1"
_space_group_IT_number       1

loop_
  _space_group_symop_operation_xyz
  'x, y, z'

loop_
  _atom_site_type_symbol
  _atom_site_label
  _atom_site_symmetry_multiplicity
  _atom_site_fract_x
  _atom_site_fract_y
  _atom_site_fract_z
  _atom_site_occupancy
  F   F1        1.0  0.6992006301879883  0.9166296124458315  0.2803494632244109  1.0000
  F   F2        1.0  0.7369265556335449  0.41985613107681263  0.7858108878135681  1.0000
  Ge  Ge1       1.0  0.9502041935920716  0.3706943988800048  0.9251384139060974  1.0000
  Li  Li1       1.0  0.935266673564911  0.3913621604442596  0.43948671221733093  1.0000
  Li  Li2       1.0  0.6396093964576721  0.4148172736167908  0.16943007707595817  1.0000
  Li  Li3       1.0  0.9711563587188722  0.3388901650905611  0.33368635177612294  1.0000
  Li  Li4       1.0  0.27063894271850586  0.2602304220199585  0.603169560432434  1.0000
  Ni  Ni1       1.0  0.9388989210128785  0.7138498425483704  0.4798623621463775  1.0000
  O   O1        1.0  0.1697520911693573  0.004455151967704371  0.6397047638893129  1.0000
  O   O2        1.0  0.9571747183799745  0.3615697324275971  0.4152937531471252  1.0000
  O   O3        1.0  0.4229309558868408  0.22357647120952615  0.27294969558715815  1.0000
  Si  Si1       1.0  0.6035400032997131  0.8487040996551516  0.5654404163360593  1.0000
  Si  Si2       1.0  0.328386127948761  0.6571031808853152  0.9960818290710448  1.0000
  Si  Si3       1.0  0.7367427945137024  0.40939244627952615  0.7348987460136412  1.0000
