data_image0
_chemical_formula_structural       AlFHLi2O5PSbSi2
_chemical_formula_sum              "Al1 F1 H1 Li2 O5 P1 Sb1 Si2"
_cell_length_a       6.234185806238356
_cell_length_b       6.026155333463655
_cell_length_c       5.8797688484191895
_cell_angle_alpha    56.74546653633044
_cell_angle_beta     62.50973085981631
_cell_angle_gamma    55.239473452449666

_space_group_name_H-M_alt    "P 1"
_space_group_IT_number       1

loop_
  _space_group_symop_operation_xyz
  'x, y, z'

loop_
  _atom_site_type_symbol
  _atom_site_label
  _atom_site_symmetry_multiplicity
  _atom_site_fract_x
  _atom_site_fract_y
  _atom_site_fract_z
  _atom_site_occupancy
  Al  Al1       1.0  0.5674000382423401  0.9027239680290222  0.8297376632690429  1.0000
  F   F1        1.0  0.7642485499382019  0.2900974750518799  0.24228940904140478  1.0000
  H   H1        1.0  0.011278203688561916  0.4645783603191376  0.6656551361083984  1.0000
  Li  Li1       1.0  0.29203441739082336  0.5668050646781921  0.12388278543949126  1.0000
  Li  Li2       1.0  0.15851855278015137  0.2963540554046631  0.42627561092376703  1.0000
  O   O1        1.0  0.2907832860946655  0.18483060598373413  0.614777147769928  1.0000
  O   O2        1.0  0.039957888424396515  0.9720783233642578  0.07950353622436523  1.0000
  O   O3        1.0  0.5151242613792419  0.6114591360092163  0.38104683160781866  1.0000
  O   O4        1.0  0.2954877018928528  0.2630922496318817  0.31310731172561646  1.0000
  O   O5        1.0  0.06207126751542091  0.1935403048992157  0.4218254089355468  1.0000
  P   P1        1.0  0.48181232810020447  0.5447123050689697  0.505901038646698  1.0000
  Sb  Sb1       1.0  0.5299037098884583  0.30209463834762573  0.33698320388793945  1.0000
  Si  Si1       1.0  0.6684796810150146  0.7131500244140625  0.8221411705017089  1.0000
  Si  Si2       1.0  0.2774064242839813  0.5441476702690125  0.01089678704738617  1.0000
