data_image0
_chemical_formula_structural       FeLi4O5Si4
_chemical_formula_sum              "Fe1 Li4 O5 Si4"
_cell_length_a       5.686889390737862
_cell_length_b       6.776321685730997
_cell_length_c       6.956542491912842
_cell_angle_alpha    71.31037786864373
_cell_angle_beta     65.35708462730983
_cell_angle_gamma    64.47950211764619

_space_group_name_H-M_alt    "P 1"
_space_group_IT_number       1

loop_
  _space_group_symop_operation_xyz
  'x, y, z'

loop_
  _atom_site_type_symbol
  _atom_site_label
  _atom_site_symmetry_multiplicity
  _atom_site_fract_x
  _atom_site_fract_y
  _atom_site_fract_z
  _atom_site_occupancy
  Fe  Fe1       1.0  0.436888188123703  0.19715332984924316  0.09271421283483507  1.0000
  Li  Li1       1.0  0.4135865569114685  0.0930943489074707  0.35772392153739935  1.0000
  Li  Li2       1.0  0.5240260362625122  0.7365292906761169  0.9093117117881776  1.0000
  Li  Li3       1.0  0.05047614127397537  0.8707854151725769  0.4895606338977814  1.0000
  Li  Li4       1.0  0.9303203225135803  0.8440269231796265  0.15477950870990753  1.0000
  O   O1        1.0  0.4504210352897644  0.7127935290336609  0.4905254542827607  1.0000
  O   O2        1.0  0.4989694058895111  0.9348353147506714  0.8275573253631593  1.0000
  O   O3        1.0  0.5342793464660645  0.4333753287792206  0.5405688881874084  1.0000
  O   O4        1.0  0.9473788142204285  0.6436203122138977  0.02175264060497284  1.0000
  O   O5        1.0  0.10952132940292358  0.6310871243476868  0.3028159439563751  1.0000
  Si  Si1       1.0  0.05315177142620087  0.8876859545707703  0.9585078954696656  1.0000
  Si  Si2       1.0  0.540336549282074  0.28505775332450867  0.42193076014518743  1.0000
  Si  Si3       1.0  0.551654040813446  0.03445359319448471  0.7193892002105714  1.0000
  Si  Si4       1.0  0.05239534750580788  0.28910812735557556  0.7410619258880616  1.0000
