data_image0
_chemical_formula_structural       Li9O4Si
_chemical_formula_sum              "Li9 O4 Si1"
_cell_length_a       5.772819133390421
_cell_length_b       5.279053005681334
_cell_length_c       5.73568868637085
_cell_angle_alpha    63.063256999466304
_cell_angle_beta     61.502052311443364
_cell_angle_gamma    56.39444611558143

_space_group_name_H-M_alt    "P 1"
_space_group_IT_number       1

loop_
  _space_group_symop_operation_xyz
  'x, y, z'

loop_
  _atom_site_type_symbol
  _atom_site_label
  _atom_site_symmetry_multiplicity
  _atom_site_fract_x
  _atom_site_fract_y
  _atom_site_fract_z
  _atom_site_occupancy
  Li  Li1       1.0  0.738452136516571  0.3645857870578766  0.13060295581817627  1.0000
  Li  Li2       1.0  0.12978284060955048  0.1179317757487297  0.13476422429084778  1.0000
  Li  Li3       1.0  0.21134260296821594  0.6293843984603882  0.8790604472160339  1.0000
  Li  Li4       1.0  0.6880800127983093  0.48468783497810364  0.0740061029791832  1.0000
  Li  Li5       1.0  0.65262371301651  0.06231767684221268  0.5547139644622803  1.0000
  Li  Li6       1.0  0.7208924293518066  0.8216145634651184  0.01183447428047657  1.0000
  Li  Li7       1.0  0.9505897760391235  0.5484427213668823  0.41253241896629333  1.0000
  Li  Li8       1.0  0.7322851419448853  0.658572793006897  0.8448815941810608  1.0000
  Li  Li9       1.0  0.21333591639995575  0.8661877512931824  0.8779419660568237  1.0000
  O   O1        1.0  0.43824782967567444  0.9317883849143982  0.6071342825889587  1.0000
  O   O2        1.0  0.3673155903816223  0.3255482614040375  0.38096868991851807  1.0000
  O   O3        1.0  0.656333327293396  0.6468114256858826  0.4525792002677918  1.0000
  O   O4        1.0  0.7047282457351685  0.4217260479927063  0.805769145488739  1.0000
  Si  Si1       1.0  0.3441592752933502  0.21434631943702698  0.21678663790225983  1.0000
