data_image0
_chemical_formula_structural       HLi2Pt5Zr
_chemical_formula_sum              "H1 Li2 Pt5 Zr1"
_cell_length_a       6.84083443724199
_cell_length_b       7.023976801202251
_cell_length_c       7.511175155639648
_cell_angle_alpha    62.3236857246213
_cell_angle_beta     64.30312313211044
_cell_angle_gamma    61.92923576387694

_space_group_name_H-M_alt    "P 1"
_space_group_IT_number       1

loop_
  _space_group_symop_operation_xyz
  'x, y, z'

loop_
  _atom_site_type_symbol
  _atom_site_label
  _atom_site_symmetry_multiplicity
  _atom_site_fract_x
  _atom_site_fract_y
  _atom_site_fract_z
  _atom_site_occupancy
  H   H1        1.0  0.13554148375988007  0.6757586002349854  0.5232987403869629  1.0000
  Li  Li1       1.0  0.6602379083633423  0.14254076778888702  0.8979969024658202  1.0000
  Li  Li2       1.0  0.12622030079364777  0.11300298571586609  0.52302485704422  1.0000
  Pt  Pt1       1.0  0.1527015119791031  0.07018673419952393  0.2967301309108734  1.0000
  Pt  Pt2       1.0  0.9103558659553528  0.3567247986793518  0.22396808862686154  1.0000
  Pt  Pt3       1.0  0.21822865307331085  0.8897802829742432  0.6181294322013855  1.0000
  Pt  Pt4       1.0  0.3931904137134552  0.6917937994003296  0.37868538498878473  1.0000
  Pt  Pt5       1.0  0.4058448374271393  0.5849531888961792  0.19962550699710843  1.0000
  Zr  Zr1       1.0  0.6448844075202942  0.7545089721679688  0.2758534848690033  1.0000
