data_image0
_chemical_formula_structural       As2HPrPt5
_chemical_formula_sum              "As2 H1 Pr1 Pt5"
_cell_length_a       4.40146264205207
_cell_length_b       4.069077349789143
_cell_length_c       8.956087112426758
_cell_angle_alpha    94.60653616661313
_cell_angle_beta     89.27146624150437
_cell_angle_gamma    94.97276007254365

_space_group_name_H-M_alt    "P 1"
_space_group_IT_number       1

loop_
  _space_group_symop_operation_xyz
  'x, y, z'

loop_
  _atom_site_type_symbol
  _atom_site_label
  _atom_site_symmetry_multiplicity
  _atom_site_fract_x
  _atom_site_fract_y
  _atom_site_fract_z
  _atom_site_occupancy
  As  As1       1.0  0.037630289793014526  0.009033194743096828  0.8124271631240845  1.0000
  As  As2       1.0  0.5378004908561707  0.23375831544399261  0.3918490707874298  1.0000
  H   H1        1.0  0.5281664729118347  0.6452420949935913  0.1338542252779007  1.0000
  Pr  Pr1       1.0  0.5386549234390259  0.9065601229667664  0.29865404963493347  1.0000
  Pt  Pt1       1.0  0.03340286761522293  0.1277487426996231  0.2510263919830322  1.0000
  Pt  Pt2       1.0  0.03968736156821251  0.2985515594482422  0.34688878059387207  1.0000
  Pt  Pt3       1.0  0.5306850075721741  0.7001060843467712  0.22263658046722412  1.0000
  Pt  Pt4       1.0  0.539290726184845  0.44792309403419495  0.6728769540786743  1.0000
  Pt  Pt5       1.0  0.03813185915350914  0.007857303135097027  0.7073229551315308  1.0000
