data_image0
_chemical_formula_structural       As4CsPt3Si
_chemical_formula_sum              "As4 Cs1 Pt3 Si1"
_cell_length_a       6.431256883015094
_cell_length_b       6.526744685215346
_cell_length_c       6.770177841186523
_cell_angle_alpha    59.79673352062453
_cell_angle_beta     63.1888989136083
_cell_angle_gamma    61.779807903629504

_space_group_name_H-M_alt    "P 1"
_space_group_IT_number       1

loop_
  _space_group_symop_operation_xyz
  'x, y, z'

loop_
  _atom_site_type_symbol
  _atom_site_label
  _atom_site_symmetry_multiplicity
  _atom_site_fract_x
  _atom_site_fract_y
  _atom_site_fract_z
  _atom_site_occupancy
  As  As1       1.0  0.9255362153053283  0.035315148532390594  0.2784087955951692  1.0000
  As  As2       1.0  0.41951957345008845  0.7326339483261108  0.05805739015340806  1.0000
  As  As3       1.0  0.4471097886562347  0.49060437083244324  0.6031683683395386  1.0000
  As  As4       1.0  0.7474825978279114  0.5805777311325073  0.06740054488182068  1.0000
  Cs  Cs1       1.0  0.4175684750080108  0.9076136946678162  0.9138631820678712  1.0000
  Pt  Pt1       1.0  0.17545096576213837  0.86024010181427  0.5673444867134094  1.0000
  Pt  Pt2       1.0  0.9642803072929381  0.21158407628536224  0.6518136262893677  1.0000
  Pt  Pt3       1.0  0.9380066394805907  0.3168838322162628  0.22168657183647164  1.0000
  Si  Si1       1.0  0.005821671802550554  0.5197062492370605  0.8965915441513063  1.0000
