data_image0
_chemical_formula_structural       BBi5O6Se
_chemical_formula_sum              "B1 Bi5 O6 Se1"
_cell_length_a       5.518802021231895
_cell_length_b       6.747225446830443
_cell_length_c       8.178967475891113
_cell_angle_alpha    112.45921198782007
_cell_angle_beta     107.59779625881625
_cell_angle_gamma    95.15908831592157

_space_group_name_H-M_alt    "P 1"
_space_group_IT_number       1

loop_
  _space_group_symop_operation_xyz
  'x, y, z'

loop_
  _atom_site_type_symbol
  _atom_site_label
  _atom_site_symmetry_multiplicity
  _atom_site_fract_x
  _atom_site_fract_y
  _atom_site_fract_z
  _atom_site_occupancy
  B   B1        1.0  0.03530389815568924  0.41869646310806274  0.7503125071525574  1.0000
  Bi  Bi1       1.0  0.9438198804855347  0.26609596610069275  0.3160673677921295  1.0000
  Bi  Bi2       1.0  0.5109369158744812  0.5897254943847656  0.9772197008132935  1.0000
  Bi  Bi3       1.0  0.46112674474716187  0.07503214478492737  0.24278926849365234  1.0000
  Bi  Bi4       1.0  0.9725073575973511  0.7330394387245178  0.6343189477920532  1.0000
  Bi  Bi5       1.0  0.5182900428771973  0.9597115516662599  0.7783461809158325  1.0000
  O   O1        1.0  0.5898892879486084  0.07146630436182022  0.6069297790527344  1.0000
  O   O2        1.0  0.23213772475719452  0.41644352674484253  0.5616991519927979  1.0000
  O   O3        1.0  0.20512990653514862  0.09944784641265869  0.820304811000824  1.0000
  O   O4        1.0  0.825991690158844  0.7813405990600586  0.6583536267280579  1.0000
  O   O5        1.0  0.02317255735397339  0.4097011983394623  0.12455886602401733  1.0000
  O   O6        1.0  0.4931753873825073  0.7751463651657104  0.374397337436676  1.0000
  Se  Se1       1.0  0.9723067283630371  0.9518658518791199  0.43216484785079956  1.0000
