data_image0
_chemical_formula_structural       BBi3O7P2
_chemical_formula_sum              "B1 Bi3 O7 P2"
_cell_length_a       5.888111228736441
_cell_length_b       6.132121520176899
_cell_length_c       7.079441070556641
_cell_angle_alpha    114.45197338581795
_cell_angle_beta     109.60613160399106
_cell_angle_gamma    92.30762183811957

_space_group_name_H-M_alt    "P 1"
_space_group_IT_number       1

loop_
  _space_group_symop_operation_xyz
  'x, y, z'

loop_
  _atom_site_type_symbol
  _atom_site_label
  _atom_site_symmetry_multiplicity
  _atom_site_fract_x
  _atom_site_fract_y
  _atom_site_fract_z
  _atom_site_occupancy
  B   B1        1.0  0.2523643970489502  0.0916389673948288  0.532575249671936  1.0000
  Bi  Bi1       1.0  0.18990102410316467  0.7090212106704712  0.32567584514617925  1.0000
  Bi  Bi2       1.0  0.5370357632637024  0.7306839227676392  0.6217503547668457  1.0000
  Bi  Bi3       1.0  0.7746628522872925  0.06270781904459  0.352980375289917  1.0000
  O   O1        1.0  0.7984506487846375  0.8400055766105652  0.3368895649909973  1.0000
  O   O2        1.0  0.7846710085868835  0.5425822138786316  0.01987878978252411  1.0000
  O   O3        1.0  0.4201512634754181  0.7190012335777283  0.4657760560512543  1.0000
  O   O4        1.0  0.7132360935211182  0.21074892580509186  0.519236147403717  1.0000
  O   O5        1.0  0.5196952223777771  0.45487216114997864  0.17811261117458344  1.0000
  O   O6        1.0  0.28624215722084045  0.370391309261322  0.286060094833374  1.0000
  O   O7        1.0  0.6428708434104919  0.2102840691804886  0.7458877563476562  1.0000
  P   P1        1.0  0.2873755693435669  0.6372561454772949  0.16718333959579468  1.0000
  P   P2        1.0  0.7868491411209106  0.3273537755012512  0.17193076014518738  1.0000
