data_image0
_chemical_formula_structural       Bi2Fe2O4P5
_chemical_formula_sum              "Bi2 Fe2 O4 P5"
_cell_length_a       6.016988152537786
_cell_length_b       6.166208206705885
_cell_length_c       6.111241340637207
_cell_angle_alpha    105.4863624194027
_cell_angle_beta     104.4976877041091
_cell_angle_gamma    111.36415243099007

_space_group_name_H-M_alt    "P 1"
_space_group_IT_number       1

loop_
  _space_group_symop_operation_xyz
  'x, y, z'

loop_
  _atom_site_type_symbol
  _atom_site_label
  _atom_site_symmetry_multiplicity
  _atom_site_fract_x
  _atom_site_fract_y
  _atom_site_fract_z
  _atom_site_occupancy
  Bi  Bi1       1.0  0.04611875116825104  0.7626938819885254  0.1922433823347092  1.0000
  Bi  Bi2       1.0  0.045754577964544296  0.12253140658140182  0.9285854101181031  1.0000
  Fe  Fe1       1.0  0.5183508396148682  0.5076777935028076  0.37097761034965515  1.0000
  Fe  Fe2       1.0  0.03209106996655464  0.2851700186729431  0.08745571225881577  1.0000
  O   O1        1.0  0.0013813972473144531  0.490947425365448  0.8736045360565186  1.0000
  O   O2        1.0  0.68669593334198  0.7116342186927795  0.8672152161598206  1.0000
  O   O3        1.0  0.7250747680664062  0.055243972688913345  0.29314306378364563  1.0000
  O   O4        1.0  0.6243828535079956  0.1696082204580307  0.08028257638216019  1.0000
  P   P1        1.0  0.48498308658599854  0.017720544710755348  0.410164475440979  1.0000
  P   P2        1.0  0.34653621912002563  0.7411879897117615  0.7799588441848755  1.0000
  P   P3        1.0  0.5429862141609192  0.9910870790481567  0.6645504832267761  1.0000
  P   P4        1.0  0.5065091252326965  0.5230398774147034  0.5929202437400818  1.0000
  P   P5        1.0  0.1777576208114624  0.9383627772331238  0.3103700280189514  1.0000
