data_image0
_chemical_formula_structural       Bi3O6P4
_chemical_formula_sum              "Bi3 O6 P4"
_cell_length_a       6.59159306656893
_cell_length_b       6.743087591278399
_cell_length_c       7.4842000007629395
_cell_angle_alpha    66.53279631606577
_cell_angle_beta     65.9011317632439
_cell_angle_gamma    61.878871709885516

_space_group_name_H-M_alt    "P 1"
_space_group_IT_number       1

loop_
  _space_group_symop_operation_xyz
  'x, y, z'

loop_
  _atom_site_type_symbol
  _atom_site_label
  _atom_site_symmetry_multiplicity
  _atom_site_fract_x
  _atom_site_fract_y
  _atom_site_fract_z
  _atom_site_occupancy
  Bi  Bi1       1.0  0.12434399873018266  0.8006724715232849  0.45524027943611145  1.0000
  Bi  Bi2       1.0  0.716111958026886  0.1306931972503662  0.15809932351112366  1.0000
  Bi  Bi3       1.0  0.6326690316200256  0.7871357202529907  0.6583365797996521  1.0000
  O   O1        1.0  0.30940231680870056  0.5108247995376587  0.5003789067268372  1.0000
  O   O2        1.0  0.751630961894989  0.6950348615646362  0.20601822435855865  1.0000
  O   O3        1.0  0.6417400240898132  0.29587817192077637  0.5145350694656372  1.0000
  O   O4        1.0  0.9280651211738588  0.7569652795791626  0.43828850984573364  1.0000
  O   O5        1.0  0.34418871998786926  0.7101589441299438  0.45451003313064575  1.0000
  O   O6        1.0  0.6754813194274902  0.0806550458073616  0.8928536772727966  1.0000
  P   P1        1.0  0.0032402919605374336  0.6271170377731323  0.49615561962127686  1.0000
  P   P2        1.0  0.012350304052233696  0.18705298006534576  0.7839075922966003  1.0000
  P   P3        1.0  0.3157895803451538  0.19265969097614288  0.010709213092923164  1.0000
  P   P4        1.0  0.72945636510849  0.707176685333252  0.9529191255569458  1.0000
