data_image0
_chemical_formula_structural       Bi3O6P3Se
_chemical_formula_sum              "Bi3 O6 P3 Se1"
_cell_length_a       6.655288440891407
_cell_length_b       6.90886617815269
_cell_length_c       7.03454065322876
_cell_angle_alpha    107.46115676383366
_cell_angle_beta     108.95617218187995
_cell_angle_gamma    110.75865086768302

_space_group_name_H-M_alt    "P 1"
_space_group_IT_number       1

loop_
  _space_group_symop_operation_xyz
  'x, y, z'

loop_
  _atom_site_type_symbol
  _atom_site_label
  _atom_site_symmetry_multiplicity
  _atom_site_fract_x
  _atom_site_fract_y
  _atom_site_fract_z
  _atom_site_occupancy
  Bi  Bi1       1.0  0.849068820476532  0.03697562217712402  0.3031579852104187  1.0000
  Bi  Bi2       1.0  0.4941205084323883  0.8071854114532471  0.9470362067222595  1.0000
  Bi  Bi3       1.0  0.04834854602813721  0.29819396138191223  0.9041233658790588  1.0000
  O   O1        1.0  0.5193166732788086  0.7268494367599487  0.42657616734504694  1.0000
  O   O2        1.0  0.24110393226146698  0.744057834148407  0.51176518201828  1.0000
  O   O3        1.0  0.009130310267210007  0.22948497533798218  0.5805121660232544  1.0000
  O   O4        1.0  0.9700329899787903  0.5211510062217712  0.6285830736160278  1.0000
  O   O5        1.0  0.8180486559867859  0.8004624247550964  0.819266140460968  1.0000
  O   O6        1.0  0.8162997961044312  0.3107266426086426  0.08381246030330658  1.0000
  P   P1        1.0  0.8223984241485596  0.8338510394096375  0.917117714881897  1.0000
  P   P2        1.0  0.5964083075523376  0.4129147231578827  0.6554250717163086  1.0000
  P   P3        1.0  0.28945091366767883  0.043558090925216675  0.6526418924331665  1.0000
  Se  Se1       1.0  0.27439209818840027  0.5273944735527039  0.5851320624351501  1.0000
