data_image0
_chemical_formula_structural       Bi3Fe2O4P4
_chemical_formula_sum              "Bi3 Fe2 O4 P4"
_cell_length_a       4.9530215113649705
_cell_length_b       6.675229387855536
_cell_length_c       6.588706970214844
_cell_angle_alpha    122.28812373421707
_cell_angle_beta     90.69581809957164
_cell_angle_gamma    88.831128616454

_space_group_name_H-M_alt    "P 1"
_space_group_IT_number       1

loop_
  _space_group_symop_operation_xyz
  'x, y, z'

loop_
  _atom_site_type_symbol
  _atom_site_label
  _atom_site_symmetry_multiplicity
  _atom_site_fract_x
  _atom_site_fract_y
  _atom_site_fract_z
  _atom_site_occupancy
  Bi  Bi1       1.0  0.8303911089897156  0.6458531618118286  0.8120374083518982  1.0000
  Bi  Bi2       1.0  0.8268314599990845  0.2729777991771698  0.9110816717147827  1.0000
  Bi  Bi3       1.0  0.32731181383132935  0.45581409335136414  0.4042375981807709  1.0000
  Fe  Fe1       1.0  0.3308596611022949  0.7971263527870178  0.7487848997116089  1.0000
  Fe  Fe2       1.0  0.3289262354373932  0.1273794174194336  0.8073657155036926  1.0000
  O   O1        1.0  0.8164187669754028  0.17164096236228943  0.40736475586891174  1.0000
  O   O2        1.0  0.8323292136192322  0.3887399137020111  0.6982983350753784  1.0000
  O   O3        1.0  0.3276272118091583  0.40741872787475586  0.8112115263938904  1.0000
  O   O4        1.0  0.835502564907074  0.9064879417419434  0.07157675176858895  1.0000
  P   P1        1.0  0.8283113241195679  0.1159496158361435  0.20817935466766357  1.0000
  P   P2        1.0  0.32742610573768616  0.11453498154878616  0.23863066732883453  1.0000
  P   P3        1.0  0.8230308890342712  0.41248607635498047  0.4251580536365509  1.0000
  P   P4        1.0  0.3290981352329254  0.40127336978912354  0.9595482349395752  1.0000
