data_image0
_chemical_formula_structural       Pr8S2
_chemical_formula_sum              "Pr8 S2"
_cell_length_a       5.488217210087413
_cell_length_b       7.551446623129914
_cell_length_c       8.275827407836914
_cell_angle_alpha    115.83371831623997
_cell_angle_beta     94.14797529351284
_cell_angle_gamma    87.42767479962241

_space_group_name_H-M_alt    "P 1"
_space_group_IT_number       1

loop_
  _space_group_symop_operation_xyz
  'x, y, z'

loop_
  _atom_site_type_symbol
  _atom_site_label
  _atom_site_symmetry_multiplicity
  _atom_site_fract_x
  _atom_site_fract_y
  _atom_site_fract_z
  _atom_site_occupancy
  Pr  Pr1       1.0  0.9605414271354674  0.7856221795082092  0.6516391634941101  1.0000
  Pr  Pr2       1.0  0.44420480728149414  0.5738116502761841  0.48655954003334045  1.0000
  Pr  Pr3       1.0  0.4456093907356262  0.16594792902469635  0.980660080909729  1.0000
  Pr  Pr4       1.0  0.45604661107063293  0.5579416751861572  0.9864205718040466  1.0000
  Pr  Pr5       1.0  0.9507156014442443  0.056734491139650345  0.2785283923149109  1.0000
  Pr  Pr6       1.0  0.44215428829193115  0.16261376440525055  0.9814820885658264  1.0000
  Pr  Pr7       1.0  0.4552329480648041  0.8988863229751587  0.2544721662998199  1.0000
  Pr  Pr8       1.0  0.9488130807876586  0.625031590461731  0.10301222652196884  1.0000
  S   S1        1.0  0.9567529559135436  0.32666048407554626  0.016654642298817607  1.0000
  S   S2        1.0  0.9836100339889525  0.7983048558235168  0.6687179207801819  1.0000
