data_image0
_chemical_formula_structural       Pr7S3
_chemical_formula_sum              "Pr7 S3"
_cell_length_a       6.469036326392691
_cell_length_b       7.2439755959365755
_cell_length_c       8.269058227539062
_cell_angle_alpha    113.08076168944427
_cell_angle_beta     110.45730800290791
_cell_angle_gamma    89.05179950503123

_space_group_name_H-M_alt    "P 1"
_space_group_IT_number       1

loop_
  _space_group_symop_operation_xyz
  'x, y, z'

loop_
  _atom_site_type_symbol
  _atom_site_label
  _atom_site_symmetry_multiplicity
  _atom_site_fract_x
  _atom_site_fract_y
  _atom_site_fract_z
  _atom_site_occupancy
  Pr  Pr1       1.0  0.31928011775016785  0.3379763662815094  0.7345053553581238  1.0000
  Pr  Pr2       1.0  0.539772629737854  0.898007333278656  0.7997486591339111  1.0000
  Pr  Pr3       1.0  0.06051098182797432  0.07180290669202805  0.9245621562004089  1.0000
  Pr  Pr4       1.0  0.07327237725257874  0.570465624332428  0.1107565835118294  1.0000
  Pr  Pr5       1.0  0.5853570699691772  0.5823159217834473  0.0005632456159219146  1.0000
  Pr  Pr6       1.0  0.06970545649528503  0.08923675864934921  0.12427844107151031  1.0000
  Pr  Pr7       1.0  0.8008021116256714  0.059783611446619034  0.4273494482040405  1.0000
  S   S1        1.0  0.5293928980827332  0.21619813144207  0.9477025866508484  1.0000
  S   S2        1.0  0.5882836580276489  0.3170451819896698  0.2040211409330368  1.0000
  S   S3        1.0  0.05442983657121658  0.49429404735565186  0.874534010887146  1.0000
