data_image0
_chemical_formula_structural       AgBrHoPr5S2
_chemical_formula_sum              "Ag1 Br1 Ho1 Pr5 S2"
_cell_length_a       6.784692655618174
_cell_length_b       7.236286728786568
_cell_length_c       8.339097023010254
_cell_angle_alpha    118.19792155375698
_cell_angle_beta     118.22430355315366
_cell_angle_gamma    90.38037443830281

_space_group_name_H-M_alt    "P 1"
_space_group_IT_number       1

loop_
  _space_group_symop_operation_xyz
  'x, y, z'

loop_
  _atom_site_type_symbol
  _atom_site_label
  _atom_site_symmetry_multiplicity
  _atom_site_fract_x
  _atom_site_fract_y
  _atom_site_fract_z
  _atom_site_occupancy
  Ag  Ag1       1.0  0.42252442240715027  0.274072527885437  0.4133829176425934  1.0000
  Br  Br1       1.0  0.5326856970787048  0.7644606232643127  0.2909383773803711  1.0000
  Ho  Ho1       1.0  0.48997482657432556  0.9110122323036194  0.671133041381836  1.0000
  Pr  Pr1       1.0  0.3090360164642334  0.6087424755096436  0.08887141197919851  1.0000
  Pr  Pr2       1.0  0.1501813530921936  0.9234463572502136  0.9501776695251466  1.0000
  Pr  Pr3       1.0  0.5882195234298706  0.14813123643398285  0.7804129719734192  1.0000
  Pr  Pr4       1.0  0.9972984790802002  0.2614361643791199  0.6989114284515381  1.0000
  Pr  Pr5       1.0  0.8113470077514648  0.38437050580978394  0.1051110327243806  1.0000
  S   S1        1.0  0.6959821581840515  0.8107267022132874  0.04132653400301944  1.0000
  S   S2        1.0  0.791265606880188  0.15947042405605316  0.6481100916862488  1.0000
