data_image0
_chemical_formula_structural       Pr8S2
_chemical_formula_sum              "Pr8 S2"
_cell_length_a       6.347791509945709
_cell_length_b       7.008304587247312
_cell_length_c       8.251784324645996
_cell_angle_alpha    111.24385020408424
_cell_angle_beta     112.29835773990052
_cell_angle_gamma    88.47999173198629

_space_group_name_H-M_alt    "P 1"
_space_group_IT_number       1

loop_
  _space_group_symop_operation_xyz
  'x, y, z'

loop_
  _atom_site_type_symbol
  _atom_site_label
  _atom_site_symmetry_multiplicity
  _atom_site_fract_x
  _atom_site_fract_y
  _atom_site_fract_z
  _atom_site_occupancy
  Pr  Pr1       1.0  0.11677487939596176  0.3466862738132477  0.13814495503902433  1.0000
  Pr  Pr2       1.0  0.7067398428916931  0.34855058789253235  0.3506179451942444  1.0000
  Pr  Pr3       1.0  0.41022789478302  0.13120673596858978  0.6192833185195923  1.0000
  Pr  Pr4       1.0  0.046320561319589615  0.787907063961029  0.956633448600769  1.0000
  Pr  Pr5       1.0  0.4523037374019623  0.22992494702339172  0.8427428007125854  1.0000
  Pr  Pr6       1.0  0.8499252796173096  0.8402159810066223  0.6227620840072632  1.0000
  Pr  Pr7       1.0  0.7067411541938782  0.08238359540700912  0.9164288640022278  1.0000
  Pr  Pr8       1.0  0.9352713823318481  0.27138790488243103  0.7894653677940369  1.0000
  S   S1        1.0  0.6198827624320984  0.8598430752754211  0.5596602559089661  1.0000
  S   S2        1.0  0.6321437358856201  0.8009486198425293  0.11294330656528467  1.0000
