data_image0
_chemical_formula_structural       BrPr6S3
_chemical_formula_sum              "Br1 Pr6 S3"
_cell_length_a       7.4284630257832545
_cell_length_b       8.335543046390887
_cell_length_c       9.475723266601562
_cell_angle_alpha    116.90400519485263
_cell_angle_beta     110.45917628259959
_cell_angle_gamma    89.27223352844246

_space_group_name_H-M_alt    "P 1"
_space_group_IT_number       1

loop_
  _space_group_symop_operation_xyz
  'x, y, z'

loop_
  _atom_site_type_symbol
  _atom_site_label
  _atom_site_symmetry_multiplicity
  _atom_site_fract_x
  _atom_site_fract_y
  _atom_site_fract_z
  _atom_site_occupancy
  Br  Br1       1.0  0.7743896842002869  0.9692966341972351  0.6903769969940186  1.0000
  Pr  Pr1       1.0  0.5056642293930054  0.20871517062187195  0.06401928514242172  1.0000
  Pr  Pr2       1.0  0.9959747195243835  0.06198295205831528  0.3749476671218872  1.0000
  Pr  Pr3       1.0  0.33849209547042847  0.25476592779159546  0.6419271230697632  1.0000
  Pr  Pr4       1.0  0.5419961810112  0.9886898398399353  0.3811911940574645  1.0000
  Pr  Pr5       1.0  0.06893491744995117  0.8656660318374634  0.9221277832984924  1.0000
  Pr  Pr6       1.0  0.1377614140510559  0.39845237135887146  0.07963842898607251  1.0000
  S   S1        1.0  0.28633278608322144  0.975416898727417  0.26888200640678395  1.0000
  S   S2        1.0  0.061235211789608  0.46884146332740784  0.8413999080657959  1.0000
  S   S3        1.0  0.29357925057411194  0.23053684830665588  0.3194770812988281  1.0000
