data_image0
_chemical_formula_structural       Pr8S2
_chemical_formula_sum              "Pr8 S2"
_cell_length_a       5.980243907009197
_cell_length_b       8.585191310786188
_cell_length_c       8.926986694335938
_cell_angle_alpha    99.10123535502774
_cell_angle_beta     90.97033126453675
_cell_angle_gamma    88.66919150379863

_space_group_name_H-M_alt    "P 1"
_space_group_IT_number       1

loop_
  _space_group_symop_operation_xyz
  'x, y, z'

loop_
  _atom_site_type_symbol
  _atom_site_label
  _atom_site_symmetry_multiplicity
  _atom_site_fract_x
  _atom_site_fract_y
  _atom_site_fract_z
  _atom_site_occupancy
  Pr  Pr1       1.0  0.9510760307312012  0.5544025897979736  0.7610936164855957  1.0000
  Pr  Pr2       1.0  0.9475431442260742  0.22397398948669434  0.6570771932601929  1.0000
  Pr  Pr3       1.0  0.4481225311756134  0.053992658853530884  0.2664623260498047  1.0000
  Pr  Pr4       1.0  0.9519802927970886  0.7484285831451416  0.853564441204071  1.0000
  Pr  Pr5       1.0  0.43594980239868164  0.2444797307252884  0.5992840528488159  1.0000
  Pr  Pr6       1.0  0.4479580223560333  0.7467647790908813  0.10209475457668304  1.0000
  Pr  Pr7       1.0  0.9360302090644836  0.5564957857131958  0.35321319103240967  1.0000
  Pr  Pr8       1.0  0.4448871612548828  0.07083196938037872  0.8555496335029602  1.0000
  S   S1        1.0  0.9621426463127136  0.23799340426921844  0.8737511038780212  1.0000
  S   S2        1.0  0.4559909701347351  0.7386806607246399  0.04265270382165909  1.0000
