data_image0
_chemical_formula_structural       AsCa2Ge3HI3P2
_chemical_formula_sum              "As1 Ca2 Ge3 H1 I3 P2"
_cell_length_a       5.377501745656337
_cell_length_b       6.946900168442644
_cell_length_c       8.744058609008789
_cell_angle_alpha    111.23079074336339
_cell_angle_beta     91.16684289577663
_cell_angle_gamma    95.60933208811701

_space_group_name_H-M_alt    "P 1"
_space_group_IT_number       1

loop_
  _space_group_symop_operation_xyz
  'x, y, z'

loop_
  _atom_site_type_symbol
  _atom_site_label
  _atom_site_symmetry_multiplicity
  _atom_site_fract_x
  _atom_site_fract_y
  _atom_site_fract_z
  _atom_site_occupancy
  As  As1       1.0  0.47868770360946655  0.4925974011421203  0.9522342681884766  1.0000
  Ca  Ca1       1.0  0.9638596773147583  0.9827923178672789  0.2533389627933503  1.0000
  Ca  Ca2       1.0  0.9694505929946899  0.776948869228363  0.24140825867652893  1.0000
  Ge  Ge1       1.0  0.47237834334373474  0.9200267791748047  0.27779060602188116  1.0000
  Ge  Ge2       1.0  0.4680052697658539  0.8957949876785278  0.03151319548487668  1.0000
  Ge  Ge3       1.0  0.9656028151512146  0.5384504199028015  0.10867514461278918  1.0000
  H   H1        1.0  0.003078101202845571  0.12099761515855788  0.9068081378936768  1.0000
  I   I1        1.0  0.9673455953598022  0.20686905086040497  0.338014155626297  1.0000
  I   I2        1.0  0.46450474858283997  0.06042409315705299  0.5896517634391785  1.0000
  I   I3        1.0  0.47063395380973816  0.42559218406677246  0.46881282329559326  1.0000
  P   P1        1.0  0.47062334418296814  0.24375171959400174  0.7705125212669373  1.0000
  P   P2        1.0  0.9684386253356934  0.2216922491788864  0.9893048405647278  1.0000
