data_image0
_chemical_formula_structural       CaGe4I5PZn
_chemical_formula_sum              "Ca1 Ge4 I5 P1 Zn1"
_cell_length_a       6.16658424592254
_cell_length_b       6.917745950433578
_cell_length_c       7.2328290939331055
_cell_angle_alpha    89.74102517733446
_cell_angle_beta     90.06563169471542
_cell_angle_gamma    100.7339350561878

_space_group_name_H-M_alt    "P 1"
_space_group_IT_number       1

loop_
  _space_group_symop_operation_xyz
  'x, y, z'

loop_
  _atom_site_type_symbol
  _atom_site_label
  _atom_site_symmetry_multiplicity
  _atom_site_fract_x
  _atom_site_fract_y
  _atom_site_fract_z
  _atom_site_occupancy
  Ca  Ca1       1.0  0.9104697704315186  0.8766168355941772  0.1514660120010376  1.0000
  Ge  Ge1       1.0  0.9076384902000427  0.28674817085266113  0.6979870796203612  1.0000
  Ge  Ge2       1.0  0.4204249083995819  0.9036467671394348  0.49016255140304565  1.0000
  Ge  Ge3       1.0  0.4187574088573456  0.3521054983139038  0.7706337571144104  1.0000
  Ge  Ge4       1.0  0.40368035435676575  0.5584830045700073  0.9479098320007324  1.0000
  I   I1        1.0  0.8884266018867493  0.47431597113609314  0.4640016555786133  1.0000
  I   I2        1.0  0.9073486924171448  0.6511171460151672  0.9666553735733032  1.0000
  I   I3        1.0  0.905281126499176  0.2853603959083557  0.5971421599388123  1.0000
  I   I4        1.0  0.39934325218200684  0.8069782257080078  0.7540807127952576  1.0000
  I   I5        1.0  0.900303065776825  0.34454628825187683  0.9113860130310059  1.0000
  P   P1        1.0  0.9186393022537231  0.9080057740211487  0.8500151038169861  1.0000
  Zn  Zn1       1.0  0.41882672905921936  0.7670410871505737  0.7028910517692566  1.0000
