data_image0
_chemical_formula_structural       CaDyGe8I2
_chemical_formula_sum              "Ca1 Dy1 Ge8 I2"
_cell_length_a       7.074908204591513
_cell_length_b       6.719852401712221
_cell_length_c       6.787014961242676
_cell_angle_alpha    116.8131707261418
_cell_angle_beta     103.27911189799605
_cell_angle_gamma    100.7113516255516

_space_group_name_H-M_alt    "P 1"
_space_group_IT_number       1

loop_
  _space_group_symop_operation_xyz
  'x, y, z'

loop_
  _atom_site_type_symbol
  _atom_site_label
  _atom_site_symmetry_multiplicity
  _atom_site_fract_x
  _atom_site_fract_y
  _atom_site_fract_z
  _atom_site_occupancy
  Ca  Ca1       1.0  0.7959988117218018  0.813546359539032  0.3053097128868103  1.0000
  Dy  Dy1       1.0  0.8325737118721008  0.43153268098831177  0.7026913166046143  1.0000
  Ge  Ge1       1.0  0.8234195709228516  0.7261847853660583  0.6232739686965942  1.0000
  Ge  Ge2       1.0  0.28875282406806946  0.5834853649139404  0.04241744056344032  1.0000
  Ge  Ge3       1.0  0.7994950413703918  0.46301719546318054  0.33966538310050964  1.0000
  Ge  Ge4       1.0  0.29934823513031006  0.971692681312561  0.8410824537277222  1.0000
  Ge  Ge5       1.0  0.8053908944129944  0.6509013175964355  0.708821713924408  1.0000
  Ge  Ge6       1.0  0.4715741276741028  0.8567984104156494  0.6092700958251953  1.0000
  Ge  Ge7       1.0  0.29805535078048706  0.10279684513807297  0.39420297741889954  1.0000
  Ge  Ge8       1.0  0.3059419095516205  0.08075641840696335  0.11733843386173248  1.0000
  I   I1        1.0  0.29482829570770264  0.062227923423051834  0.10124357789754866  1.0000
  I   I2        1.0  0.7957483530044556  0.040358852595090866  0.09145846962928769  1.0000
