data_image0
_chemical_formula_structural       CaGe7I3Th
_chemical_formula_sum              "Ca1 Ge7 I3 Th1"
_cell_length_a       7.751441073015466
_cell_length_b       7.082330705579928
_cell_length_c       7.601068019866943
_cell_angle_alpha    113.18707200511444
_cell_angle_beta     108.73555342695056
_cell_angle_gamma    93.78117107418842

_space_group_name_H-M_alt    "P 1"
_space_group_IT_number       1

loop_
  _space_group_symop_operation_xyz
  'x, y, z'

loop_
  _atom_site_type_symbol
  _atom_site_label
  _atom_site_symmetry_multiplicity
  _atom_site_fract_x
  _atom_site_fract_y
  _atom_site_fract_z
  _atom_site_occupancy
  Ca  Ca1       1.0  0.9231346845626831  0.21049617230892181  0.8841788172721863  1.0000
  Ge  Ge1       1.0  0.4329991340637207  0.27199965715408325  0.7215078473091125  1.0000
  Ge  Ge2       1.0  0.42326000332832336  0.3800707757472992  0.5384225845336914  1.0000
  Ge  Ge3       1.0  0.9316131472587585  0.007625975646078587  0.09123695641756051  1.0000
  Ge  Ge4       1.0  0.9173635244369507  0.8572931289672852  0.497396320104599  1.0000
  Ge  Ge5       1.0  0.4246728718280792  0.0944720134139061  0.3494657576084137  1.0000
  Ge  Ge6       1.0  0.42699310183525085  0.11485905945301056  0.44739919900894165  1.0000
  Ge  Ge7       1.0  0.4470828175544739  0.6750404834747314  0.5839167237281799  1.0000
  I   I1        1.0  0.44381090998649597  0.09547208249568939  0.6357316970825195  1.0000
  I   I2        1.0  0.9153442978858948  0.8635776042938232  0.10692615061998367  1.0000
  I   I3        1.0  0.45478853583335876  0.9230714440345764  0.11883190274238586  1.0000
  Th  Th1       1.0  0.8219839334487915  0.52788245677948  0.3055918216705322  1.0000
