data_image0
_chemical_formula_structural       AlCaGe4I5P
_chemical_formula_sum              "Al1 Ca1 Ge4 I5 P1"
_cell_length_a       6.972927433008725
_cell_length_b       7.125997767304695
_cell_length_c       8.155765533447266
_cell_angle_alpha    90.98942337706528
_cell_angle_beta     91.06068610607701
_cell_angle_gamma    106.51961145879432

_space_group_name_H-M_alt    "P 1"
_space_group_IT_number       1

loop_
  _space_group_symop_operation_xyz
  'x, y, z'

loop_
  _atom_site_type_symbol
  _atom_site_label
  _atom_site_symmetry_multiplicity
  _atom_site_fract_x
  _atom_site_fract_y
  _atom_site_fract_z
  _atom_site_occupancy
  Al  Al1       1.0  0.6774460077285767  0.866918683052063  0.44677865505218506  1.0000
  Ca  Ca1       1.0  0.16588661074638367  0.6199020743370056  0.539233922958374  1.0000
  Ge  Ge1       1.0  0.6373733878135681  0.540046215057373  0.2755773961544037  1.0000
  Ge  Ge2       1.0  0.16642847657203674  0.34382641315460205  0.00499578146263957  1.0000
  Ge  Ge3       1.0  0.15641272068023682  0.9406183958053589  0.30202192068099976  1.0000
  Ge  Ge4       1.0  0.1703956127166748  0.015848448500037193  0.06220564618706703  1.0000
  I   I1        1.0  0.13859641551971436  0.2925006151199341  0.7331120371818542  1.0000
  I   I2        1.0  0.6934178471565247  0.06978390365839005  0.6485207080841064  1.0000
  I   I3        1.0  0.6652088165283203  0.2748594880104065  0.7545427680015564  1.0000
  I   I4        1.0  0.14758990705013275  0.48661303520202637  0.9481242895126343  1.0000
  I   I5        1.0  0.6784238815307617  0.6235412955284119  0.014316771179437637  1.0000
  P   P1        1.0  0.16242389380931854  0.016673065721988678  0.9249961972236633  1.0000
