data_image0
_chemical_formula_structural       Ca2Ge5I4P
_chemical_formula_sum              "Ca2 Ge5 I4 P1"
_cell_length_a       7.294412406489874
_cell_length_b       7.241108028843085
_cell_length_c       7.631112575531006
_cell_angle_alpha    104.55406900920408
_cell_angle_beta     103.793505083797
_cell_angle_gamma    109.2458658418857

_space_group_name_H-M_alt    "P 1"
_space_group_IT_number       1

loop_
  _space_group_symop_operation_xyz
  'x, y, z'

loop_
  _atom_site_type_symbol
  _atom_site_label
  _atom_site_symmetry_multiplicity
  _atom_site_fract_x
  _atom_site_fract_y
  _atom_site_fract_z
  _atom_site_occupancy
  Ca  Ca1       1.0  0.815785050392151  0.23749637603759766  0.7042394280433655  1.0000
  Ca  Ca2       1.0  0.11720221489667894  0.9225505590438843  0.00554846925660962  1.0000
  Ge  Ge1       1.0  0.3254406452178955  0.14918561279773712  0.8826244473457336  1.0000
  Ge  Ge2       1.0  0.33479154109954834  0.06777145713567734  0.5094068050384521  1.0000
  Ge  Ge3       1.0  0.31672051548957825  0.23691096901893616  0.6762971878051758  1.0000
  Ge  Ge4       1.0  0.817262887954712  0.2654174268245697  0.26641204953193665  1.0000
  Ge  Ge5       1.0  0.8275068998336793  0.5495519042015076  0.2533504366874695  1.0000
  I   I1        1.0  0.8357263803482057  0.9637933969497681  0.9861135482788086  1.0000
  I   I2        1.0  0.3175557553768158  0.8006521463394165  0.39484202861785883  1.0000
  I   I3        1.0  0.3211519718170166  0.9529897570610046  0.7984724640846252  1.0000
  I   I4        1.0  0.3158654570579529  0.36742866039276123  0.28818294405937195  1.0000
  P   P1        1.0  0.6245722770690918  0.46279117465019226  0.4892006516456604  1.0000
