data_image0
_chemical_formula_structural       Ca4Cr2Sb3
_chemical_formula_sum              "Ca4 Cr2 Sb3"
_cell_length_a       4.576137020033539
_cell_length_b       6.105905607537699
_cell_length_c       9.325014114379883
_cell_angle_alpha    104.5030249382551
_cell_angle_beta     90.0445717126966
_cell_angle_gamma    111.83807745673812

_space_group_name_H-M_alt    "P 1"
_space_group_IT_number       1

loop_
  _space_group_symop_operation_xyz
  'x, y, z'

loop_
  _atom_site_type_symbol
  _atom_site_label
  _atom_site_symmetry_multiplicity
  _atom_site_fract_x
  _atom_site_fract_y
  _atom_site_fract_z
  _atom_site_occupancy
  Ca  Ca1       1.0  0.33250752091407776  0.2812719941139221  0.6602008938789368  1.0000
  Ca  Ca2       1.0  0.49221813678741455  0.5886312127113342  0.13256126642227173  1.0000
  Ca  Ca3       1.0  0.6724373698234558  0.9762311577796936  0.878016471862793  1.0000
  Ca  Ca4       1.0  0.8312235474586487  0.276286244392395  0.35772809386253357  1.0000
  Cr  Cr1       1.0  0.129415363073349  0.8790628910064697  0.36982262134552  1.0000
  Cr  Cr2       1.0  0.03874637931585312  0.6997922658920288  0.6392390131950378  1.0000
  Sb  Sb1       1.0  0.5649194717407227  0.7728680968284607  0.5051944851875305  1.0000
  Sb  Sb2       1.0  0.2169625610113144  0.052128203213214874  0.13866716623306272  1.0000
  Sb  Sb3       1.0  0.9626942276954651  0.5439479947090149  0.8753188252449036  1.0000
