data_image0
_chemical_formula_structural       CaClCrCuHgSb2TeZr
_chemical_formula_sum              "Ca1 Cl1 Cr1 Cu1 Hg1 Sb2 Te1 Zr1"
_cell_length_a       6.16161182797341
_cell_length_b       6.137427682324263
_cell_length_c       6.1289143562316895
_cell_angle_alpha    97.21846587885562
_cell_angle_beta     96.94657388058566
_cell_angle_gamma    96.87499110705156

_space_group_name_H-M_alt    "P 1"
_space_group_IT_number       1

loop_
  _space_group_symop_operation_xyz
  'x, y, z'

loop_
  _atom_site_type_symbol
  _atom_site_label
  _atom_site_symmetry_multiplicity
  _atom_site_fract_x
  _atom_site_fract_y
  _atom_site_fract_z
  _atom_site_occupancy
  Ca  Ca1       1.0  0.1088142842054367  0.8332171440124512  0.10624995827674867  1.0000
  Cl  Cl1       1.0  0.6071428656578064  0.887316882610321  0.0777043402194977  1.0000
  Cr  Cr1       1.0  0.7420303225517273  0.06252680718898773  0.734178900718689  1.0000
  Cu  Cu1       1.0  0.9721113443374634  0.2481273114681244  0.432275652885437  1.0000
  Hg  Hg1       1.0  0.36768096685409546  0.6068260669708252  0.5936813950538635  1.0000
  Sb  Sb1       1.0  0.3596703112125397  0.1482212394475937  0.5492233037948608  1.0000
  Sb  Sb2       1.0  0.05647243559360504  0.3222978711128235  0.01728963851928711  1.0000
  Te  Te1       1.0  0.8689061999320984  0.6685055494308472  0.5389173626899719  1.0000
  Zr  Zr1       1.0  0.5707308650016785  0.34101080894470215  0.16276761889457703  1.0000
