data_image0
_chemical_formula_structural       CaClCrHfHgSb2Te2
_chemical_formula_sum              "Ca1 Cl1 Cr1 Hf1 Hg1 Sb2 Te2"
_cell_length_a       6.377750438616756
_cell_length_b       6.380493537912941
_cell_length_c       6.373335838317871
_cell_angle_alpha    98.14325426683237
_cell_angle_beta     98.04194915820278
_cell_angle_gamma    97.05282041197823

_space_group_name_H-M_alt    "P 1"
_space_group_IT_number       1

loop_
  _space_group_symop_operation_xyz
  'x, y, z'

loop_
  _atom_site_type_symbol
  _atom_site_label
  _atom_site_symmetry_multiplicity
  _atom_site_fract_x
  _atom_site_fract_y
  _atom_site_fract_z
  _atom_site_occupancy
  Ca  Ca1       1.0  0.3240799903869629  0.8522899150848389  0.3321889638900757  1.0000
  Cl  Cl1       1.0  0.3478594422340393  0.7590644359588623  0.8302170634269714  1.0000
  Cr  Cr1       1.0  0.7114856243133545  0.6710135340690613  0.8121408820152282  1.0000
  Hf  Hf1       1.0  0.6260770559310913  0.3552468419075012  0.12883771955966947  1.0000
  Hg  Hg1       1.0  0.07392250746488571  0.26856034994125366  0.6777142286300658  1.0000
  Sb  Sb1       1.0  0.23057794570922852  0.36507901549339294  0.19125911593437195  1.0000
  Sb  Sb2       1.0  0.89114910364151  0.02219512313604355  0.0806293860077858  1.0000
  Te  Te1       1.0  0.5871423482894897  0.26314064860343933  0.669955313205719  1.0000
  Te  Te2       1.0  0.8248554468154907  0.7222326397895813  0.4423251450061798  1.0000
