data_image0
_chemical_formula_structural       Ca4Cr3Sb2
_chemical_formula_sum              "Ca4 Cr3 Sb2"
_cell_length_a       4.6867135485548195
_cell_length_b       6.239692748195214
_cell_length_c       8.767351150512695
_cell_angle_alpha    104.85390066613195
_cell_angle_beta     90.02149671551206
_cell_angle_gamma    111.61481728692841

_space_group_name_H-M_alt    "P 1"
_space_group_IT_number       1

loop_
  _space_group_symop_operation_xyz
  'x, y, z'

loop_
  _atom_site_type_symbol
  _atom_site_label
  _atom_site_symmetry_multiplicity
  _atom_site_fract_x
  _atom_site_fract_y
  _atom_site_fract_z
  _atom_site_occupancy
  Ca  Ca1       1.0  0.6701701879501343  0.1035691425204277  0.4001299142837525  1.0000
  Ca  Ca2       1.0  0.3470480442047119  0.45503976941108704  0.7495826482772827  1.0000
  Ca  Ca3       1.0  0.01043715700507164  0.7561985850334167  0.5598680973052979  1.0000
  Ca  Ca4       1.0  0.3460841178894043  0.45507287979125977  0.22309531271457672  1.0000
  Cr  Cr1       1.0  0.5753056406974792  0.9339984059333801  0.03205861896276474  1.0000
  Cr  Cr2       1.0  0.1470576673746109  0.06436175853013992  0.9261101484298704  1.0000
  Cr  Cr3       1.0  0.8039303421974182  0.3784938156604767  0.987477719783783  1.0000
  Sb  Sb1       1.0  0.6493682861328125  0.04195234179496765  0.7480653524398804  1.0000
  Sb  Sb2       1.0  0.014784755185246468  0.8138867616653442  0.1555386483669281  1.0000
