data_image0
_chemical_formula_structural       Fe2Li2O5Sn2
_chemical_formula_sum              "Fe2 Li2 O5 Sn2"
_cell_length_a       5.488991266311223
_cell_length_b       5.544395896964111
_cell_length_c       6.158036231994629
_cell_angle_alpha    115.7308365606947
_cell_angle_beta     90.00262999629618
_cell_angle_gamma    119.14089371354675

_space_group_name_H-M_alt    "P 1"
_space_group_IT_number       1

loop_
  _space_group_symop_operation_xyz
  'x, y, z'

loop_
  _atom_site_type_symbol
  _atom_site_label
  _atom_site_symmetry_multiplicity
  _atom_site_fract_x
  _atom_site_fract_y
  _atom_site_fract_z
  _atom_site_occupancy
  Fe  Fe1       1.0  0.7150059938430786  0.5964861512184143  0.6575150489807129  1.0000
  Fe  Fe2       1.0  0.051367856562137604  0.3191942274570465  0.7758827209472656  1.0000
  Li  Li1       1.0  0.7270342707633972  0.7071840167045593  0.17922911047935486  1.0000
  Li  Li2       1.0  0.054871391505002975  0.301026314496994  0.28707534074783325  1.0000
  O   O1        1.0  0.7282042503356934  0.018183508887887  0.8428582549095154  1.0000
  O   O2        1.0  0.46042001247406006  0.512438952922821  0.35391098260879517  1.0000
  O   O3        1.0  0.44777461886405945  0.35239705443382263  0.823011577129364  1.0000
  O   O4        1.0  0.7430088520050049  0.13592076301574707  0.41506534814834595  1.0000
  O   O5        1.0  0.11536090075969696  0.7190124988555908  0.8014969825744629  1.0000
  Sn  Sn1       1.0  0.46173688769340515  0.09834636002779007  0.08914061635732651  1.0000
  Sn  Sn2       1.0  0.4053788483142853  0.9116454720497131  0.5676326751708983  1.0000
