data_image0
_chemical_formula_structural       Fe2Li2O5Sn2
_chemical_formula_sum              "Fe2 Li2 O5 Sn2"
_cell_length_a       4.699685663435498
_cell_length_b       5.311413160237408
_cell_length_c       6.432033538818359
_cell_angle_alpha    108.58117689035029
_cell_angle_beta     90.01120419539825
_cell_angle_gamma    116.51693071004586

_space_group_name_H-M_alt    "P 1"
_space_group_IT_number       1

loop_
  _space_group_symop_operation_xyz
  'x, y, z'

loop_
  _atom_site_type_symbol
  _atom_site_label
  _atom_site_symmetry_multiplicity
  _atom_site_fract_x
  _atom_site_fract_y
  _atom_site_fract_z
  _atom_site_occupancy
  Fe  Fe1       1.0  0.975067675113678  0.3162796199321747  0.12626725435256958  1.0000
  Fe  Fe2       1.0  0.6288764476776123  0.613047182559967  0.9394276142120361  1.0000
  Li  Li1       1.0  0.629931628704071  0.618561327457428  0.426753968000412  1.0000
  Li  Li2       1.0  0.30654028058052063  0.9655061960220337  0.7659928202629089  1.0000
  O   O1        1.0  0.8149312138557434  0.988749086856842  0.2822679281234741  1.0000
  O   O2        1.0  0.4699862003326416  0.3065128028392792  0.6033244132995605  1.0000
  O   O3        1.0  0.4568515717983246  0.2921481430530548  0.0914665088057518  1.0000
  O   O4        1.0  0.1278609037399292  0.6351335048675537  0.443854421377182  1.0000
  O   O5        1.0  0.1269497275352478  0.6279045343399048  0.9399455785751344  1.0000
  Sn  Sn1       1.0  0.3103324770927429  0.9784477949142456  0.2660472095012665  1.0000
  Sn  Sn2       1.0  0.978919506072998  0.3262362778186798  0.6112695932388305  1.0000
