data_image0
_chemical_formula_structural       ClFe2HgLiO5Sn
_chemical_formula_sum              "Cl1 Fe2 Hg1 Li1 O5 Sn1"
_cell_length_a       5.505558691787493
_cell_length_b       5.8422112881660455
_cell_length_c       5.823339939117432
_cell_angle_alpha    119.89317449514473
_cell_angle_beta     90.14192410779616
_cell_angle_gamma    90.09743271245229

_space_group_name_H-M_alt    "P 1"
_space_group_IT_number       1

loop_
  _space_group_symop_operation_xyz
  'x, y, z'

loop_
  _atom_site_type_symbol
  _atom_site_label
  _atom_site_symmetry_multiplicity
  _atom_site_fract_x
  _atom_site_fract_y
  _atom_site_fract_z
  _atom_site_occupancy
  Cl  Cl1       1.0  0.021790053695440292  0.9524344801902771  0.21884368360042572  1.0000
  Fe  Fe1       1.0  0.35035809874534607  0.9946765899658203  0.5634767413139343  1.0000
  Fe  Fe2       1.0  0.8348734378814697  0.2613331377506256  0.849327564239502  1.0000
  Hg  Hg1       1.0  0.35568100214004517  0.6267318725585938  0.8712570071220398  1.0000
  Li  Li1       1.0  0.35151705145835876  0.3014763295650482  0.23195669054985046  1.0000
  O   O1        1.0  0.1905883401632309  0.25528714060783386  0.8589152693748474  1.0000
  O   O2        1.0  0.6404707431793213  0.3696982264518738  0.6247740387916565  1.0000
  O   O3        1.0  0.20879100263118744  0.6452245116233826  0.5120199918746948  1.0000
  O   O4        1.0  0.6873899102210999  0.40158358216285706  0.15823844075202942  1.0000
  O   O5        1.0  0.6469412446022034  0.9270136952400208  0.6715794205665588  1.0000
  Sn  Sn1       1.0  0.8410572409629822  0.6110824942588806  0.4981251060962677  1.0000
