data_image0
_chemical_formula_structural       ClFe2HgLiO5Sn
_chemical_formula_sum              "Cl1 Fe2 Hg1 Li1 O5 Sn1"
_cell_length_a       5.294323642315549
_cell_length_b       5.974772020734648
_cell_length_c       6.201172351837158
_cell_angle_alpha    101.64529698108512
_cell_angle_beta     111.33277812005862
_cell_angle_gamma    113.131210232029

_space_group_name_H-M_alt    "P 1"
_space_group_IT_number       1

loop_
  _space_group_symop_operation_xyz
  'x, y, z'

loop_
  _atom_site_type_symbol
  _atom_site_label
  _atom_site_symmetry_multiplicity
  _atom_site_fract_x
  _atom_site_fract_y
  _atom_site_fract_z
  _atom_site_occupancy
  Cl  Cl1       1.0  0.4213404655456543  0.11112506687641144  0.08496854454278946  1.0000
  Fe  Fe1       1.0  0.9324601888656616  0.23786604404449463  0.8808867335319519  1.0000
  Fe  Fe2       1.0  0.06530100852251053  0.5344820022583008  0.5187755823135376  1.0000
  Hg  Hg1       1.0  0.6500839591026306  0.6818267107009888  0.9791397452354431  1.0000
  Li  Li1       1.0  0.309984415769577  0.06932578235864639  0.517776370048523  1.0000
  O   O1        1.0  0.5049917101860046  0.8135695457458496  0.6283231973648071  1.0000
  O   O2        1.0  0.16098500788211823  0.4610203206539154  0.21470803022384644  1.0000
  O   O3        1.0  0.8750977516174316  0.7409918904304504  0.37257933616638184  1.0000
  O   O4        1.0  0.17878186702728271  0.32048946619033813  0.6636556386947632  1.0000
  O   O5        1.0  0.7553013563156128  0.4556162357330322  0.6895360946655273  1.0000
  Sn  Sn1       1.0  0.5558114647865295  0.5789005756378174  0.42242565751075745  1.0000
