data_image0
_chemical_formula_structural       F2P2PdSiTi3
_chemical_formula_sum              "F2 P2 Pd1 Si1 Ti3"
_cell_length_a       2.919532500048869
_cell_length_b       5.404624599816454
_cell_length_c       6.35447883605957
_cell_angle_alpha    115.16761529589685
_cell_angle_beta     90.51300761299518
_cell_angle_gamma    92.51189376478149

_space_group_name_H-M_alt    "P 1"
_space_group_IT_number       1

loop_
  _space_group_symop_operation_xyz
  'x, y, z'

loop_
  _atom_site_type_symbol
  _atom_site_label
  _atom_site_symmetry_multiplicity
  _atom_site_fract_x
  _atom_site_fract_y
  _atom_site_fract_z
  _atom_site_occupancy
  F   F1        1.0  0.18400387465953827  0.08880584686994553  0.8885918259620668  1.0000
  F   F2        1.0  0.6903667449951172  0.28338536620140076  0.15909555554389954  1.0000
  P   P1        1.0  0.20140282809734344  0.4423970878124237  0.6232223510742188  1.0000
  P   P2        1.0  0.6872358918190002  0.47433313727378845  0.186334028840065  1.0000
  Pd  Pd1       1.0  0.7046828866004944  0.060425855219364166  0.45898127555847174  1.0000
  Si  Si1       1.0  0.214820995926857  0.6327114701271057  0.9958758950233461  1.0000
  Ti  Ti1       1.0  0.20511168241500854  0.9294284582138062  0.6654420495033264  1.0000
  Ti  Ti2       1.0  0.17668773233890533  0.9995766282081604  0.16038295626640328  1.0000
  Ti  Ti3       1.0  0.6970772743225098  0.8195680379867554  0.7701566219329835  1.0000
