data_image0
_chemical_formula_structural       F2HoRe2TbTi3
_chemical_formula_sum              "F2 Ho1 Re2 Tb1 Ti3"
_cell_length_a       3.524692669072437
_cell_length_b       5.22716576410509
_cell_length_c       6.174959659576416
_cell_angle_alpha    113.0843280849369
_cell_angle_beta     107.31448453396146
_cell_angle_gamma    92.36299062542255

_space_group_name_H-M_alt    "P 1"
_space_group_IT_number       1

loop_
  _space_group_symop_operation_xyz
  'x, y, z'

loop_
  _atom_site_type_symbol
  _atom_site_label
  _atom_site_symmetry_multiplicity
  _atom_site_fract_x
  _atom_site_fract_y
  _atom_site_fract_z
  _atom_site_occupancy
  F   F1        1.0  0.235248863697052  0.7752575874328613  0.40012490749359125  1.0000
  F   F2        1.0  0.18119649589061737  0.5514428019523621  0.7609859704971312  1.0000
  Ho  Ho1       1.0  0.20474007725715637  0.8306438326835632  0.4621948897838592  1.0000
  Re  Re1       1.0  0.723614513874054  0.9406164884567261  0.7504692673683165  1.0000
  Re  Re2       1.0  0.7010986804962158  0.1637110859155655  0.5899370908737183  1.0000
  Tb  Tb1       1.0  0.7209502458572388  0.8160018920898438  0.1644408553838729  1.0000
  Ti  Ti1       1.0  0.18747738003730774  0.1416679322719574  0.34851717948913574  1.0000
  Ti  Ti2       1.0  0.1917032152414322  0.09209608286619186  0.17395062744617462  1.0000
  Ti  Ti3       1.0  0.22493065893650055  0.9422106742858887  0.5771633386611937  1.0000
