data_image0
_chemical_formula_structural       HHoPRe2Tb2Ti2
_chemical_formula_sum              "H1 Ho1 P1 Re2 Tb2 Ti2"
_cell_length_a       4.027060718654836
_cell_length_b       6.483177232207867
_cell_length_c       6.947664260864258
_cell_angle_alpha    109.83191190077746
_cell_angle_beta     107.67816760485793
_cell_angle_gamma    88.52661171194036

_space_group_name_H-M_alt    "P 1"
_space_group_IT_number       1

loop_
  _space_group_symop_operation_xyz
  'x, y, z'

loop_
  _atom_site_type_symbol
  _atom_site_label
  _atom_site_symmetry_multiplicity
  _atom_site_fract_x
  _atom_site_fract_y
  _atom_site_fract_z
  _atom_site_occupancy
  H   H1        1.0  0.13808177411556244  0.7392176985740662  0.12216634303331372  1.0000
  Ho  Ho1       1.0  0.4189108610153198  0.7570205330848694  0.49157464504241943  1.0000
  P   P1        1.0  0.642183244228363  0.7359831929206848  0.8634700179100037  1.0000
  Re  Re1       1.0  0.6562970280647278  0.15269450843334198  0.015226989984512329  1.0000
  Re  Re2       1.0  0.39822134375572205  0.28325098752975464  0.4502875804901123  1.0000
  Tb  Tb1       1.0  0.9152364730834961  0.37425151467323303  0.7480911016464233  1.0000
  Tb  Tb2       1.0  0.9382568001747131  0.4111955761909485  0.7093136310577393  1.0000
  Ti  Ti1       1.0  0.9498355388641357  0.5269292593002319  0.734030544757843  1.0000
  Ti  Ti2       1.0  0.9066640138626099  0.7784720063209534  0.3723343014717102  1.0000
