data_image0
_chemical_formula_structural       HIrPd3TeTi3
_chemical_formula_sum              "H1 Ir1 Pd3 Te1 Ti3"
_cell_length_a       4.146051131949264
_cell_length_b       4.727790056918581
_cell_length_c       7.144200325012207
_cell_angle_alpha    109.22994780205984
_cell_angle_beta     97.76875750142835
_cell_angle_gamma    92.20864055180378

_space_group_name_H-M_alt    "P 1"
_space_group_IT_number       1

loop_
  _space_group_symop_operation_xyz
  'x, y, z'

loop_
  _atom_site_type_symbol
  _atom_site_label
  _atom_site_symmetry_multiplicity
  _atom_site_fract_x
  _atom_site_fract_y
  _atom_site_fract_z
  _atom_site_occupancy
  H   H1        1.0  0.6119014024734497  0.5103198885917664  0.8007559180259703  1.0000
  Ir  Ir1       1.0  0.3207562565803528  0.7875604629516602  0.03476044163107875  1.0000
  Pd  Pd1       1.0  0.6342750191688538  0.9815677404403687  0.6889789104461669  1.0000
  Pd  Pd2       1.0  0.33652445673942566  0.3181546926498413  0.05540034174919128  1.0000
  Pd  Pd3       1.0  0.053761616349220276  0.326262503862381  0.4249542653560638  1.0000
  Te  Te1       1.0  0.8452655076980591  0.6617608070373535  0.2919011116027832  1.0000
  Ti  Ti1       1.0  0.8201819062232971  0.20218315720558167  0.816310942173004  1.0000
  Ti  Ti2       1.0  0.3863394260406494  0.8063145875930786  0.8062258958816527  1.0000
  Ti  Ti3       1.0  0.09232010692358017  0.5281555652618408  0.7765130400657653  1.0000
