data_image0
_chemical_formula_structural       CaGaGeH3I4NSThZn
_chemical_formula_sum              "Ca1 Ga1 Ge1 H3 I4 N1 S1 Th1 Zn1"
_cell_length_a       5.9863325665786045
_cell_length_b       3.1536851525402723
_cell_length_c       9.69308090209961
_cell_angle_alpha    102.11953680459105
_cell_angle_beta     95.62798721061979
_cell_angle_gamma    126.2340422163148

_space_group_name_H-M_alt    "P 1"
_space_group_IT_number       1

loop_
  _space_group_symop_operation_xyz
  'x, y, z'

loop_
  _atom_site_type_symbol
  _atom_site_label
  _atom_site_symmetry_multiplicity
  _atom_site_fract_x
  _atom_site_fract_y
  _atom_site_fract_z
  _atom_site_occupancy
  Ca  Ca1       1.0  0.9651867151260376  0.07583701610565186  0.3591810166835785  1.0000
  Ga  Ga1       1.0  0.9607900977134705  0.24043670296669006  0.4513632655143738  1.0000
  Ge  Ge1       1.0  0.31231778860092163  0.5311393141746521  0.2840616703033447  1.0000
  H   H1        1.0  0.3021264374256134  0.12434425950050354  0.668039858341217  1.0000
  H   H2        1.0  0.9599503874778748  0.07298306375741959  0.7993612289428711  1.0000
  H   H3        1.0  0.43887773156166077  0.2284097671508789  0.812432050704956  1.0000
  I   I1        1.0  0.9159794449806213  0.593146026134491  0.5109238028526306  1.0000
  I   I2        1.0  0.4704359471797943  0.47229811549186707  0.9478313326835632  1.0000
  I   I3        1.0  0.9885590672492981  0.9106696248054504  0.4653511047363281  1.0000
  I   I4        1.0  0.5244045853614807  0.7786515355110168  0.96413654088974  1.0000
  N   N1        1.0  0.31737786531448364  0.6242150664329529  0.7972011566162109  1.0000
  S   S1        1.0  0.5748345255851746  0.9124772548675537  0.16500505805015564  1.0000
  Th  Th1       1.0  0.18915089964866638  0.38948050141334534  0.17901964485645294  1.0000
  Zn  Zn1       1.0  0.49517956376075745  0.10893794894218445  0.13037988543510437  1.0000
