data_image0
_chemical_formula_structural       Ca2CoH4I2La3SbSc
_chemical_formula_sum              "Ca2 Co1 H4 I2 La3 Sb1 Sc1"
_cell_length_a       7.437770964477184
_cell_length_b       7.5098409312714365
_cell_length_c       7.789852619171143
_cell_angle_alpha    109.40694856884522
_cell_angle_beta     109.8712346718355
_cell_angle_gamma    109.83708792377197

_space_group_name_H-M_alt    "P 1"
_space_group_IT_number       1

loop_
  _space_group_symop_operation_xyz
  'x, y, z'

loop_
  _atom_site_type_symbol
  _atom_site_label
  _atom_site_symmetry_multiplicity
  _atom_site_fract_x
  _atom_site_fract_y
  _atom_site_fract_z
  _atom_site_occupancy
  Ca  Ca1       1.0  0.08814021944999695  0.9170102477073669  0.3759012520313263  1.0000
  Ca  Ca2       1.0  0.08778587728738785  0.9934620261192322  0.2665101885795593  1.0000
  Co  Co1       1.0  0.0882246270775795  0.9671697616577148  0.5179951786994934  1.0000
  H   H1        1.0  0.2345835268497467  0.565371572971344  0.43828454613685613  1.0000
  H   H2        1.0  0.2765387296676636  0.9658488631248474  0.3191095292568207  1.0000
  H   H3        1.0  0.25494837760925293  0.05776704475283623  0.9903935194015504  1.0000
  H   H4        1.0  0.7472687363624573  0.5038813948631287  0.7111243009567261  1.0000
  I   I1        1.0  0.5930671095848083  0.9609450101852417  0.5386866927146912  1.0000
  I   I2        1.0  0.3849133253097534  0.8927396535873413  0.5922473669052124  1.0000
  La  La1       1.0  0.07745299488306046  0.09276735782623291  0.4983820021152497  1.0000
  La  La2       1.0  0.5984721183776855  0.9050595164299011  0.46461075544357305  1.0000
  La  La3       1.0  0.25123536586761475  0.6669175028800964  0.46884676814079285  1.0000
  Sb  Sb1       1.0  0.30330193042755127  0.22263316810131073  0.1776452213525772  1.0000
  Sc  Sc1       1.0  0.7732242941856384  0.19600141048431396  0.1461278647184372  1.0000
