data_image0
_chemical_formula_structural       CaH2HoI4N2PtS2U
_chemical_formula_sum              "Ca1 H2 Ho1 I4 N2 Pt1 S2 U1"
_cell_length_a       6.9464654877714995
_cell_length_b       6.780231759755174
_cell_length_c       8.726799964904785
_cell_angle_alpha    120.18374193942083
_cell_angle_beta     103.33412154041463
_cell_angle_gamma    89.54612875631726

_space_group_name_H-M_alt    "P 1"
_space_group_IT_number       1

loop_
  _space_group_symop_operation_xyz
  'x, y, z'

loop_
  _atom_site_type_symbol
  _atom_site_label
  _atom_site_symmetry_multiplicity
  _atom_site_fract_x
  _atom_site_fract_y
  _atom_site_fract_z
  _atom_site_occupancy
  Ca  Ca1       1.0  0.6392666101455688  0.5441401600837708  0.7933604717254639  1.0000
  H   H1        1.0  0.24369062483310702  0.6622896790504456  0.7007085680961609  1.0000
  H   H2        1.0  0.260890930891037  0.5222337245941162  0.09308081865310669  1.0000
  Ho  Ho1       1.0  0.6120427846908569  0.6834107637405396  0.7208362817764282  1.0000
  I   I1        1.0  0.5760986804962158  0.7681488990783691  0.2065725475549698  1.0000
  I   I2        1.0  0.6009662747383118  0.6438862681388855  0.5707972645759583  1.0000
  I   I3        1.0  0.12554916739463806  0.5291046500205994  0.58994460105896  1.0000
  I   I4        1.0  0.6411139965057373  0.8536866307258606  0.1073618158698082  1.0000
  N   N1        1.0  0.2200681418180466  0.17497518658638  0.9436802268028259  1.0000
  N   N2        1.0  0.05494127422571183  0.8012812733650208  0.268784761428833  1.0000
  Pt  Pt1       1.0  0.1813952773809433  0.09492760896682739  0.8503382205963135  1.0000
  S   S1        1.0  0.7210357785224915  0.6775850653648376  0.008899983018636703  1.0000
  S   S2        1.0  0.6790726780891418  0.7077726125717163  0.7080796360969543  1.0000
  U   U1        1.0  0.71188884973526  0.2709029018878937  0.3097371757030487  1.0000
