data_image0
_chemical_formula_structural       CaH2HoI4LaNS3Sb
_chemical_formula_sum              "Ca1 H2 Ho1 I4 La1 N1 S3 Sb1"
_cell_length_a       7.018777411092134
_cell_length_b       8.521541986183205
_cell_length_c       9.760672569274902
_cell_angle_alpha    120.49672837342605
_cell_angle_beta     90.02200149422224
_cell_angle_gamma    90.7037965411515

_space_group_name_H-M_alt    "P 1"
_space_group_IT_number       1

loop_
  _space_group_symop_operation_xyz
  'x, y, z'

loop_
  _atom_site_type_symbol
  _atom_site_label
  _atom_site_symmetry_multiplicity
  _atom_site_fract_x
  _atom_site_fract_y
  _atom_site_fract_z
  _atom_site_occupancy
  Ca  Ca1       1.0  0.44940903782844543  0.20453804731369016  0.18387359380722046  1.0000
  H   H1        1.0  0.9560762643814087  0.624121904373169  0.8740429282188414  1.0000
  H   H2        1.0  0.45561787486076355  0.537507176399231  0.9699543118476867  1.0000
  Ho  Ho1       1.0  0.9497035145759583  0.2988537549972534  0.26464977860450745  1.0000
  I   I1        1.0  0.4421616196632385  0.9479761123657225  0.4447113871574401  1.0000
  I   I2        1.0  0.6851941347122192  0.4710088372230529  0.33341264724731445  1.0000
  I   I3        1.0  0.9474904537200927  0.45266070961952204  0.6768860816955566  1.0000
  I   I4        1.0  0.44526374340057373  0.2865351140499115  0.7815918326377868  1.0000
  La  La1       1.0  0.4476059675216675  0.39233809709548945  0.6794339418411254  1.0000
  N   N1        1.0  0.44036880135536194  0.6205264925956726  0.8604087829589843  1.0000
  S   S1        1.0  0.7970291376113892  0.5863847136497498  0.7648996114730835  1.0000
  S   S2        1.0  0.676194429397583  0.1340959221124649  0.3848077952861786  1.0000
  S   S3        1.0  0.9530786275863647  0.26959484815597534  0.4345606863498687  1.0000
  Sb  Sb1       1.0  0.952376127243042  0.6662750840187073  0.8561939001083373  1.0000
