data_image0
_chemical_formula_structural       H5NS8
_chemical_formula_sum              "H5 N1 S8"
_cell_length_a       4.948026201028615
_cell_length_b       6.74707886615304
_cell_length_c       8.056221961975098
_cell_angle_alpha    108.34691107489246
_cell_angle_beta     90.21201628658372
_cell_angle_gamma    89.92988142760561

_space_group_name_H-M_alt    "P 1"
_space_group_IT_number       1

loop_
  _space_group_symop_operation_xyz
  'x, y, z'

loop_
  _atom_site_type_symbol
  _atom_site_label
  _atom_site_symmetry_multiplicity
  _atom_site_fract_x
  _atom_site_fract_y
  _atom_site_fract_z
  _atom_site_occupancy
  H   H1        1.0  0.5552639961242676  0.714699387550354  0.6849034428596497  1.0000
  H   H2        1.0  0.5583322048187256  0.1478007733821869  0.570739209651947  1.0000
  H   H3        1.0  0.5597991943359375  0.6277589797973633  0.16120846569538114  1.0000
  H   H4        1.0  0.04706127941608429  0.08583436906337738  0.33099931478500366  1.0000
  H   H5        1.0  0.5419312119483948  0.9692580699920654  0.4101357161998748  1.0000
  N   N1        1.0  0.045994747430086136  0.19303973019123077  0.9266894459724426  1.0000
  S   S1        1.0  0.04724749177694321  0.15207086503505707  0.6838967800140381  1.0000
  S   S2        1.0  0.5493205189704895  0.19777067005634308  0.48588770627975464  1.0000
  S   S3        1.0  0.5533118844032288  0.17174293100833893  0.24967843294143677  1.0000
  S   S4        1.0  0.055549256503581994  0.8197763562202454  0.7036367058753967  1.0000
  S   S5        1.0  0.051129743456840515  0.3811834156513214  0.4327506721019745  1.0000
  S   S6        1.0  0.5460779666900635  0.9858239889144897  0.6735178232192993  1.0000
  S   S7        1.0  0.5560498237609863  0.03849528357386589  0.5990603566169739  1.0000
  S   S8        1.0  0.05455454066395759  0.6214858293533325  0.5441268682479858  1.0000
