data_image0
_chemical_formula_structural       C2H4HoLaMoS5
_chemical_formula_sum              "C2 H4 Ho1 La1 Mo1 S5"
_cell_length_a       4.94527987667016
_cell_length_b       7.17498224114039
_cell_length_c       7.513166904449463
_cell_angle_alpha    112.69733711671256
_cell_angle_beta     96.90615714218355
_cell_angle_gamma    91.52303692329414

_space_group_name_H-M_alt    "P 1"
_space_group_IT_number       1

loop_
  _space_group_symop_operation_xyz
  'x, y, z'

loop_
  _atom_site_type_symbol
  _atom_site_label
  _atom_site_symmetry_multiplicity
  _atom_site_fract_x
  _atom_site_fract_y
  _atom_site_fract_z
  _atom_site_occupancy
  C   C1        1.0  0.9335468411445618  0.5300422310829163  0.07665885984897612  1.0000
  C   C2        1.0  0.4433758556842804  0.2159316688776016  0.3207713961601257  1.0000
  H   H1        1.0  0.9338428974151611  0.311784565448761  0.11426582932472225  1.0000
  H   H2        1.0  0.43974366784095764  0.8563525080680846  0.7976179718971251  1.0000
  H   H3        1.0  0.44162628054618835  0.8985999226570128  0.6807473301887511  1.0000
  H   H4        1.0  0.9430160522460938  0.8617378473281859  0.8184452056884765  1.0000
  Ho  Ho1       1.0  0.4371200501918793  0.3574011027812958  0.24551141262054438  1.0000
  La  La1       1.0  0.9312892556190491  0.5613030791282654  0.785656988620758  1.0000
  Mo  Mo1       1.0  0.43745946884155273  0.8098137378692626  0.7388385534286498  1.0000
  S   S1        1.0  0.9429426193237305  0.10957401245832442  0.7106853127479552  1.0000
  S   S2        1.0  0.9396906495094299  0.1760721653699875  0.6276468038558959  1.0000
  S   S3        1.0  0.43783700466156006  0.8670881390571593  0.29254281520843495  1.0000
  S   S4        1.0  0.4405737519264221  0.5291602611541748  0.16392838954925532  1.0000
  S   S5        1.0  0.9373067617416382  0.24155645072460172  0.8096854090690612  1.0000
