data_image0
_chemical_formula_structural       BiClPb2SSiTm
_chemical_formula_sum              "Bi1 Cl1 Pb2 S1 Si1 Tm1"
_cell_length_a       5.984057267965053
_cell_length_b       6.841976501619532
_cell_length_c       7.0687079429626465
_cell_angle_alpha    119.69811382636732
_cell_angle_beta     113.33691250671585
_cell_angle_gamma    89.69222136977963

_space_group_name_H-M_alt    "P 1"
_space_group_IT_number       1

loop_
  _space_group_symop_operation_xyz
  'x, y, z'

loop_
  _atom_site_type_symbol
  _atom_site_label
  _atom_site_symmetry_multiplicity
  _atom_site_fract_x
  _atom_site_fract_y
  _atom_site_fract_z
  _atom_site_occupancy
  Bi  Bi1       1.0  0.6020613312721252  0.7411810159683228  0.33808657526969893  1.0000
  Cl  Cl1       1.0  0.4178719222545624  0.3457566797733307  0.659410834312439  1.0000
  Pb  Pb1       1.0  0.11482571810483932  0.7448740601539612  0.9179014563560485  1.0000
  Pb  Pb2       1.0  0.9263267517089844  0.3589719235897064  0.1813428848981857  1.0000
  S   S1        1.0  0.9805569052696228  0.8403347134590149  0.6675148010253904  1.0000
  Si  Si1       1.0  0.4108251929283142  0.34637460112571716  0.05476173385977738  1.0000
  Tm  Tm1       1.0  0.1785658895969391  0.23426479101181027  0.44283309578895563  1.0000
