data_image0
_chemical_formula_structural       CoIMg3O3TiV
_chemical_formula_sum              "Co1 I1 Mg3 O3 Ti1 V1"
_cell_length_a       5.870998349443968
_cell_length_b       5.757104588858933
_cell_length_c       7.211428642272949
_cell_angle_alpha    71.55021796643584
_cell_angle_beta     78.5666585923478
_cell_angle_gamma    83.62469628924731

_space_group_name_H-M_alt    "P 1"
_space_group_IT_number       1

loop_
  _space_group_symop_operation_xyz
  'x, y, z'

loop_
  _atom_site_type_symbol
  _atom_site_label
  _atom_site_symmetry_multiplicity
  _atom_site_fract_x
  _atom_site_fract_y
  _atom_site_fract_z
  _atom_site_occupancy
  Co  Co1       1.0  0.738893985748291  0.3008709251880646  0.20193566381931305  1.0000
  I   I1        1.0  0.9745435714721679  0.40770626068115234  0.5415008664131165  1.0000
  Mg  Mg1       1.0  0.4274861216545105  0.44178643822669983  0.46691909432411194  1.0000
  Mg  Mg2       1.0  0.9818969964981078  0.5599619746208191  0.8483365774154663  1.0000
  Mg  Mg3       1.0  0.9755942225456237  0.018405402079224586  0.7056211829185486  1.0000
  O   O1        1.0  0.61681067943573  0.5040571093559265  0.133600652217865  1.0000
  O   O2        1.0  0.30518364906311035  0.976930558681488  0.863067626953125  1.0000
  O   O3        1.0  0.3621131181716919  0.48039737343788147  0.3589698076248169  1.0000
  Ti  Ti1       1.0  0.33203554153442383  0.9993693828582764  0.5449618101119995  1.0000
  V   V1        1.0  0.4751648008823394  0.4588695466518402  0.0769168809056282  1.0000
