data_image0
_chemical_formula_structural       Mg5OPSiTbZn
_chemical_formula_sum              "Mg5 O1 P1 Si1 Tb1 Zn1"
_cell_length_a       6.122788606860105
_cell_length_b       6.216779622184937
_cell_length_c       6.619778633117676
_cell_angle_alpha    60.70332233197394
_cell_angle_beta     61.278332344580214
_cell_angle_gamma    58.320141666906196

_space_group_name_H-M_alt    "P 1"
_space_group_IT_number       1

loop_
  _space_group_symop_operation_xyz
  'x, y, z'

loop_
  _atom_site_type_symbol
  _atom_site_label
  _atom_site_symmetry_multiplicity
  _atom_site_fract_x
  _atom_site_fract_y
  _atom_site_fract_z
  _atom_site_occupancy
  Mg  Mg1       1.0  0.635030210018158  0.5466004014015198  0.25277620553970337  1.0000
  Mg  Mg2       1.0  0.6679553389549255  0.4029516577720642  0.8006801009178162  1.0000
  Mg  Mg3       1.0  0.16502220928668976  0.5173705220222473  0.5394328236579895  1.0000
  Mg  Mg4       1.0  0.7004120349884033  0.992650032043457  0.47677090764045715  1.0000
  Mg  Mg5       1.0  0.17849406599998474  0.07056088745594025  0.05567288398742676  1.0000
  O   O1        1.0  0.5840234160423279  0.12008596211671829  0.4271041452884674  1.0000
  P   P1        1.0  0.6820210218429565  0.14250695705413818  0.07466337084770203  1.0000
  Si  Si1       1.0  0.9425113201141357  0.023083802312612534  0.3737794160842895  1.0000
  Tb  Tb1       1.0  0.10124602913856506  0.34676310420036316  0.6746075749397278  1.0000
  Zn  Zn1       1.0  0.17257830500602722  0.4735814929008484  0.8947420120239258  1.0000
