data_image0
_chemical_formula_structural       BiCaLuMg2O3SiZn
_chemical_formula_sum              "Bi1 Ca1 Lu1 Mg2 O3 Si1 Zn1"
_cell_length_a       5.322014568817774
_cell_length_b       4.296584890442094
_cell_length_c       5.697909355163574
_cell_angle_alpha    40.68782299012912
_cell_angle_beta     61.49875865088253
_cell_angle_gamma    42.82937129434888

_space_group_name_H-M_alt    "P 1"
_space_group_IT_number       1

loop_
  _space_group_symop_operation_xyz
  'x, y, z'

loop_
  _atom_site_type_symbol
  _atom_site_label
  _atom_site_symmetry_multiplicity
  _atom_site_fract_x
  _atom_site_fract_y
  _atom_site_fract_z
  _atom_site_occupancy
  Bi  Bi1       1.0  0.5972334146499634  0.88007253408432  0.6317135691642762  1.0000
  Ca  Ca1       1.0  0.034809209406375934  0.46760788559913624  0.8528560400009155  1.0000
  Lu  Lu1       1.0  0.6300433874130249  0.31218761205673223  0.5288415551185608  1.0000
  Mg  Mg1       1.0  0.2820615768432619  0.09402741491794533  0.9546622037887574  1.0000
  Mg  Mg2       1.0  0.9847711324691771  0.9203517436981201  0.6562049984931946  1.0000
  O   O1        1.0  0.2860808670520783  0.8055538535118102  0.6610146760940552  1.0000
  O   O2        1.0  0.28093364834785467  0.29094886779785145  0.30782637000083923  1.0000
  O   O3        1.0  0.28791958093643194  0.9392761588096618  0.23425656557083133  1.0000
  Si  Si1       1.0  0.2194790542125702  0.5862411260604858  0.14528949558734897  1.0000
  Zn  Zn1       1.0  0.265000820159912  0.8714517354965212  0.9808382391929625  1.0000
