data_image0
_chemical_formula_structural       HMg4O2Si3
_chemical_formula_sum              "H1 Mg4 O2 Si3"
_cell_length_a       5.179639796712271
_cell_length_b       5.552041135638291
_cell_length_c       5.9461989402771
_cell_angle_alpha    70.52591813104206
_cell_angle_beta     70.80451179176671
_cell_angle_gamma    70.20926657673185

_space_group_name_H-M_alt    "P 1"
_space_group_IT_number       1

loop_
  _space_group_symop_operation_xyz
  'x, y, z'

loop_
  _atom_site_type_symbol
  _atom_site_label
  _atom_site_symmetry_multiplicity
  _atom_site_fract_x
  _atom_site_fract_y
  _atom_site_fract_z
  _atom_site_occupancy
  H   H1        1.0  0.7453539371490479  0.4761897027492523  0.8611568808555604  1.0000
  Mg  Mg1       1.0  0.9900360703468324  0.7561706304550171  0.3952911198139191  1.0000
  Mg  Mg2       1.0  0.14425766468048096  0.9182173013687134  0.31753513216972346  1.0000
  Mg  Mg3       1.0  0.15425297617912292  0.8502331376075745  0.28113850951194763  1.0000
  Mg  Mg4       1.0  0.0781063511967659  0.01910221017897129  0.5612519383430481  1.0000
  O   O1        1.0  0.11067499965429307  0.590412974357605  0.7585107684135438  1.0000
  O   O2        1.0  0.6458553671836853  0.4047143757343292  0.8579643368721009  1.0000
  Si  Si1       1.0  0.2652466893196106  0.44320762157440186  0.6644266843795776  1.0000
  Si  Si2       1.0  0.7410907745361328  0.33059969544410706  0.332348495721817  1.0000
  Si  Si3       1.0  0.15666978061199188  0.7017070651054382  0.23675243556499484  1.0000
