data_image0
_chemical_formula_structural       Mg3O3Si4
_chemical_formula_sum              "Mg3 O3 Si4"
_cell_length_a       5.013587999023799
_cell_length_b       5.745653583568598
_cell_length_c       6.021142482757568
_cell_angle_alpha    66.97514931924587
_cell_angle_beta     67.74300833688055
_cell_angle_gamma    67.6361097978014

_space_group_name_H-M_alt    "P 1"
_space_group_IT_number       1

loop_
  _space_group_symop_operation_xyz
  'x, y, z'

loop_
  _atom_site_type_symbol
  _atom_site_label
  _atom_site_symmetry_multiplicity
  _atom_site_fract_x
  _atom_site_fract_y
  _atom_site_fract_z
  _atom_site_occupancy
  Mg  Mg1       1.0  0.09119722992181778  0.047910984605550766  0.7906221151351929  1.0000
  Mg  Mg2       1.0  0.20286422967910767  0.5558714866638184  0.9080201387405396  1.0000
  Mg  Mg3       1.0  0.5375837087631226  0.38518404960632324  0.6052507758140564  1.0000
  O   O1        1.0  0.8933316469192505  0.3005172312259674  0.48344677686691284  1.0000
  O   O2        1.0  0.8108637928962708  0.267899751663208  0.993141233921051  1.0000
  O   O3        1.0  0.5541250705718994  0.5654464960098267  0.5322624444961548  1.0000
  Si  Si1       1.0  0.01856958121061325  0.5932480096817017  0.2456478625535965  1.0000
  Si  Si2       1.0  0.03600309416651726  0.7677068114280701  0.8611459136009216  1.0000
  Si  Si3       1.0  0.5479392409324646  0.034131381660699844  0.6043728590011597  1.0000
  Si  Si4       1.0  0.5373468995094299  0.9685502052307129  0.9105309247970581  1.0000
