data_image0
_chemical_formula_structural       CaMg3O4SiZr
_chemical_formula_sum              "Ca1 Mg3 O4 Si1 Zr1"
_cell_length_a       5.472174760023571
_cell_length_b       4.231151431351834
_cell_length_c       5.472325325012207
_cell_angle_alpha    38.655105617804
_cell_angle_beta     57.88272493402597
_cell_angle_gamma    30.832175133779025

_space_group_name_H-M_alt    "P 1"
_space_group_IT_number       1

loop_
  _space_group_symop_operation_xyz
  'x, y, z'

loop_
  _atom_site_type_symbol
  _atom_site_label
  _atom_site_symmetry_multiplicity
  _atom_site_fract_x
  _atom_site_fract_y
  _atom_site_fract_z
  _atom_site_occupancy
  Ca  Ca1       1.0  0.8694756627082826  0.44869574904441806  0.830797076225281  1.0000
  Mg  Mg1       1.0  0.5121188163757324  0.05770204961299893  0.26631331443786627  1.0000
  Mg  Mg2       1.0  0.8169867396354678  0.3451247513294217  0.852358937263489  1.0000
  Mg  Mg3       1.0  0.6350581645965576  0.5831363797187806  0.583768904209137  1.0000
  O   O1        1.0  0.2880580425262453  0.22503735125064808  0.7371539473533631  1.0000
  O   O2        1.0  0.8109331130981445  0.34839230775833135  0.28486573696136475  1.0000
  O   O3        1.0  0.22091007232666016  0.02921031601727011  0.9847652912139893  1.0000
  O   O4        1.0  0.2950119376182556  0.5264371633529663  0.24635389447212225  1.0000
  Si  Si1       1.0  0.8086620569229126  0.1745670437812804  0.17880924046039587  1.0000
  Zr  Zr1       1.0  0.6078351736068726  0.027542481198906885  0.09782917052507405  1.0000
