data_image0
_chemical_formula_structural       K2Pd3RbScZr4
_chemical_formula_sum              "K2 Pd3 Rb1 Sc1 Zr4"
_cell_length_a       3.9939649450989343
_cell_length_b       9.252215699996807
_cell_length_c       9.293203353881836
_cell_angle_alpha    119.70594755486056
_cell_angle_beta     90.08197387268764
_cell_angle_gamma    90.16804978948726

_space_group_name_H-M_alt    "P 1"
_space_group_IT_number       1

loop_
  _space_group_symop_operation_xyz
  'x, y, z'

loop_
  _atom_site_type_symbol
  _atom_site_label
  _atom_site_symmetry_multiplicity
  _atom_site_fract_x
  _atom_site_fract_y
  _atom_site_fract_z
  _atom_site_occupancy
  K   K1        1.0  0.14333806931972504  0.15833240747451782  0.7918415665626526  1.0000
  K   K2        1.0  0.14475229382514954  0.7421247959136963  0.8099977970123291  1.0000
  Pd  Pd1       1.0  0.14255668222904205  0.8791232109069824  0.19736856222152716  1.0000
  Pd  Pd2       1.0  0.6448227167129517  0.36217719316482544  0.6763408780097961  1.0000
  Pd  Pd3       1.0  0.6457549333572388  0.07896734774112701  0.14303678274154663  1.0000
  Rb  Rb1       1.0  0.6451812386512756  0.5615888833999634  0.07455653697252276  1.0000
  Sc  Sc1       1.0  0.6469290852546692  0.5051103830337524  0.46399933099746704  1.0000
  Zr  Zr1       1.0  0.6454244256019592  0.9924264550209045  0.4391387403011322  1.0000
  Zr  Zr2       1.0  0.14579060673713684  0.22438465058803558  0.44431057572364807  1.0000
  Zr  Zr3       1.0  0.14645417034626007  0.3230690360069275  0.1924104392528534  1.0000
  Zr  Zr4       1.0  0.14365972578525543  0.7420915365219116  0.43263182044029236  1.0000
