data_image0
_chemical_formula_structural       ClK2PdPrS2ScTe2Zr
_chemical_formula_sum              "Cl1 K2 Pd1 Pr1 S2 Sc1 Te2 Zr1"
_cell_length_a       7.112888744279743
_cell_length_b       7.132612973453277
_cell_length_c       7.2400970458984375
_cell_angle_alpha    106.45334977276592
_cell_angle_beta     105.96307211433763
_cell_angle_gamma    105.87590414952857

_space_group_name_H-M_alt    "P 1"
_space_group_IT_number       1

loop_
  _space_group_symop_operation_xyz
  'x, y, z'

loop_
  _atom_site_type_symbol
  _atom_site_label
  _atom_site_symmetry_multiplicity
  _atom_site_fract_x
  _atom_site_fract_y
  _atom_site_fract_z
  _atom_site_occupancy
  Cl  Cl1       1.0  0.660747230052948  0.5873326659202576  0.5224758386611938  1.0000
  K   K1        1.0  0.625346839427948  0.08107359707355499  0.6269019842147827  1.0000
  K   K2        1.0  0.24254736304283142  0.470758855342865  0.6370660066604614  1.0000
  Pd  Pd1       1.0  0.4492356777191162  0.9739044308662415  0.09242263436317444  1.0000
  Pr  Pr1       1.0  0.27055275440216064  0.3751438558101654  0.12300243973731993  1.0000
  S   S1        1.0  0.23514437675476074  0.7689813375473022  0.23571938276290894  1.0000
  S   S2        1.0  0.18414704501628876  0.9778039455413818  0.7874637246131897  1.0000
  Sc  Sc1       1.0  0.943519115447998  0.7708746790885925  0.9238792657852173  1.0000
  Te  Te1       1.0  0.6696776151657104  0.4840026795864105  0.009394772350788085  1.0000
  Te  Te2       1.0  0.8776245713233948  0.08818848431110382  0.23261645436286923  1.0000
  Zr  Zr1       1.0  0.9512380361557007  0.7644186019897461  0.3847573399543762  1.0000
