data_image0
_chemical_formula_structural       DyFInKMoPPdScTe2Zr
_chemical_formula_sum              "Dy1 F1 In1 K1 Mo1 P1 Pd1 Sc1 Te2 Zr1"
_cell_length_a       6.331179338957384
_cell_length_b       6.310433701662033
_cell_length_c       8.57628345489502
_cell_angle_alpha    68.28355228641097
_cell_angle_beta     68.26686709127176
_cell_angle_gamma    59.755132781542144

_space_group_name_H-M_alt    "P 1"
_space_group_IT_number       1

loop_
  _space_group_symop_operation_xyz
  'x, y, z'

loop_
  _atom_site_type_symbol
  _atom_site_label
  _atom_site_symmetry_multiplicity
  _atom_site_fract_x
  _atom_site_fract_y
  _atom_site_fract_z
  _atom_site_occupancy
  Dy  Dy1       1.0  0.05465918779373169  0.9805983901023865  0.22702071070671084  1.0000
  F   F1        1.0  0.24656975269317627  0.7414141893386841  0.9663224816322327  1.0000
  In  In1       1.0  0.015006061643362045  0.3920384347438812  0.9543788433074949  1.0000
  K   K1        1.0  0.5794036984443665  0.5348139405250549  0.6221768856048584  1.0000
  Mo  Mo1       1.0  0.46546682715415955  0.9625813364982605  0.9156221747398376  1.0000
  P   P1        1.0  0.7026854753494263  0.09734801948070526  0.9624818563461304  1.0000
  Pd  Pd1       1.0  0.0727267935872078  0.06552634388208389  0.8037657141685486  1.0000
  Sc  Sc1       1.0  0.42337915301322937  0.35842165350914  0.08989182114601135  1.0000
  Te  Te1       1.0  0.9124171137809753  0.8505890369415283  0.6138201951980592  1.0000
  Te  Te2       1.0  0.29228806495666504  0.23974040150642395  0.47200343012809753  1.0000
  Zr  Zr1       1.0  0.7870410084724426  0.7335793375968933  0.12849043309688568  1.0000
