data_image0
_chemical_formula_structural       K2Pd3ScZr5
_chemical_formula_sum              "K2 Pd3 Sc1 Zr5"
_cell_length_a       3.9069580433194027
_cell_length_b       9.030141842502115
_cell_length_c       9.051012992858887
_cell_angle_alpha    119.78215688328531
_cell_angle_beta     89.9668128549476
_cell_angle_gamma    90.1029646220963

_space_group_name_H-M_alt    "P 1"
_space_group_IT_number       1

loop_
  _space_group_symop_operation_xyz
  'x, y, z'

loop_
  _atom_site_type_symbol
  _atom_site_label
  _atom_site_symmetry_multiplicity
  _atom_site_fract_x
  _atom_site_fract_y
  _atom_site_fract_z
  _atom_site_occupancy
  K   K1        1.0  0.7369943261146545  0.9982936382293701  0.9832713007926941  1.0000
  K   K2        1.0  0.23442956805229187  0.29037076234817505  0.41640886664390564  1.0000
  Pd  Pd1       1.0  0.7343395352363586  0.6474460363388062  0.07226017117500305  1.0000
  Pd  Pd2       1.0  0.23527342081069946  0.8172995448112488  0.6268699169158937  1.0000
  Pd  Pd3       1.0  0.73436439037323  0.5893363952636719  0.6526551842689514  1.0000
  Sc  Sc1       1.0  0.7359789609909058  0.35267460346221924  0.7828672528266908  1.0000
  Zr  Zr1       1.0  0.2367483228445053  0.8261538743972778  0.2553849220275879  1.0000
  Zr  Zr2       1.0  0.23364873230457306  0.641886293888092  0.8575146198272705  1.0000
  Zr  Zr3       1.0  0.7371993660926819  0.6078954339027405  0.37144544720649725  1.0000
  Zr  Zr4       1.0  0.7373285293579102  0.9904278516769409  0.5278054475784303  1.0000
  Zr  Zr5       1.0  0.23338544368743896  0.41380178928375244  0.07258950918912893  1.0000
