data_image0
_chemical_formula_structural       Cd5NaO2Si7
_chemical_formula_sum              "Cd5 Na1 O2 Si7"
_cell_length_a       5.862291152720801
_cell_length_b       5.697569056824799
_cell_length_c       10.51378059387207
_cell_angle_alpha    90.23168273252422
_cell_angle_beta     90.52322244301327
_cell_angle_gamma    91.78211776077272

_space_group_name_H-M_alt    "P 1"
_space_group_IT_number       1

loop_
  _space_group_symop_operation_xyz
  'x, y, z'

loop_
  _atom_site_type_symbol
  _atom_site_label
  _atom_site_symmetry_multiplicity
  _atom_site_fract_x
  _atom_site_fract_y
  _atom_site_fract_z
  _atom_site_occupancy
  Cd  Cd1       1.0  0.09212526679039001  0.3451221287250519  0.22489118576049805  1.0000
  Cd  Cd2       1.0  0.5764189958572388  0.8680126667022705  0.06556443870067596  1.0000
  Cd  Cd3       1.0  0.09860777854919434  0.7318786382675171  0.2100767195224762  1.0000
  Cd  Cd4       1.0  0.616298496723175  0.7133609056472778  0.00499398447573185  1.0000
  Cd  Cd5       1.0  0.594451904296875  0.2743285894393921  0.38920387625694275  1.0000
  Na  Na1       1.0  0.8636903762817383  0.5628368258476257  0.276082307100296  1.0000
  O   O1        1.0  0.4770030081272125  0.982683002948761  0.6100345849990845  1.0000
  O   O2        1.0  0.9596751928329468  0.6821907758712769  0.9690982699394226  1.0000
  Si  Si1       1.0  0.06794429570436478  0.02366296388208866  0.41053688526153564  1.0000
  Si  Si2       1.0  0.9658796787261963  0.9762865304946899  0.41021275520324707  1.0000
  Si  Si3       1.0  0.09073729813098907  0.3330520987510681  0.7187172174453735  1.0000
  Si  Si4       1.0  0.4534425735473633  0.7473049163818359  0.9246925115585327  1.0000
  Si  Si5       1.0  0.10473752021789551  0.21714648604393005  0.3930354714393616  1.0000
  Si  Si6       1.0  0.0979924276471138  0.21118292212486267  0.8482705354690552  1.0000
  Si  Si7       1.0  0.4651220142841339  0.0719197690486908  0.43816661834716797  1.0000
