data_image0
_chemical_formula_structural       Cd5HNa3OSi5
_chemical_formula_sum              "Cd5 H1 Na3 O1 Si5"
_cell_length_a       7.676243212029727
_cell_length_b       8.235149689365407
_cell_length_c       9.110638618469238
_cell_angle_alpha    116.45805610980887
_cell_angle_beta     89.7188547291254
_cell_angle_gamma    90.72285847297809

_space_group_name_H-M_alt    "P 1"
_space_group_IT_number       1

loop_
  _space_group_symop_operation_xyz
  'x, y, z'

loop_
  _atom_site_type_symbol
  _atom_site_label
  _atom_site_symmetry_multiplicity
  _atom_site_fract_x
  _atom_site_fract_y
  _atom_site_fract_z
  _atom_site_occupancy
  Cd  Cd1       1.0  0.16160093247890472  0.049289874732494354  0.7275251150131226  1.0000
  Cd  Cd2       1.0  0.18026201426982882  0.010097223334014416  0.9555214643478394  1.0000
  Cd  Cd3       1.0  0.183379739522934  0.9178704023361207  0.6347042918205261  1.0000
  Cd  Cd4       1.0  0.17475689947605133  0.4835600554943085  0.47017160058021545  1.0000
  Cd  Cd5       1.0  0.6757131814956665  0.15930703282356262  0.1848902553319931  1.0000
  H   H1        1.0  0.05305445939302445  0.06999526172876358  0.9640441536903381  1.0000
  Na  Na1       1.0  0.6827901601791382  0.1251276731491089  0.3550310730934143  1.0000
  Na  Na2       1.0  0.6779635548591614  0.5667567253112793  0.24808891117572784  1.0000
  Na  Na3       1.0  0.6760736703872681  0.71148681640625  0.46582430601119995  1.0000
  O   O1        1.0  0.172042116522789  0.6379020810127258  0.46496596932411194  1.0000
  Si  Si1       1.0  0.692735493183136  0.19363395869731903  0.8030363917350769  1.0000
  Si  Si2       1.0  0.17788007855415344  0.634224534034729  0.25898328423500067  1.0000
  Si  Si3       1.0  0.17165610194206238  0.06907259672880173  0.8156828880310059  1.0000
  Si  Si4       1.0  0.17940631508827215  0.21992902457714084  0.5704694390296936  1.0000
  Si  Si5       1.0  0.5245813727378845  0.6219103336334229  0.950715959072113  1.0000
