data_image0
_chemical_formula_structural       Cd6O2Si6Ti
_chemical_formula_sum              "Cd6 O2 Si6 Ti1"
_cell_length_a       6.430889119886577
_cell_length_b       6.437100560095325
_cell_length_c       10.279109001159668
_cell_angle_alpha    90.26249855751426
_cell_angle_beta     89.81280600330625
_cell_angle_gamma    89.09032934499852

_space_group_name_H-M_alt    "P 1"
_space_group_IT_number       1

loop_
  _space_group_symop_operation_xyz
  'x, y, z'

loop_
  _atom_site_type_symbol
  _atom_site_label
  _atom_site_symmetry_multiplicity
  _atom_site_fract_x
  _atom_site_fract_y
  _atom_site_fract_z
  _atom_site_occupancy
  Cd  Cd1       1.0  0.8630421757698059  0.23710529506206512  0.32434913516044617  1.0000
  Cd  Cd2       1.0  0.3581910729408264  0.9642820954322815  0.555063784122467  1.0000
  Cd  Cd3       1.0  0.34094417095184326  0.8689280152320862  0.43227413296699524  1.0000
  Cd  Cd4       1.0  0.34518468379974365  0.07089369744062424  0.9597918391227722  1.0000
  Cd  Cd5       1.0  0.34390920400619507  0.2750493586063385  0.777676522731781  1.0000
  Cd  Cd6       1.0  0.8454576134681702  0.8818000555038452  0.823758602142334  1.0000
  O   O1        1.0  0.3796374499797821  0.7099323868751526  0.21100372076034546  1.0000
  O   O2        1.0  0.9995414018630981  0.5086357593536377  0.5589859485626221  1.0000
  Si  Si1       1.0  0.8441521525382996  0.9425765872001648  0.583629846572876  1.0000
  Si  Si2       1.0  0.012314867228269577  0.5703713893890381  0.9048879742622375  1.0000
  Si  Si3       1.0  0.8433113694190979  0.4551992118358612  0.9648708701133728  1.0000
  Si  Si4       1.0  0.6679939031600952  0.6961697340011597  0.35541942715644836  1.0000
  Si  Si5       1.0  0.7701718807220459  0.32841482758522034  0.6860067844390869  1.0000
  Si  Si6       1.0  0.007549528032541275  0.06206771731376648  0.1815396100282669  1.0000
  Ti  Ti1       1.0  0.26679885387420654  0.27325737476348877  0.12060528248548508  1.0000
