data_image0
_chemical_formula_structural       Cd4Na2O3Si6
_chemical_formula_sum              "Cd4 Na2 O3 Si6"
_cell_length_a       6.440111815053476
_cell_length_b       7.136017396163448
_cell_length_c       7.272362232208252
_cell_angle_alpha    82.96161713100405
_cell_angle_beta     67.09371176531305
_cell_angle_gamma    69.45254923184193

_space_group_name_H-M_alt    "P 1"
_space_group_IT_number       1

loop_
  _space_group_symop_operation_xyz
  'x, y, z'

loop_
  _atom_site_type_symbol
  _atom_site_label
  _atom_site_symmetry_multiplicity
  _atom_site_fract_x
  _atom_site_fract_y
  _atom_site_fract_z
  _atom_site_occupancy
  Cd  Cd1       1.0  0.5528926849365234  0.5799421072006226  0.726246178150177  1.0000
  Cd  Cd2       1.0  0.7430591583251953  0.9399991035461425  0.9450201988220215  1.0000
  Cd  Cd3       1.0  0.23966298997402194  0.6529123187065123  0.3889096677303314  1.0000
  Cd  Cd4       1.0  0.7372998595237732  0.2216006815433502  0.6230679154396057  1.0000
  Na  Na1       1.0  0.23914805054664615  0.7647035121917723  0.7735190987586975  1.0000
  Na  Na2       1.0  0.23856124281883248  0.9183161258697509  0.7176001071929932  1.0000
  O   O1        1.0  0.49162137508392334  0.6793879270553588  0.2233022153377533  1.0000
  O   O2        1.0  0.7749606370925903  0.6561379432678222  0.20422933995723724  1.0000
  O   O3        1.0  0.9868528842926025  0.7873912453651427  0.9846488833427429  1.0000
  Si  Si1       1.0  0.7247126698493958  0.4783962965011596  0.0372442752122879  1.0000
  Si  Si2       1.0  0.7201467156410217  0.8291655182838439  0.1753060221672058  1.0000
  Si  Si3       1.0  0.2394346743822098  0.6329576969146727  0.5538358092308044  1.0000
  Si  Si4       1.0  0.9605134725570679  0.07537489384412766  0.38277521729469305  1.0000
  Si  Si5       1.0  0.22392520308494568  0.316967099905014  0.2094443440437317  1.0000
  Si  Si6       1.0  0.22495315968990326  0.319188117980957  0.1780708134174347  1.0000
