data_image0
_chemical_formula_structural       Cd3NaO3Si8
_chemical_formula_sum              "Cd3 Na1 O3 Si8"
_cell_length_a       6.633578460799803
_cell_length_b       7.517322225107306
_cell_length_c       7.796811580657959
_cell_angle_alpha    76.75211956561107
_cell_angle_beta     71.38487015890361
_cell_angle_gamma    78.27788515988665

_space_group_name_H-M_alt    "P 1"
_space_group_IT_number       1

loop_
  _space_group_symop_operation_xyz
  'x, y, z'

loop_
  _atom_site_type_symbol
  _atom_site_label
  _atom_site_symmetry_multiplicity
  _atom_site_fract_x
  _atom_site_fract_y
  _atom_site_fract_z
  _atom_site_occupancy
  Cd  Cd1       1.0  0.3546065092086792  0.7993517518043518  0.29050371050834656  1.0000
  Cd  Cd2       1.0  0.3823324739933014  0.4505695402622223  0.8096160292625426  1.0000
  Cd  Cd3       1.0  0.3366445004940033  0.594593346118927  0.8537344932556151  1.0000
  Na  Na1       1.0  0.8515461683273315  0.5728684067726135  0.35481259226799006  1.0000
  O   O1        1.0  0.5329816341400146  0.02087806537747383  0.7496080398559569  1.0000
  O   O2        1.0  0.7687267065048218  0.6465122103691101  0.601349413394928  1.0000
  O   O3        1.0  0.2701930105686188  0.8952382206916809  0.7209219336509703  1.0000
  Si  Si1       1.0  0.8724914193153381  0.8176037669181824  0.06458296626806259  1.0000
  Si  Si2       1.0  0.8595536947250366  0.35805532336235046  0.10180624574422835  1.0000
  Si  Si3       1.0  0.4833814203739166  0.39383792877197266  0.05975076928734779  1.0000
  Si  Si4       1.0  0.002817141357809305  0.7383657097816467  0.7692634463310241  1.0000
  Si  Si5       1.0  0.35861936211586  0.21900857985019684  0.33265200257301325  1.0000
  Si  Si6       1.0  0.3612348437309265  0.7815478444099426  0.38078376650810236  1.0000
  Si  Si7       1.0  0.831273078918457  0.6674895882606506  0.924744427204132  1.0000
  Si  Si8       1.0  0.8380199670791626  0.03670342266559601  0.6008840799331665  1.0000
