data_image0
_chemical_formula_structural       Cd5GeO3Si6
_chemical_formula_sum              "Cd5 Ge1 O3 Si6"
_cell_length_a       6.315204498080667
_cell_length_b       6.537570234144187
_cell_length_c       9.584117889404297
_cell_angle_alpha    77.81056719548408
_cell_angle_beta     74.53897284257629
_cell_angle_gamma    87.82846801106666

_space_group_name_H-M_alt    "P 1"
_space_group_IT_number       1

loop_
  _space_group_symop_operation_xyz
  'x, y, z'

loop_
  _atom_site_type_symbol
  _atom_site_label
  _atom_site_symmetry_multiplicity
  _atom_site_fract_x
  _atom_site_fract_y
  _atom_site_fract_z
  _atom_site_occupancy
  Cd  Cd1       1.0  0.7883653044700623  0.7872738838195801  0.19351281225681305  1.0000
  Cd  Cd2       1.0  0.3098793923854828  0.5089664459228516  0.7408865690231323  1.0000
  Cd  Cd3       1.0  0.33621227741241455  0.9938280582427979  0.33428147435188293  1.0000
  Cd  Cd4       1.0  0.7803084254264832  0.46411678194999695  0.6330518126487732  1.0000
  Cd  Cd5       1.0  0.8197770714759827  0.07675766944885254  0.566676139831543  1.0000
  Ge  Ge1       1.0  0.28961628675460815  0.7052122950553894  0.2872723340988159  1.0000
  O   O1        1.0  0.2573578953742981  0.2641920745372772  0.4009789824485779  1.0000
  O   O2        1.0  0.7641615271568298  0.6404860615730286  0.45770159363746643  1.0000
  O   O3        1.0  0.1427733451128006  0.7364740967750549  0.22318442165851593  1.0000
  Si  Si1       1.0  0.6390355825424194  0.849846601486206  0.16799959540367126  1.0000
  Si  Si2       1.0  0.8051642775535583  0.8867877721786499  0.29453903436660767  1.0000
  Si  Si3       1.0  0.8395785093307495  0.09692629426717758  0.7928974628448487  1.0000
  Si  Si4       1.0  0.1680857241153717  0.7571528553962708  0.2535998523235321  1.0000
  Si  Si5       1.0  0.2937498092651367  0.015863405540585518  0.7837004661560059  1.0000
  Si  Si6       1.0  0.7509498596191406  0.2441759705543518  0.1295720338821411  1.0000
