data_image0
_chemical_formula_structural       Cd2ILa2TiZn
_chemical_formula_sum              "Cd2 I1 La2 Ti1 Zn1"
_cell_length_a       4.966894493543267
_cell_length_b       6.20929265961705
_cell_length_c       6.7854204177856445
_cell_angle_alpha    119.72303097960874
_cell_angle_beta     93.11716175012818
_cell_angle_gamma    91.75446599940298

_space_group_name_H-M_alt    "P 1"
_space_group_IT_number       1

loop_
  _space_group_symop_operation_xyz
  'x, y, z'

loop_
  _atom_site_type_symbol
  _atom_site_label
  _atom_site_symmetry_multiplicity
  _atom_site_fract_x
  _atom_site_fract_y
  _atom_site_fract_z
  _atom_site_occupancy
  Cd  Cd1       1.0  0.7532042860984802  0.5877759456634521  0.3601001501083374  1.0000
  Cd  Cd2       1.0  0.26607760787010193  0.16534218192100525  0.3642784655094147  1.0000
  I   I1        1.0  0.2656850516796112  0.28859180212020874  0.04057535529136658  1.0000
  La  La1       1.0  0.25594231486320496  0.32321566343307495  0.8609476089477539  1.0000
  La  La2       1.0  0.7627323865890503  0.19808743894100186  0.2028178870677948  1.0000
  Ti  Ti1       1.0  0.7582883834838867  0.8975259065628051  0.2885543704032898  1.0000
  Zn  Zn1       1.0  0.5369794368743896  0.1756569892168045  0.24615530669689178  1.0000
