data_image0
_chemical_formula_structural       HfI2PSbScZn
_chemical_formula_sum              "Hf1 I2 P1 Sb1 Sc1 Zn1"
_cell_length_a       5.2986207061227635
_cell_length_b       5.274807562224556
_cell_length_c       6.942842483520508
_cell_angle_alpha    115.25032562872423
_cell_angle_beta     106.78889509421396
_cell_angle_gamma    100.50645788202002

_space_group_name_H-M_alt    "P 1"
_space_group_IT_number       1

loop_
  _space_group_symop_operation_xyz
  'x, y, z'

loop_
  _atom_site_type_symbol
  _atom_site_label
  _atom_site_symmetry_multiplicity
  _atom_site_fract_x
  _atom_site_fract_y
  _atom_site_fract_z
  _atom_site_occupancy
  Hf  Hf1       1.0  0.9051302671432495  0.8230882883071899  0.6122952699661255  1.0000
  I   I1        1.0  0.39304864406585693  0.333818644285202  0.325625479221344  1.0000
  I   I2        1.0  0.910828709602356  0.6159055233001709  0.9784556031227112  1.0000
  P   P1        1.0  0.9544351696968079  0.6386848092079163  0.6514630317687988  1.0000
  Sb  Sb1       1.0  0.3125796318054199  0.9473632574081421  0.1911793053150177  1.0000
  Sc  Sc1       1.0  0.547013521194458  0.5037005543708801  0.34988072514533997  1.0000
  Zn  Zn1       1.0  0.5060261487960815  0.6685377955436707  0.6441407203674316  1.0000
