data_image0
_chemical_formula_structural       HP4Rh3SSb
_chemical_formula_sum              "H1 P4 Rh3 S1 Sb1"
_cell_length_a       6.28499142708481
_cell_length_b       6.95253579853618
_cell_length_c       7.701910495758057
_cell_angle_alpha    77.84957540438428
_cell_angle_beta     67.03713089299686
_cell_angle_gamma    64.97739491395768

_space_group_name_H-M_alt    "P 1"
_space_group_IT_number       1

loop_
  _space_group_symop_operation_xyz
  'x, y, z'

loop_
  _atom_site_type_symbol
  _atom_site_label
  _atom_site_symmetry_multiplicity
  _atom_site_fract_x
  _atom_site_fract_y
  _atom_site_fract_z
  _atom_site_occupancy
  H   H1        1.0  0.7383077144622804  0.6068219542503357  0.9661191105842591  1.0000
  P   P1        1.0  0.29348158836364746  0.9038459658622742  0.6535550355911255  1.0000
  P   P2        1.0  0.7093616724014283  0.9832866787910461  0.45826855301857  1.0000
  P   P3        1.0  0.8123022913932801  0.8701423406600952  0.017344232648611013  1.0000
  P   P4        1.0  0.4420826137065888  0.40386298298835754  0.9980223178863527  1.0000
  Rh  Rh1       1.0  0.8218079209327699  0.7399709224700928  0.7941478490829468  1.0000
  Rh  Rh2       1.0  0.8480027914047242  0.17479678988456726  0.39751881361007685  1.0000
  Rh  Rh3       1.0  0.599199652671814  0.38271746039390564  0.6670507788658142  1.0000
  S   S1        1.0  0.8670337200164796  0.40851104259490967  0.029883714392781202  1.0000
  Sb  Sb1       1.0  0.16527408361434937  0.7398191690444946  0.6800132393836975  1.0000
