data_image0
_chemical_formula_structural       HLa2P3RhS2Si
_chemical_formula_sum              "H1 La2 P3 Rh1 S2 Si1"
_cell_length_a       5.137492576779927
_cell_length_b       6.697575142667505
_cell_length_c       7.195132732391357
_cell_angle_alpha    112.03169713398349
_cell_angle_beta     96.44121851862779
_cell_angle_gamma    88.11458402393686

_space_group_name_H-M_alt    "P 1"
_space_group_IT_number       1

loop_
  _space_group_symop_operation_xyz
  'x, y, z'

loop_
  _atom_site_type_symbol
  _atom_site_label
  _atom_site_symmetry_multiplicity
  _atom_site_fract_x
  _atom_site_fract_y
  _atom_site_fract_z
  _atom_site_occupancy
  H   H1        1.0  0.06840455532073975  0.8530142903327942  0.09224653989076621  1.0000
  La  La1       1.0  0.5107181072235107  0.8402860760688782  0.7520033717155457  1.0000
  La  La2       1.0  0.17706555128097534  0.0715232715010643  0.5218961238861084  1.0000
  P   P1        1.0  0.05478595569729805  0.6085938215255737  0.622492790222168  1.0000
  P   P2        1.0  0.768102765083313  0.4087130129337311  0.9258691072463989  1.0000
  P   P3        1.0  0.5680810809135437  0.6347139477729797  0.3458573520183563  1.0000
  Rh  Rh1       1.0  0.6844070553779602  0.7782931327819824  0.5580592751502991  1.0000
  S   S1        1.0  0.5187239050865173  0.06563147902488708  0.8333912491798401  1.0000
  S   S2        1.0  0.06848694384098053  0.5676045417785645  0.6023616790771484  1.0000
  Si  Si1       1.0  0.27274999022483826  0.9121086597442627  0.3049232065677643  1.0000
