data_image0
_chemical_formula_structural       FPRh5S3
_chemical_formula_sum              "F1 P1 Rh5 S3"
_cell_length_a       4.52025250150738
_cell_length_b       3.950043782404192
_cell_length_c       5.8853302001953125
_cell_angle_alpha    135.8182094036999
_cell_angle_beta     98.67889966829524
_cell_angle_gamma    82.70547637486591

_space_group_name_H-M_alt    "P 1"
_space_group_IT_number       1

loop_
  _space_group_symop_operation_xyz
  'x, y, z'

loop_
  _atom_site_type_symbol
  _atom_site_label
  _atom_site_symmetry_multiplicity
  _atom_site_fract_x
  _atom_site_fract_y
  _atom_site_fract_z
  _atom_site_occupancy
  F   F1        1.0  0.286409467458725  0.4622243940830232  0.643666684627533  1.0000
  P   P1        1.0  0.37561067938804626  0.33632570505142245  0.7646565437316896  1.0000
  Rh  Rh1       1.0  0.11285999417304993  0.6579475402832032  0.6288463473320007  1.0000
  Rh  Rh2       1.0  0.3070271909236908  0.909243643283844  0.32166174054145813  1.0000
  Rh  Rh3       1.0  0.14228960871696472  0.19254334270954135  0.6880797147750854  1.0000
  Rh  Rh4       1.0  0.0946444645524025  0.6729525923728942  0.41662719845771784  1.0000
  Rh  Rh5       1.0  0.8919519186019897  0.18890011310577393  0.0669442266225815  1.0000
  S   S1        1.0  0.7927806973457336  0.4424102008342744  0.2103877514600754  1.0000
  S   S2        1.0  0.6460105776786804  0.9398502111434937  0.6453218460083008  1.0000
  S   S3        1.0  0.3334749639034271  0.9595654606819154  0.32604873180389404  1.0000
