data_image0
_chemical_formula_structural       BHP3Rh2S2Tl
_chemical_formula_sum              "B1 H1 P3 Rh2 S2 Tl1"
_cell_length_a       4.840701597363533
_cell_length_b       6.150260703774721
_cell_length_c       7.066288948059082
_cell_angle_alpha    102.5473775131648
_cell_angle_beta     90.89663329102171
_cell_angle_gamma    87.14446010432508

_space_group_name_H-M_alt    "P 1"
_space_group_IT_number       1

loop_
  _space_group_symop_operation_xyz
  'x, y, z'

loop_
  _atom_site_type_symbol
  _atom_site_label
  _atom_site_symmetry_multiplicity
  _atom_site_fract_x
  _atom_site_fract_y
  _atom_site_fract_z
  _atom_site_occupancy
  B   B1        1.0  0.4562307894229889  0.6869387626647949  0.1376670747995377  1.0000
  H   H1        1.0  0.1885652393102646  0.08381586521863937  0.06232288107275963  1.0000
  P   P1        1.0  0.6801562309265137  0.46270009875297546  0.7688248753547668  1.0000
  P   P2        1.0  0.6913414597511292  0.8267012238502502  0.7880624532699586  1.0000
  P   P3        1.0  0.7514089941978455  0.09132982045412064  0.17451131343841553  1.0000
  Rh  Rh1       1.0  0.697744607925415  0.9043833613395691  0.5756017565727234  1.0000
  Rh  Rh2       1.0  0.19225552678108215  0.50848388671875  0.2654656767845154  1.0000
  S   S1        1.0  0.1677425354719162  0.5086100697517395  0.28810131549835205  1.0000
  S   S2        1.0  0.7136972546577454  0.8519464731216431  0.6245476603507996  1.0000
  Tl  Tl1       1.0  0.16638338565826416  0.31766074895858765  0.09330594539642334  1.0000
