data_image0
_chemical_formula_structural       H2P3Rh3STl
_chemical_formula_sum              "H2 P3 Rh3 S1 Tl1"
_cell_length_a       5.026287681942656
_cell_length_b       5.79554622835978
_cell_length_c       7.617269992828369
_cell_angle_alpha    103.41121866249671
_cell_angle_beta     96.72640321189276
_cell_angle_gamma    88.48135837153492

_space_group_name_H-M_alt    "P 1"
_space_group_IT_number       1

loop_
  _space_group_symop_operation_xyz
  'x, y, z'

loop_
  _atom_site_type_symbol
  _atom_site_label
  _atom_site_symmetry_multiplicity
  _atom_site_fract_x
  _atom_site_fract_y
  _atom_site_fract_z
  _atom_site_occupancy
  H   H1        1.0  0.8995113968849182  0.3303282558917999  0.6689929366111755  1.0000
  H   H2        1.0  0.22959399223327637  0.36913183331489563  0.054332803934812546  1.0000
  P   P1        1.0  0.6055305004119873  0.07817316800355911  0.39993909001350403  1.0000
  P   P2        1.0  0.14414356648921967  0.7689909338951111  0.8753951787948608  1.0000
  P   P3        1.0  0.8910305500030518  0.33227211236953735  0.6910679340362549  1.0000
  Rh  Rh1       1.0  0.5748059749603271  0.5304897427558899  0.5424684286117554  1.0000
  Rh  Rh2       1.0  0.12221527099609375  0.12488087266683578  0.5387568473815918  1.0000
  Rh  Rh3       1.0  0.40593257546424866  0.8439044952392578  0.6692192554473877  1.0000
  S   S1        1.0  0.8166922330856323  0.7639545202255249  0.16335973143577576  1.0000
  Tl  Tl1       1.0  0.8318811058998108  0.07297705113887787  0.6721828579902649  1.0000
