data_image0
_chemical_formula_structural       PRh5S4
_chemical_formula_sum              "P1 Rh5 S4"
_cell_length_a       5.444150716724861
_cell_length_b       6.703548670059408
_cell_length_c       6.733358383178711
_cell_angle_alpha    116.09969843530826
_cell_angle_beta     90.09151582781949
_cell_angle_gamma    89.77209669151817

_space_group_name_H-M_alt    "P 1"
_space_group_IT_number       1

loop_
  _space_group_symop_operation_xyz
  'x, y, z'

loop_
  _atom_site_type_symbol
  _atom_site_label
  _atom_site_symmetry_multiplicity
  _atom_site_fract_x
  _atom_site_fract_y
  _atom_site_fract_z
  _atom_site_occupancy
  P   P1        1.0  0.6406736969947815  0.879509449005127  0.9848827123641968  1.0000
  Rh  Rh1       1.0  0.881942629814148  0.8836724758148193  0.4449954926967621  1.0000
  Rh  Rh2       1.0  0.14407573640346527  0.7092307209968567  0.5465092658996582  1.0000
  Rh  Rh3       1.0  0.8810880780220032  0.4770437777042389  0.774077296257019  1.0000
  Rh  Rh4       1.0  0.4000261723995209  0.28397679328918457  0.6092797517776489  1.0000
  Rh  Rh5       1.0  0.13038520514965057  0.6112073659896851  0.9887711405754089  1.0000
  S   S1        1.0  0.3932429254055023  0.3369511365890503  0.48129802942276  1.0000
  S   S2        1.0  0.6635265350341797  0.04800016060471535  0.14788313210010529  1.0000
  S   S3        1.0  0.39094123244285583  0.4834211468696594  0.6936181783676147  1.0000
  S   S4        1.0  0.9443289637565613  0.17532460391521454  0.5789998173713684  1.0000
