data_image0
_chemical_formula_structural       AlGaI2InTb6
_chemical_formula_sum              "Al1 Ga1 I2 In1 Tb6"
_cell_length_a       8.033750118953794
_cell_length_b       7.771871892818147
_cell_length_c       8.28258228302002
_cell_angle_alpha    60.86058338815598
_cell_angle_beta     63.42666165361903
_cell_angle_gamma    60.228066204969984

_space_group_name_H-M_alt    "P 1"
_space_group_IT_number       1

loop_
  _space_group_symop_operation_xyz
  'x, y, z'

loop_
  _atom_site_type_symbol
  _atom_site_label
  _atom_site_symmetry_multiplicity
  _atom_site_fract_x
  _atom_site_fract_y
  _atom_site_fract_z
  _atom_site_occupancy
  Al  Al1       1.0  0.7289864420890808  0.5170114636421204  0.6094796061515808  1.0000
  Ga  Ga1       1.0  0.697450578212738  0.13826824724674225  0.135611429810524  1.0000
  I   I1        1.0  0.013572139665484366  0.851379692554474  0.22686320543289173  1.0000
  I   I2        1.0  0.030916577205061913  0.39353182911872864  0.8186253309249878  1.0000
  In  In1       1.0  0.19068515300750732  0.17005111277103424  0.1412268579006195  1.0000
  Tb  Tb1       1.0  0.7038747668266296  0.6472450494766235  0.6370705366134644  1.0000
  Tb  Tb2       1.0  0.15753807127475739  0.08149801939725876  0.561031699180603  1.0000
  Tb  Tb3       1.0  0.7385841608047485  0.9437661767005922  0.18426430225372314  1.0000
  Tb  Tb4       1.0  0.516675591468811  0.3737644553184509  0.9977841377258301  1.0000
  Tb  Tb5       1.0  0.05049975216388699  0.4225680828094483  0.7818487882614136  1.0000
  Tb  Tb6       1.0  0.4859468936920166  0.02357410080730915  0.18698088824748996  1.0000
