data_image0
_chemical_formula_structural       InPbSbTb8
_chemical_formula_sum              "In1 Pb1 Sb1 Tb8"
_cell_length_a       6.730454087685331
_cell_length_b       7.017102456247795
_cell_length_c       7.8230438232421875
_cell_angle_alpha    89.2704020543936
_cell_angle_beta     89.85332344756247
_cell_angle_gamma    89.42303566180964

_space_group_name_H-M_alt    "P 1"
_space_group_IT_number       1

loop_
  _space_group_symop_operation_xyz
  'x, y, z'

loop_
  _atom_site_type_symbol
  _atom_site_label
  _atom_site_symmetry_multiplicity
  _atom_site_fract_x
  _atom_site_fract_y
  _atom_site_fract_z
  _atom_site_occupancy
  In  In1       1.0  0.1452552080154419  0.6044690608978271  0.31459209322929377  1.0000
  Pb  Pb1       1.0  0.3119049370288849  0.830588161945343  0.5770993828773497  1.0000
  Sb  Sb1       1.0  0.8184989690780639  0.106712207198143  0.17664991319179532  1.0000
  Tb  Tb1       1.0  0.308248370885849  0.4046279191970825  0.7121131420135497  1.0000
  Tb  Tb2       1.0  0.8152615427970885  0.056601617485284805  0.5083882808685303  1.0000
  Tb  Tb3       1.0  0.32775843143463135  0.1608208566904068  0.5802119970321654  1.0000
  Tb  Tb4       1.0  0.3533797860145569  0.46950986981391907  0.7439873814582824  1.0000
  Tb  Tb5       1.0  0.3014383912086487  0.23093493282794952  0.5402796268463134  1.0000
  Tb  Tb6       1.0  0.8089007139205932  0.4882151186466217  0.6550517082214354  1.0000
  Tb  Tb7       1.0  0.805351436138153  0.8070516586303711  0.025321427732706066  1.0000
  Tb  Tb8       1.0  0.8266995549201964  0.9396886229515076  0.5031566619873047  1.0000
