data_image0
_chemical_formula_structural       HIIn3PdTb5
_chemical_formula_sum              "H1 I1 In3 Pd1 Tb5"
_cell_length_a       6.763088326922287
_cell_length_b       6.717060337759464
_cell_length_c       7.001589775085449
_cell_angle_alpha    59.116538277693884
_cell_angle_beta     58.75131803375945
_cell_angle_gamma    59.35042810038282

_space_group_name_H-M_alt    "P 1"
_space_group_IT_number       1

loop_
  _space_group_symop_operation_xyz
  'x, y, z'

loop_
  _atom_site_type_symbol
  _atom_site_label
  _atom_site_symmetry_multiplicity
  _atom_site_fract_x
  _atom_site_fract_y
  _atom_site_fract_z
  _atom_site_occupancy
  H   H1        1.0  0.042103979736566544  0.937189519405365  0.34416937828063965  1.0000
  I   I1        1.0  0.02116084285080433  0.08188264071941376  0.31181761622428894  1.0000
  In  In1       1.0  0.02680390328168869  0.5514581799507141  0.8980454802513123  1.0000
  In  In2       1.0  0.7897569537162781  0.870854914188385  0.7122368812561035  1.0000
  In  In3       1.0  0.6178112626075745  0.19853219389915466  0.08210290968418121  1.0000
  Pd  Pd1       1.0  0.30002620816230774  0.68575519323349  0.9886693954467773  1.0000
  Tb  Tb1       1.0  0.5169084668159485  0.5918055176734924  0.894055962562561  1.0000
  Tb  Tb2       1.0  0.05015614256262779  0.8557948470115662  0.528827965259552  1.0000
  Tb  Tb3       1.0  0.7774755954742432  0.5629407167434692  0.3635290861129761  1.0000
  Tb  Tb4       1.0  0.2777794599533081  0.21916328370571136  0.48100873827934265  1.0000
  Tb  Tb5       1.0  0.8027608394622803  0.64494788646698  0.3995398283004761  1.0000
