data_image0
_chemical_formula_structural       In11
_chemical_formula_sum              "In11"
_cell_length_a       6.604238334103608
_cell_length_b       6.877656186683253
_cell_length_c       7.17485237121582
_cell_angle_alpha    57.89915510338859
_cell_angle_beta     62.21044569075134
_cell_angle_gamma    58.90312526738716

_space_group_name_H-M_alt    "P 1"
_space_group_IT_number       1

loop_
  _space_group_symop_operation_xyz
  'x, y, z'

loop_
  _atom_site_type_symbol
  _atom_site_label
  _atom_site_symmetry_multiplicity
  _atom_site_fract_x
  _atom_site_fract_y
  _atom_site_fract_z
  _atom_site_occupancy
  In  In1       1.0  0.13845095038414001  0.11199542135000229  0.8147169947624207  1.0000
  In  In2       1.0  0.07007332146167755  0.7987468838691711  0.9841564297676088  1.0000
  In  In3       1.0  0.5428655743598938  0.11775913834571838  0.18327240645885468  1.0000
  In  In4       1.0  0.0903300791978836  0.26704543828964233  0.36090287566185  1.0000
  In  In5       1.0  0.10647227615118027  0.3423108756542206  0.26176169514656067  1.0000
  In  In6       1.0  0.07245180755853653  0.3529271185398102  0.531098484992981  1.0000
  In  In7       1.0  0.06672714650630951  0.18109068274497986  0.2522623836994171  1.0000
  In  In8       1.0  0.14174887537956238  0.23885232210159302  0.6614439487457275  1.0000
  In  In9       1.0  0.6998156309127808  0.5735105872154236  0.03000254556536675  1.0000
  In  In10      1.0  0.550411581993103  0.5162064433097839  0.2378654330968857  1.0000
  In  In11      1.0  0.5638202428817749  0.3777649998664856  0.533529818058014  1.0000
