data_image0
_chemical_formula_structural       In11
_chemical_formula_sum              "In11"
_cell_length_a       5.443112808193941
_cell_length_b       5.056070243682672
_cell_length_c       5.886253356933594
_cell_angle_alpha    57.308841800178804
_cell_angle_beta     60.328590475970415
_cell_angle_gamma    48.93709505905207

_space_group_name_H-M_alt    "P 1"
_space_group_IT_number       1

loop_
  _space_group_symop_operation_xyz
  'x, y, z'

loop_
  _atom_site_type_symbol
  _atom_site_label
  _atom_site_symmetry_multiplicity
  _atom_site_fract_x
  _atom_site_fract_y
  _atom_site_fract_z
  _atom_site_occupancy
  In  In1       1.0  0.40568786859512335  0.7270860671997069  0.5631304979324341  1.0000
  In  In2       1.0  0.6240342855453492  0.9079877734184264  0.1962169110774994  1.0000
  In  In3       1.0  0.911385715007782  0.23403401672840116  0.21601535379886627  1.0000
  In  In4       1.0  0.9098986983299255  0.4781357645988464  0.8269731402397156  1.0000
  In  In5       1.0  0.38780429959297186  0.8212607502937316  0.4251308739185333  1.0000
  In  In6       1.0  0.9093381762504578  0.4789000749588012  0.5772098302841187  1.0000
  In  In7       1.0  0.4453659951686859  0.5211761593818665  0.28712278604507446  1.0000
  In  In8       1.0  0.8108803629875183  0.2832581400871277  0.043010562658309937  1.0000
  In  In9       1.0  0.2814664840698242  0.3181791007518768  0.5462488532066345  1.0000
  In  In10      1.0  0.006787239108234691  0.5944020748138427  0.27265453338623047  1.0000
  In  In11      1.0  0.1321711391210556  0.1104457303881645  0.875349223613739  1.0000
