data_image0
_chemical_formula_structural       Dy2IInPdTb4TiZn
_chemical_formula_sum              "Dy2 I1 In1 Pd1 Tb4 Ti1 Zn1"
_cell_length_a       6.625353738929901
_cell_length_b       5.657145302292864
_cell_length_c       7.96608829498291
_cell_angle_alpha    82.36585891499504
_cell_angle_beta     68.17372980800111
_cell_angle_gamma    56.09559623191613

_space_group_name_H-M_alt    "P 1"
_space_group_IT_number       1

loop_
  _space_group_symop_operation_xyz
  'x, y, z'

loop_
  _atom_site_type_symbol
  _atom_site_label
  _atom_site_symmetry_multiplicity
  _atom_site_fract_x
  _atom_site_fract_y
  _atom_site_fract_z
  _atom_site_occupancy
  Dy  Dy1       1.0  0.2334076166152954  0.8582085967063904  0.3918169438838959  1.0000
  Dy  Dy2       1.0  0.20864973962306985  0.893688142299652  0.0881156399846077  1.0000
  I   I1        1.0  0.558658242225647  0.4088711738586426  0.3204438388347626  1.0000
  In  In1       1.0  0.7654509544372559  0.17328566312789917  0.8318942785263062  1.0000
  Pd  Pd1       1.0  0.9418694972991943  0.6435340046882629  0.08957579731941218  1.0000
  Tb  Tb1       1.0  0.40757781267166143  0.8783721327781676  0.9159039855003357  1.0000
  Tb  Tb2       1.0  0.4303475618362427  0.11683247238397597  0.038924962282180786  1.0000
  Tb  Tb3       1.0  0.3461781442165375  0.5329808592796326  0.7063427567481995  1.0000
  Tb  Tb4       1.0  0.21091337502002724  0.9817500710487365  0.9573934078216553  1.0000
  Ti  Ti1       1.0  0.6049574613571167  0.6195952296257019  0.4261886179447174  1.0000
  Zn  Zn1       1.0  0.2116723358631134  0.1059083342552185  0.24479235708713531  1.0000
