data_image0
_chemical_formula_structural       Al2LuNaReRuZr3
_chemical_formula_sum              "Al2 Lu1 Na1 Re1 Ru1 Zr3"
_cell_length_a       5.738187988544381
_cell_length_b       6.1019087204773355
_cell_length_c       6.898131370544434
_cell_angle_alpha    70.14164640539944
_cell_angle_beta     65.80105855550875
_cell_angle_gamma    60.6143713773003

_space_group_name_H-M_alt    "P 1"
_space_group_IT_number       1

loop_
  _space_group_symop_operation_xyz
  'x, y, z'

loop_
  _atom_site_type_symbol
  _atom_site_label
  _atom_site_symmetry_multiplicity
  _atom_site_fract_x
  _atom_site_fract_y
  _atom_site_fract_z
  _atom_site_occupancy
  Al  Al1       1.0  0.711851179599762  0.4544699192047119  0.682028591632843  1.0000
  Al  Al2       1.0  0.7620497941970825  0.10637912899255753  0.7612414956092834  1.0000
  Lu  Lu1       1.0  0.26784569025039673  0.20208024978637695  0.15825490653514862  1.0000
  Na  Na1       1.0  0.0032985741272568703  0.8925608396530151  0.18777832388877866  1.0000
  Re  Re1       1.0  0.21911543607711792  0.45124801993370056  0.6330971717834473  1.0000
  Ru  Ru1       1.0  0.7273194193840027  0.42509815096855164  0.5434291362762451  1.0000
  Zr  Zr1       1.0  0.49987921118736267  0.37128493189811707  0.5636047124862671  1.0000
  Zr  Zr2       1.0  0.7256379723548889  0.44209766387939453  0.07781147211790085  1.0000
  Zr  Zr3       1.0  0.4899028241634369  0.8075680732727051  0.07961534708738327  1.0000
