data_image0
_chemical_formula_structural       B2ClHo5IrSi
_chemical_formula_sum              "B2 Cl1 Ho5 Ir1 Si1"
_cell_length_a       4.822818665264811
_cell_length_b       7.089839457965855
_cell_length_c       7.440150260925293
_cell_angle_alpha    119.01521795640035
_cell_angle_beta     90.23044875401946
_cell_angle_gamma    90.42913980584359

_space_group_name_H-M_alt    "P 1"
_space_group_IT_number       1

loop_
  _space_group_symop_operation_xyz
  'x, y, z'

loop_
  _atom_site_type_symbol
  _atom_site_label
  _atom_site_symmetry_multiplicity
  _atom_site_fract_x
  _atom_site_fract_y
  _atom_site_fract_z
  _atom_site_occupancy
  B   B1        1.0  0.9801579117774963  0.23622074723243713  0.05259068310260774  1.0000
  B   B2        1.0  0.20853732526302338  0.4310070276260376  0.16339869797229767  1.0000
  Cl  Cl1       1.0  0.21034210920333862  0.8742703795433044  0.7282297611236572  1.0000
  Ho  Ho1       1.0  0.7077606320381165  0.7172369360923767  0.943757176399231  1.0000
  Ho  Ho2       1.0  0.7021238803863525  0.19153983891010284  0.10165194422006608  1.0000
  Ho  Ho3       1.0  0.7061424255371094  0.6920300722122192  0.6034461259841919  1.0000
  Ho  Ho4       1.0  0.20847314596176147  0.8660345673561096  0.9378519058227539  1.0000
  Ho  Ho5       1.0  0.7091293931007385  0.5022056102752686  0.49295857548713684  1.0000
  Ir  Ir1       1.0  0.20910152792930603  0.9521300792694092  0.6525869965553284  1.0000
  Si  Si1       1.0  0.2056293785572052  0.6946964263916016  0.6251149773597717  1.0000
