data_image0
_chemical_formula_structural       B2Ho5IrPbRu
_chemical_formula_sum              "B2 Ho5 Ir1 Pb1 Ru1"
_cell_length_a       4.451007315937069
_cell_length_b       7.057997328586023
_cell_length_c       7.385411262512207
_cell_angle_alpha    117.67770380369392
_cell_angle_beta     89.37021155491837
_cell_angle_gamma    89.65825799082117

_space_group_name_H-M_alt    "P 1"
_space_group_IT_number       1

loop_
  _space_group_symop_operation_xyz
  'x, y, z'

loop_
  _atom_site_type_symbol
  _atom_site_label
  _atom_site_symmetry_multiplicity
  _atom_site_fract_x
  _atom_site_fract_y
  _atom_site_fract_z
  _atom_site_occupancy
  B   B1        1.0  0.9389194846153259  0.25400736927986145  0.8602195382118224  1.0000
  B   B2        1.0  0.44341468811035156  0.9238870739936829  0.30704510211944575  1.0000
  Ho  Ho1       1.0  0.443030446767807  0.011894122697412968  0.32297542691230774  1.0000
  Ho  Ho2       1.0  0.4367292821407318  0.8685395121574402  0.5298967957496642  1.0000
  Ho  Ho3       1.0  0.9427351951599121  0.247786283493042  0.9974045157432556  1.0000
  Ho  Ho4       1.0  0.9432154893875122  0.7508234977722168  0.8094359636306763  1.0000
  Ho  Ho5       1.0  0.9429475665092468  0.7412509918212891  0.04072411730885506  1.0000
  Ir  Ir1       1.0  0.9405544996261597  0.2143014669418335  0.7390009760856628  1.0000
  Pb  Pb1       1.0  0.44461944699287415  0.5247558951377869  0.8639852404594421  1.0000
  Ru  Ru1       1.0  0.44509759545326233  0.909706175327301  0.39027851819992065  1.0000
