data_image0
_chemical_formula_structural       BFHo6Ir2
_chemical_formula_sum              "B1 F1 Ho6 Ir2"
_cell_length_a       4.46535184679408
_cell_length_b       6.183842488746382
_cell_length_c       6.732999324798584
_cell_angle_alpha    120.05440619889576
_cell_angle_beta     88.92684784606536
_cell_angle_gamma    90.01692218494922

_space_group_name_H-M_alt    "P 1"
_space_group_IT_number       1

loop_
  _space_group_symop_operation_xyz
  'x, y, z'

loop_
  _atom_site_type_symbol
  _atom_site_label
  _atom_site_symmetry_multiplicity
  _atom_site_fract_x
  _atom_site_fract_y
  _atom_site_fract_z
  _atom_site_occupancy
  B   B1        1.0  0.1633948385715485  0.23581565916538236  0.4450210630893708  1.0000
  F   F1        1.0  0.1610083431005478  0.7087928652763367  0.9953795671463014  1.0000
  Ho  Ho1       1.0  0.16070543229579928  0.10570420324802397  0.24036294221878055  1.0000
  Ho  Ho2       1.0  0.15894591808319092  0.004312294535338879  0.9088175892829896  1.0000
  Ho  Ho3       1.0  0.6569546461105347  0.3116549551486969  0.6504216790199281  1.0000
  Ho  Ho4       1.0  0.6615413427352905  0.7188234925270081  0.9363341331481935  1.0000
  Ho  Ho5       1.0  0.6584880352020264  0.7066217660903931  0.6782419681549073  1.0000
  Ho  Ho6       1.0  0.6594803333282471  0.9530727267265319  0.16964063048362726  1.0000
  Ir  Ir1       1.0  0.15165236592292786  0.2714593708515167  0.6351003050804139  1.0000
  Ir  Ir2       1.0  0.6611659526824951  0.7457152605056763  0.4307761788368225  1.0000
