data_image0
_chemical_formula_structural       BGeHo6IrLu
_chemical_formula_sum              "B1 Ge1 Ho6 Ir1 Lu1"
_cell_length_a       4.787638980110617
_cell_length_b       6.824515605657924
_cell_length_c       7.203947067260742
_cell_angle_alpha    119.4641456187617
_cell_angle_beta     88.5498637959012
_cell_angle_gamma    89.89776386821164

_space_group_name_H-M_alt    "P 1"
_space_group_IT_number       1

loop_
  _space_group_symop_operation_xyz
  'x, y, z'

loop_
  _atom_site_type_symbol
  _atom_site_label
  _atom_site_symmetry_multiplicity
  _atom_site_fract_x
  _atom_site_fract_y
  _atom_site_fract_z
  _atom_site_occupancy
  B   B1        1.0  0.10132849961519241  0.5500651597976685  0.7201722860336304  1.0000
  Ge  Ge1       1.0  0.10492672771215439  0.22166255116462708  0.16218073666095734  1.0000
  Ho  Ho1       1.0  0.6061598658561707  0.24032141268253326  0.4878406524658203  1.0000
  Ho  Ho2       1.0  0.6104085445404053  0.2585747539997101  0.1493115872144699  1.0000
  Ho  Ho3       1.0  0.09800273180007935  0.7070364356040955  0.8683634996414185  1.0000
  Ho  Ho4       1.0  0.5993314981460571  0.0006213288870640099  0.996571958065033  1.0000
  Ho  Ho5       1.0  0.6067540049552917  0.32442396879196167  0.45059138536453247  1.0000
  Ho  Ho6       1.0  0.344881147146225  0.8178030848503113  0.6074093580245972  1.0000
  Ir  Ir1       1.0  0.09828716516494751  0.8464738130569458  0.13345174491405493  1.0000
  Lu  Lu1       1.0  0.6041562557220459  0.7026035189628601  0.7191823124885559  1.0000
