data_image0
_chemical_formula_structural       B3Ho6Ir
_chemical_formula_sum              "B3 Ho6 Ir1"
_cell_length_a       4.383920534210473
_cell_length_b       6.909300911243711
_cell_length_c       7.367558479309082
_cell_angle_alpha    119.03443930746587
_cell_angle_beta     88.54121759088386
_cell_angle_gamma    89.90775096409081

_space_group_name_H-M_alt    "P 1"
_space_group_IT_number       1

loop_
  _space_group_symop_operation_xyz
  'x, y, z'

loop_
  _atom_site_type_symbol
  _atom_site_label
  _atom_site_symmetry_multiplicity
  _atom_site_fract_x
  _atom_site_fract_y
  _atom_site_fract_z
  _atom_site_occupancy
  B   B1        1.0  0.04883448779582977  0.40330782532691956  0.26650562882423406  1.0000
  B   B2        1.0  0.5481438636779785  0.1831464022397995  0.5636530518531799  1.0000
  B   B3        1.0  0.05396489053964615  0.175655335187912  0.45423510670661926  1.0000
  Ho  Ho1       1.0  0.5542455315589905  0.020376963540911674  0.6816112399101257  1.0000
  Ho  Ho2       1.0  0.052819184958934784  0.5330500602722168  0.9661106467247009  1.0000
  Ho  Ho3       1.0  0.54502272605896  0.9081526994705199  0.47931092977523804  1.0000
  Ho  Ho4       1.0  0.05013139918446541  0.7108796238899231  0.9913219213485718  1.0000
  Ho  Ho5       1.0  0.053897563368082047  0.4380755126476288  0.6718831062316895  1.0000
  Ho  Ho6       1.0  0.5509636402130127  0.5997792482376099  0.95057213306427  1.0000
  Ir  Ir1       1.0  0.0443175733089447  0.9451043009757994  0.2273721992969513  1.0000
