data_image0
_chemical_formula_structural       BHo4Ir4Pb
_chemical_formula_sum              "B1 Ho4 Ir4 Pb1"
_cell_length_a       4.1053447865611385
_cell_length_b       6.002837748258416
_cell_length_c       6.4727702140808105
_cell_angle_alpha    120.38581001302425
_cell_angle_beta     88.35735590901345
_cell_angle_gamma    91.26328263743693

_space_group_name_H-M_alt    "P 1"
_space_group_IT_number       1

loop_
  _space_group_symop_operation_xyz
  'x, y, z'

loop_
  _atom_site_type_symbol
  _atom_site_label
  _atom_site_symmetry_multiplicity
  _atom_site_fract_x
  _atom_site_fract_y
  _atom_site_fract_z
  _atom_site_occupancy
  B   B1        1.0  0.037894636392593384  0.7395197749137878  0.7941864728927612  1.0000
  Ho  Ho1       1.0  0.538954496383667  0.6545884609222412  0.49500805139541626  1.0000
  Ho  Ho2       1.0  0.5423287749290466  0.9007715582847596  0.29927453398704534  1.0000
  Ho  Ho3       1.0  0.039716288447380066  0.54720538854599  0.5081640481948854  1.0000
  Ho  Ho4       1.0  0.5423986315727234  0.20600628852844238  0.2934573292732239  1.0000
  Ir  Ir1       1.0  0.5500398278236389  0.7407190799713135  0.7933155298233032  1.0000
  Ir  Ir2       1.0  0.5402664542198181  0.4021896719932556  0.4170023202896118  1.0000
  Ir  Ir3       1.0  0.038770925253629684  0.9732968211174012  0.4154405593872071  1.0000
  Ir  Ir4       1.0  0.541467547416687  0.9099538922309877  0.4436542391777039  1.0000
  Pb  Pb1       1.0  0.03780794516205788  0.2657654285430908  0.9255307912826538  1.0000
