data_image0
_chemical_formula_structural       S3Sm7
_chemical_formula_sum              "S3 Sm7"
_cell_length_a       5.890984574719618
_cell_length_b       7.160118441690981
_cell_length_c       8.565808296203613
_cell_angle_alpha    111.9849512578863
_cell_angle_beta     107.62769472881234
_cell_angle_gamma    88.27886768593505

_space_group_name_H-M_alt    "P 1"
_space_group_IT_number       1

loop_
  _space_group_symop_operation_xyz
  'x, y, z'

loop_
  _atom_site_type_symbol
  _atom_site_label
  _atom_site_symmetry_multiplicity
  _atom_site_fract_x
  _atom_site_fract_y
  _atom_site_fract_z
  _atom_site_occupancy
  S   S1        1.0  0.5798987746238708  0.9940677285194398  0.9079480171203613  1.0000
  S   S2        1.0  0.024538911879062653  0.04755572974681855  0.6594095826148987  1.0000
  S   S3        1.0  0.06379567831754684  0.6940277218818665  0.9127827286720276  1.0000
  Sm  Sm1       1.0  0.6472100019454956  0.2185262888669968  0.41128304600715637  1.0000
  Sm  Sm2       1.0  0.04507230967283249  0.0518380030989647  0.5638171434402466  1.0000
  Sm  Sm3       1.0  0.969190776348114  0.7190134525299073  0.5035418272018433  1.0000
  Sm  Sm4       1.0  0.3339729607105255  0.6757665872573853  0.8968003392219543  1.0000
  Sm  Sm5       1.0  0.4315716624259949  0.4241870045661927  0.16427986323833466  1.0000
  Sm  Sm6       1.0  0.6213613748550415  0.24798364937305453  0.9017225503921509  1.0000
  Sm  Sm7       1.0  0.43097731471061707  0.9214686155319215  0.15107308328151703  1.0000
