data_image0
_chemical_formula_structural       MnS2Sm7
_chemical_formula_sum              "Mn1 S2 Sm7"
_cell_length_a       5.379677048435302
_cell_length_b       7.791400596530791
_cell_length_c       8.351385116577148
_cell_angle_alpha    115.46146027782162
_cell_angle_beta     103.07273298037892
_cell_angle_gamma    88.97464335036622

_space_group_name_H-M_alt    "P 1"
_space_group_IT_number       1

loop_
  _space_group_symop_operation_xyz
  'x, y, z'

loop_
  _atom_site_type_symbol
  _atom_site_label
  _atom_site_symmetry_multiplicity
  _atom_site_fract_x
  _atom_site_fract_y
  _atom_site_fract_z
  _atom_site_occupancy
  Mn  Mn1       1.0  0.251526802778244  0.24405883252620697  0.8296777009963989  1.0000
  S   S1        1.0  0.4747304320335388  0.6282331347465515  0.010386010631918907  1.0000
  S   S2        1.0  0.9645045399665833  0.9743306636810303  0.014735784381628036  1.0000
  Sm  Sm1       1.0  0.7483720183372498  0.874775230884552  0.22853593528270721  1.0000
  Sm  Sm2       1.0  0.2648734748363495  0.3705146014690399  0.05413083732128143  1.0000
  Sm  Sm3       1.0  0.40801292657852173  0.44270649552345276  0.5891676545143127  1.0000
  Sm  Sm4       1.0  0.036462269723415375  0.6074060797691345  0.015153714455664158  1.0000
  Sm  Sm5       1.0  0.6864124536514282  0.8676369786262512  0.8390428423881531  1.0000
  Sm  Sm6       1.0  0.6617723107337952  0.23280367255210876  0.7278924584388733  1.0000
  Sm  Sm7       1.0  0.7932243943214417  0.3707787096500397  0.40883705019950867  1.0000
