data_image0
_chemical_formula_structural       Ag3SSm6
_chemical_formula_sum              "Ag3 S1 Sm6"
_cell_length_a       4.773363722131943
_cell_length_b       7.181354986252752
_cell_length_c       7.947289943695068
_cell_angle_alpha    116.46548287758428
_cell_angle_beta     89.89355149445181
_cell_angle_gamma    88.41946815360252

_space_group_name_H-M_alt    "P 1"
_space_group_IT_number       1

loop_
  _space_group_symop_operation_xyz
  'x, y, z'

loop_
  _atom_site_type_symbol
  _atom_site_label
  _atom_site_symmetry_multiplicity
  _atom_site_fract_x
  _atom_site_fract_y
  _atom_site_fract_z
  _atom_site_occupancy
  Ag  Ag1       1.0  0.5386266112327576  0.9937034249305725  0.34275829792022705  1.0000
  Ag  Ag2       1.0  0.5681622624397278  0.027298057451844215  0.5670312643051147  1.0000
  Ag  Ag3       1.0  0.05365806818008423  0.049741629511117935  0.33240896463394165  1.0000
  S   S1        1.0  0.03813093900680542  0.023831583559513092  0.831407368183136  1.0000
  Sm  Sm1       1.0  0.05108606070280075  0.4733760356903076  0.6635792255401611  1.0000
  Sm  Sm2       1.0  0.5726158022880554  0.5301445126533508  0.591855525970459  1.0000
  Sm  Sm3       1.0  0.045498479157686234  0.7946058511734009  0.8438894152641296  1.0000
  Sm  Sm4       1.0  0.5648477673530579  0.7486777901649475  0.20648564398288727  1.0000
  Sm  Sm5       1.0  0.048500675708055496  0.5324767231941223  0.31978124380111694  1.0000
  Sm  Sm6       1.0  0.5559825301170349  0.27056267857551575  0.2846548855304718  1.0000
