data_image0
_chemical_formula_structural       MnS3Sm6
_chemical_formula_sum              "Mn1 S3 Sm6"
_cell_length_a       5.436496613723626
_cell_length_b       7.728453763152845
_cell_length_c       8.617090225219727
_cell_angle_alpha    115.09016531096404
_cell_angle_beta     97.28400394447067
_cell_angle_gamma    88.4967944291103

_space_group_name_H-M_alt    "P 1"
_space_group_IT_number       1

loop_
  _space_group_symop_operation_xyz
  'x, y, z'

loop_
  _atom_site_type_symbol
  _atom_site_label
  _atom_site_symmetry_multiplicity
  _atom_site_fract_x
  _atom_site_fract_y
  _atom_site_fract_z
  _atom_site_occupancy
  Mn  Mn1       1.0  0.6309568881988525  0.8826289772987366  0.8733632564544678  1.0000
  S   S1        1.0  0.3690534830093384  0.26711660623550415  0.2175411880016327  1.0000
  S   S2        1.0  0.9387951493263244  0.12492925673723221  0.9889194369316101  1.0000
  S   S3        1.0  0.4931205809116363  0.6337690949440002  0.5731794834136963  1.0000
  Sm  Sm1       1.0  0.8401243686676024  0.05138793960213661  0.827238142490387  1.0000
  Sm  Sm2       1.0  0.1703321486711502  0.6045339703559875  0.6061866283416748  1.0000
  Sm  Sm3       1.0  0.1664137840270996  0.8568195700645447  0.5030544400215149  1.0000
  Sm  Sm4       1.0  0.18965508043766022  0.6533344984054565  0.896777331829071  1.0000
  Sm  Sm5       1.0  0.664338231086731  0.849615752696991  0.1579471379518509  1.0000
  Sm  Sm6       1.0  0.3542703688144684  0.456548273563385  0.18562057614326477  1.0000
