data_image0
_chemical_formula_structural       S3Sm7
_chemical_formula_sum              "S3 Sm7"
_cell_length_a       5.860321990281295
_cell_length_b       8.323811769736725
_cell_length_c       8.90956974029541
_cell_angle_alpha    117.11684405743917
_cell_angle_beta     92.75928038003842
_cell_angle_gamma    87.92485119942549

_space_group_name_H-M_alt    "P 1"
_space_group_IT_number       1

loop_
  _space_group_symop_operation_xyz
  'x, y, z'

loop_
  _atom_site_type_symbol
  _atom_site_label
  _atom_site_symmetry_multiplicity
  _atom_site_fract_x
  _atom_site_fract_y
  _atom_site_fract_z
  _atom_site_occupancy
  S   S1        1.0  0.16324345767498016  0.927692174911499  0.02158498577773576  1.0000
  S   S2        1.0  0.775922954082489  0.6441856622695923  0.1809670478105545  1.0000
  S   S3        1.0  0.1521061658859253  0.29056045413017273  0.7944785356521606  1.0000
  Sm  Sm1       1.0  0.17177002131938934  0.3867042064666748  0.19840995967388153  1.0000
  Sm  Sm2       1.0  0.9029756784439087  0.31392616033554077  0.7900390028953552  1.0000
  Sm  Sm3       1.0  0.8819242119789124  0.8075608611106873  0.38368919491767883  1.0000
  Sm  Sm4       1.0  0.41384702920913696  0.10626617819070816  0.15689565241336823  1.0000
  Sm  Sm5       1.0  0.41147226095199585  0.0024518733844161034  0.7082882523536682  1.0000
  Sm  Sm6       1.0  0.4168701469898224  0.30839115381240845  0.5404829978942871  1.0000
  Sm  Sm7       1.0  0.6822466254234314  0.31422099471092224  0.6803947687149048  1.0000
