data_image0
_chemical_formula_structural       Ag2S2Sm6
_chemical_formula_sum              "Ag2 S2 Sm6"
_cell_length_a       4.934670959905682
_cell_length_b       6.491724073279283
_cell_length_c       8.104269981384277
_cell_angle_alpha    113.82995456587777
_cell_angle_beta     102.85697309240724
_cell_angle_gamma    90.87161374915985

_space_group_name_H-M_alt    "P 1"
_space_group_IT_number       1

loop_
  _space_group_symop_operation_xyz
  'x, y, z'

loop_
  _atom_site_type_symbol
  _atom_site_label
  _atom_site_symmetry_multiplicity
  _atom_site_fract_x
  _atom_site_fract_y
  _atom_site_fract_z
  _atom_site_occupancy
  Ag  Ag1       1.0  0.9577544331550598  0.5989798307418823  0.8841120600700378  1.0000
  Ag  Ag2       1.0  0.926284909248352  0.7512920498847961  0.5199667811393738  1.0000
  S   S1        1.0  0.9163184762001038  0.6530429124832153  0.8102855682373047  1.0000
  S   S2        1.0  0.4742151200771332  0.49650576710700983  0.42903774976730347  1.0000
  Sm  Sm1       1.0  0.22060108184814453  0.8882168531417846  0.19071745872497553  1.0000
  Sm  Sm2       1.0  0.6603367328643799  0.3673473596572876  0.09031806886196136  1.0000
  Sm  Sm3       1.0  0.6701478362083435  0.3553902506828308  0.1053895354270935  1.0000
  Sm  Sm4       1.0  0.3692391514778137  0.39923200011253357  0.8292040228843689  1.0000
  Sm  Sm5       1.0  0.8628308773040771  0.3819304406642914  0.8016741871833801  1.0000
  Sm  Sm6       1.0  0.18110446631908417  0.2827358841896057  0.9556127190589905  1.0000
