data_image0
_chemical_formula_structural       AlAu3CuEuPbPtZn
_chemical_formula_sum              "Al1 Au3 Cu1 Eu1 Pb1 Pt1 Zn1"
_cell_length_a       5.087008680550053
_cell_length_b       4.993880670864806
_cell_length_c       6.85968542098999
_cell_angle_alpha    96.29878546131656
_cell_angle_beta     92.3386259844122
_cell_angle_gamma    121.65831059182459

_space_group_name_H-M_alt    "P 1"
_space_group_IT_number       1

loop_
  _space_group_symop_operation_xyz
  'x, y, z'

loop_
  _atom_site_type_symbol
  _atom_site_label
  _atom_site_symmetry_multiplicity
  _atom_site_fract_x
  _atom_site_fract_y
  _atom_site_fract_z
  _atom_site_occupancy
  Al  Al1       1.0  0.6173951625823975  0.7064655423164368  0.1371390521526337  1.0000
  Au  Au1       1.0  0.4842950701713562  0.49157893657684326  0.5306910276412964  1.0000
  Au  Au2       1.0  0.11530283838510513  0.8920384645462036  0.2183058112859726  1.0000
  Au  Au3       1.0  0.01472347043454647  0.20270566642284393  0.2965371012687683  1.0000
  Cu  Cu1       1.0  0.11688721925020218  0.7100831866264343  0.3993424773216248  1.0000
  Eu  Eu1       1.0  0.5371471643447876  0.14299003779888153  0.4587831199169159  1.0000
  Pb  Pb1       1.0  0.061320241540670395  0.33321139216423035  0.0049084965139627535  1.0000
  Pt  Pt1       1.0  0.6144748330116272  0.7424129247665405  0.06620099395513536  1.0000
  Zn  Zn1       1.0  0.14621588587760925  0.4333665668964386  0.2620677649974823  1.0000
