data_image0
_chemical_formula_structural       Au9
_chemical_formula_sum              "Au9"
_cell_length_a       5.591474830427062
_cell_length_b       5.642964067268956
_cell_length_c       5.78046178817749
_cell_angle_alpha    89.28134298660808
_cell_angle_beta     89.48995141634147
_cell_angle_gamma    91.32522309186824

_space_group_name_H-M_alt    "P 1"
_space_group_IT_number       1

loop_
  _space_group_symop_operation_xyz
  'x, y, z'

loop_
  _atom_site_type_symbol
  _atom_site_label
  _atom_site_symmetry_multiplicity
  _atom_site_fract_x
  _atom_site_fract_y
  _atom_site_fract_z
  _atom_site_occupancy
  Au  Au1       1.0  0.8231959342956543  0.7276353240013123  0.05754393711686134  1.0000
  Au  Au2       1.0  0.28705817461013794  0.7257246375083923  0.9502831101417542  1.0000
  Au  Au3       1.0  0.8297383785247803  0.2213569283485413  0.004657798912376166  1.0000
  Au  Au4       1.0  0.7660921812057495  0.07153709977865219  0.7687807083129883  1.0000
  Au  Au5       1.0  0.8283833265304565  0.4632079899311066  0.8215588331222534  1.0000
  Au  Au6       1.0  0.3310774564743042  0.173479363322258  0.7080504894256592  1.0000
  Au  Au7       1.0  0.3316067159175873  0.2035065144300461  0.5070576667785645  1.0000
  Au  Au8       1.0  0.3316786587238312  0.8070068359375001  0.5214244723320007  1.0000
  Au  Au9       1.0  0.2838083803653717  0.2655794322490692  0.7947596311569214  1.0000
