data_image0
_chemical_formula_structural       Au2Dy2HNiZn3
_chemical_formula_sum              "Au2 Dy2 H1 Ni1 Zn3"
_cell_length_a       5.098510900376724
_cell_length_b       4.796621375142522
_cell_length_c       4.301581859588623
_cell_angle_alpha    109.06781858443037
_cell_angle_beta     80.94220047948757
_cell_angle_gamma    90.92308153434944

_space_group_name_H-M_alt    "P 1"
_space_group_IT_number       1

loop_
  _space_group_symop_operation_xyz
  'x, y, z'

loop_
  _atom_site_type_symbol
  _atom_site_label
  _atom_site_symmetry_multiplicity
  _atom_site_fract_x
  _atom_site_fract_y
  _atom_site_fract_z
  _atom_site_occupancy
  Au  Au1       1.0  0.8225861191749573  0.825179398059845  0.5163015723228455  1.0000
  Au  Au2       1.0  0.3200083076953888  0.4586751461029053  0.8720934391021729  1.0000
  Dy  Dy1       1.0  0.818122386932373  0.8342328667640686  0.6428064107894897  1.0000
  Dy  Dy2       1.0  0.3215370774269104  0.0172968041151762  0.8540248870849609  1.0000
  H   H1        1.0  0.60643470287323  0.1877293884754181  0.2788028120994568  1.0000
  Ni  Ni1       1.0  0.825388491153717  0.6801890134811401  0.5128157138824463  1.0000
  Zn  Zn1       1.0  0.3167532980442047  0.9892418384552002  0.8599389791488647  1.0000
  Zn  Zn2       1.0  0.8201140761375427  0.8281987309455872  0.5670941472053528  1.0000
  Zn  Zn3       1.0  0.8187350630760193  0.6149024963378906  0.12568940222263336  1.0000
