data_image0
_chemical_formula_structural       Au8Cu
_chemical_formula_sum              "Au8 Cu1"
_cell_length_a       5.040818935817113
_cell_length_b       5.098903465416678
_cell_length_c       5.047997951507568
_cell_angle_alpha    92.04829994045413
_cell_angle_beta     90.08455986522937
_cell_angle_gamma    90.00848914454996

_space_group_name_H-M_alt    "P 1"
_space_group_IT_number       1

loop_
  _space_group_symop_operation_xyz
  'x, y, z'

loop_
  _atom_site_type_symbol
  _atom_site_label
  _atom_site_symmetry_multiplicity
  _atom_site_fract_x
  _atom_site_fract_y
  _atom_site_fract_z
  _atom_site_occupancy
  Au  Au1       1.0  0.09898398071527481  0.13790005445480347  0.9118750691413879  1.0000
  Au  Au2       1.0  0.1256173551082611  0.1314799040555954  0.8349789977073669  1.0000
  Au  Au3       1.0  0.602319061756134  0.5892462730407715  0.43671736121177673  1.0000
  Au  Au4       1.0  0.1202591210603714  0.23240332305431366  0.5974783301353455  1.0000
  Au  Au5       1.0  0.1157088652253151  0.67893385887146  0.525729775428772  1.0000
  Au  Au6       1.0  0.6441566348075867  0.43716782331466675  0.9889265298843384  1.0000
  Au  Au7       1.0  0.11783713102340698  0.34289848804473877  0.8164336085319519  1.0000
  Au  Au8       1.0  0.11495333164930344  0.7928340435028076  0.7594515085220337  1.0000
  Cu  Cu1       1.0  0.1132207065820694  0.8314517140388489  0.6365206241607667  1.0000
