data_image0
_chemical_formula_structural       Co4FGa2I2PbPt
_chemical_formula_sum              "Co4 F1 Ga2 I2 Pb1 Pt1"
_cell_length_a       5.7848284454798256
_cell_length_b       6.304027700882407
_cell_length_c       7.225266456604004
_cell_angle_alpha    116.90224752890137
_cell_angle_beta     92.99607372286212
_cell_angle_gamma    89.95537345882332

_space_group_name_H-M_alt    "P 1"
_space_group_IT_number       1

loop_
  _space_group_symop_operation_xyz
  'x, y, z'

loop_
  _atom_site_type_symbol
  _atom_site_label
  _atom_site_symmetry_multiplicity
  _atom_site_fract_x
  _atom_site_fract_y
  _atom_site_fract_z
  _atom_site_occupancy
  Co  Co1       1.0  0.5416874289512634  0.8586533069610596  0.9878512620925904  1.0000
  Co  Co2       1.0  0.026524556800723072  0.914986789226532  0.8617792129516603  1.0000
  Co  Co3       1.0  0.016161970794200897  0.6105144619941711  0.7833817005157472  1.0000
  Co  Co4       1.0  0.552234411239624  0.7341916561126709  0.6706295609474182  1.0000
  F   F1        1.0  0.022878140211105347  0.690959095954895  0.4936635792255402  1.0000
  Ga  Ga1       1.0  0.0451061986386776  0.3457874059677124  0.5477616190910339  1.0000
  Ga  Ga2       1.0  0.04589793458580971  0.7166336178779602  0.24340018630027774  1.0000
  I   I1        1.0  0.5305058360099792  0.9800953269004822  0.12361866980791093  1.0000
  I   I2        1.0  0.5370476245880127  0.9273046255111694  0.067516028881073  1.0000
  Pb  Pb1       1.0  0.02955229207873344  0.41650882363319397  0.43779477477073675  1.0000
  Pt  Pt1       1.0  0.04748254641890525  0.18047133088111877  0.2827807366847992  1.0000
