data_image0
_chemical_formula_structural       Co3GeI5PtV
_chemical_formula_sum              "Co3 Ge1 I5 Pt1 V1"
_cell_length_a       5.081606769195336
_cell_length_b       6.017568971609259
_cell_length_c       8.726655960083008
_cell_angle_alpha    91.03639524217466
_cell_angle_beta     90.8280076247321
_cell_angle_gamma    89.59313067435373

_space_group_name_H-M_alt    "P 1"
_space_group_IT_number       1

loop_
  _space_group_symop_operation_xyz
  'x, y, z'

loop_
  _atom_site_type_symbol
  _atom_site_label
  _atom_site_symmetry_multiplicity
  _atom_site_fract_x
  _atom_site_fract_y
  _atom_site_fract_z
  _atom_site_occupancy
  Co  Co1       1.0  0.6117275953292847  0.17557120323181152  0.5473636388778687  1.0000
  Co  Co2       1.0  0.1204141229391098  0.05617798492312431  0.9718331098556519  1.0000
  Co  Co3       1.0  0.3078792989253998  0.5730440020561218  0.17994043231010437  1.0000
  Ge  Ge1       1.0  0.601264476776123  0.9169716835021973  0.5613296627998352  1.0000
  I   I1        1.0  0.6244366765022278  0.34707146883010864  0.3198831379413605  1.0000
  I   I2        1.0  0.6328621506690979  0.4466784596443176  0.40815529227256775  1.0000
  I   I3        1.0  0.2924349308013916  0.361366331577301  0.7385575771331787  1.0000
  I   I4        1.0  0.28469547629356384  0.4415455162525177  0.008071166463196278  1.0000
  I   I5        1.0  0.08216407150030136  0.48858821392059326  0.5964705944061279  1.0000
  Pt  Pt1       1.0  0.6193099617958069  0.9269309043884277  0.04998414218425751  1.0000
  V   V1        1.0  0.11819377541542053  0.8135091662406921  0.752516508102417  1.0000
