data_image0
_chemical_formula_structural       Co2CsGa3I2Tb3
_chemical_formula_sum              "Co2 Cs1 Ga3 I2 Tb3"
_cell_length_a       6.501072707474632
_cell_length_b       6.612032858617343
_cell_length_c       8.114529609680176
_cell_angle_alpha    89.58456174914848
_cell_angle_beta     89.87658039827687
_cell_angle_gamma    89.50991162119826

_space_group_name_H-M_alt    "P 1"
_space_group_IT_number       1

loop_
  _space_group_symop_operation_xyz
  'x, y, z'

loop_
  _atom_site_type_symbol
  _atom_site_label
  _atom_site_symmetry_multiplicity
  _atom_site_fract_x
  _atom_site_fract_y
  _atom_site_fract_z
  _atom_site_occupancy
  Co  Co1       1.0  0.5935587286949158  0.1865382343530655  0.3196231424808502  1.0000
  Co  Co2       1.0  0.9389784336090088  0.290956050157547  0.3952780067920685  1.0000
  Cs  Cs1       1.0  0.13125371932983398  0.5197454690933228  0.05878065526485443  1.0000
  Ga  Ga1       1.0  0.14468015730381012  0.08264859020709991  0.6335902214050293  1.0000
  Ga  Ga2       1.0  0.14053010940551758  0.197426900267601  0.1352969855070114  1.0000
  Ga  Ga3       1.0  0.5477004051208496  0.23738595843315125  0.7723047733306885  1.0000
  I   I1        1.0  0.9980393648147583  0.3811504542827606  0.44568830728530884  1.0000
  I   I2        1.0  0.0020948804449290037  0.9201557636260986  0.5861086845397949  1.0000
  Tb  Tb1       1.0  0.05344550311565399  0.8792986273765564  0.36636319756507874  1.0000
  Tb  Tb2       1.0  0.5054576992988586  0.4175662696361542  0.485328733921051  1.0000
  Tb  Tb3       1.0  0.5004261136054993  0.5034953355789185  0.1770251989364624  1.0000
