data_image0
_chemical_formula_structural       Co2Ga3IPbTb4
_chemical_formula_sum              "Co2 Ga3 I1 Pb1 Tb4"
_cell_length_a       6.219971801554555
_cell_length_b       5.814186711391203
_cell_length_c       9.463383674621582
_cell_angle_alpha    69.99195214370162
_cell_angle_beta     70.2132348310501
_cell_angle_gamma    60.1615250255728

_space_group_name_H-M_alt    "P 1"
_space_group_IT_number       1

loop_
  _space_group_symop_operation_xyz
  'x, y, z'

loop_
  _atom_site_type_symbol
  _atom_site_label
  _atom_site_symmetry_multiplicity
  _atom_site_fract_x
  _atom_site_fract_y
  _atom_site_fract_z
  _atom_site_occupancy
  Co  Co1       1.0  0.27566829323768616  0.687406063079834  0.39069125056266785  1.0000
  Co  Co2       1.0  0.8953898549079895  0.4849929213523865  0.1440052092075348  1.0000
  Ga  Ga1       1.0  0.8844732642173767  0.6488797664642334  0.3036022484302521  1.0000
  Ga  Ga2       1.0  0.46379730105400085  0.33406373858451843  0.4179559051990509  1.0000
  Ga  Ga3       1.0  0.10870815813541412  0.3279469609260559  0.38657668232917786  1.0000
  I   I1        1.0  0.9518134593963623  0.22070203721523285  0.04391635209321976  1.0000
  Pb  Pb1       1.0  0.25298982858657837  0.8049634695053101  0.9216607809066772  1.0000
  Tb  Tb1       1.0  0.8077549338340759  0.17693808674812317  0.9506254196166992  1.0000
  Tb  Tb2       1.0  0.850043535232544  0.15808290243148804  0.1728375256061554  1.0000
  Tb  Tb3       1.0  0.4993954598903656  0.23434478044509888  0.03465469926595688  1.0000
  Tb  Tb4       1.0  0.8021092414855957  0.6703444719314575  0.25748777389526367  1.0000
