data_image0
_chemical_formula_structural       Co4GaTb6
_chemical_formula_sum              "Co4 Ga1 Tb6"
_cell_length_a       6.541787860269254
_cell_length_b       6.539023367378093
_cell_length_c       7.4720540046691895
_cell_angle_alpha    61.05939683757706
_cell_angle_beta     63.05592447610884
_cell_angle_gamma    55.75442169740483

_space_group_name_H-M_alt    "P 1"
_space_group_IT_number       1

loop_
  _space_group_symop_operation_xyz
  'x, y, z'

loop_
  _atom_site_type_symbol
  _atom_site_label
  _atom_site_symmetry_multiplicity
  _atom_site_fract_x
  _atom_site_fract_y
  _atom_site_fract_z
  _atom_site_occupancy
  Co  Co1       1.0  0.5512051582336426  0.7212107181549072  0.47229334712028503  1.0000
  Co  Co2       1.0  0.5870904922485352  0.19975151121616364  0.7930384278297424  1.0000
  Co  Co3       1.0  0.0437321811914444  0.31137821078300476  0.04788295552134514  1.0000
  Co  Co4       1.0  0.8633018136024476  0.8340710997581481  0.08780372887849808  1.0000
  Ga  Ga1       1.0  0.5742512345314026  0.43271574378013605  0.4527588188648224  1.0000
  Tb  Tb1       1.0  0.24102662503719333  0.04188812896609306  0.5305166244506836  1.0000
  Tb  Tb2       1.0  0.4472761154174806  0.9750850796699523  0.930134654045105  1.0000
  Tb  Tb3       1.0  0.9341962933540345  0.44896221160888666  0.9556766748428345  1.0000
  Tb  Tb4       1.0  0.7365235090255737  0.9942891001701354  0.2970603108406067  1.0000
  Tb  Tb5       1.0  0.079918771982193  0.7802711725234985  0.6858164668083191  1.0000
  Tb  Tb6       1.0  0.7360237836837769  0.1384836584329605  0.5422700047492981  1.0000
