data_image0
_chemical_formula_structural       Co3Ga3Tb5
_chemical_formula_sum              "Co3 Ga3 Tb5"
_cell_length_a       6.306565758770435
_cell_length_b       6.478599890619847
_cell_length_c       6.541989803314209
_cell_angle_alpha    55.79352648853785
_cell_angle_beta     60.615834279999966
_cell_angle_gamma    56.01909187568137

_space_group_name_H-M_alt    "P 1"
_space_group_IT_number       1

loop_
  _space_group_symop_operation_xyz
  'x, y, z'

loop_
  _atom_site_type_symbol
  _atom_site_label
  _atom_site_symmetry_multiplicity
  _atom_site_fract_x
  _atom_site_fract_y
  _atom_site_fract_z
  _atom_site_occupancy
  Co  Co1       1.0  0.6928906440734863  0.6566113233566284  0.4557625353336334  1.0000
  Co  Co2       1.0  0.1393912434577942  0.5405465364456177  0.4525127708911896  1.0000
  Co  Co3       1.0  0.7004284858703613  0.480550080537796  0.23753851652145386  1.0000
  Ga  Ga1       1.0  0.7167683839797974  0.8097524046897888  0.1778184026479721  1.0000
  Ga  Ga2       1.0  0.17460867762565613  0.8459015488624573  0.3892723023891449  1.0000
  Ga  Ga3       1.0  0.6873977780342102  0.29503127932548523  0.23304997384548187  1.0000
  Tb  Tb1       1.0  0.42521214485168457  0.9644884467124939  0.309236079454422  1.0000
  Tb  Tb2       1.0  0.13210362195968628  0.7764015197753906  0.00025725364685058594  1.0000
  Tb  Tb3       1.0  0.5538410544395447  0.5116143226623535  0.18792755901813507  1.0000
  Tb  Tb4       1.0  0.924823522567749  0.3988599479198456  0.15477433800697327  1.0000
  Tb  Tb5       1.0  0.23982401192188263  0.03934882581233978  0.48964130878448486  1.0000
