data_image0
_chemical_formula_structural       AlGaHfNiS2TiZnZr3
_chemical_formula_sum              "Al1 Ga1 Hf1 Ni1 S2 Ti1 Zn1 Zr3"
_cell_length_a       5.096457848937656
_cell_length_b       7.728033583949746
_cell_length_c       7.674887657165527
_cell_angle_alpha    120.0538503479424
_cell_angle_beta     89.6376206946933
_cell_angle_gamma    90.0363409591288

_space_group_name_H-M_alt    "P 1"
_space_group_IT_number       1

loop_
  _space_group_symop_operation_xyz
  'x, y, z'

loop_
  _atom_site_type_symbol
  _atom_site_label
  _atom_site_symmetry_multiplicity
  _atom_site_fract_x
  _atom_site_fract_y
  _atom_site_fract_z
  _atom_site_occupancy
  Al  Al1       1.0  0.2716415524482727  0.2224631458520889  0.29414701461791987  1.0000
  Ga  Ga1       1.0  0.2779938280582428  0.8712030053138732  0.29712417721748346  1.0000
  Hf  Hf1       1.0  0.2756618857383728  0.21598385274410245  0.4158424139022826  1.0000
  Ni  Ni1       1.0  0.2732168734073639  0.19534382224082947  0.5262137055397034  1.0000
  S   S1        1.0  0.7733750343322754  0.7018874287605286  0.5014785528182982  1.0000
  S   S2        1.0  0.7748898267745972  0.9852367639541625  0.9395713210105895  1.0000
  Ti  Ti1       1.0  0.7753158211708069  0.7235140800476074  0.3052814900875091  1.0000
  Zn  Zn1       1.0  0.77298903465271  0.6222586631774902  0.5218133330345154  1.0000
  Zr  Zr1       1.0  0.2779299318790436  0.8153592944145203  0.7961542606353759  1.0000
  Zr  Zr2       1.0  0.7746193408966064  0.20274046063423157  0.7428942322731017  1.0000
  Zr  Zr3       1.0  0.2733975052833557  0.4521427154541015  0.5374828577041626  1.0000
