data_image0
_chemical_formula_structural       Al2GaNiPS2Ti3Zr
_chemical_formula_sum              "Al2 Ga1 Ni1 P1 S2 Ti3 Zr1"
_cell_length_a       5.123014421601806
_cell_length_b       7.194817735769145
_cell_length_c       7.033556938171387
_cell_angle_alpha    119.36811809660692
_cell_angle_beta     91.15051006685185
_cell_angle_gamma    89.5624228257066

_space_group_name_H-M_alt    "P 1"
_space_group_IT_number       1

loop_
  _space_group_symop_operation_xyz
  'x, y, z'

loop_
  _atom_site_type_symbol
  _atom_site_label
  _atom_site_symmetry_multiplicity
  _atom_site_fract_x
  _atom_site_fract_y
  _atom_site_fract_z
  _atom_site_occupancy
  Al  Al1       1.0  0.3921549320220947  0.7310667634010315  0.9273740053176881  1.0000
  Al  Al2       1.0  0.0856994092464447  0.03158789128065109  0.9397763013839723  1.0000
  Ga  Ga1       1.0  0.07563386857509613  0.6575190424919128  0.22167326509952548  1.0000
  Ni  Ni1       1.0  0.8777947425842285  0.6490377187728882  0.45387041568756115  1.0000
  P   P1        1.0  0.5928029417991638  0.1131763830780983  0.15904884040355682  1.0000
  S   S1        1.0  0.39429062604904175  0.728310227394104  0.4355814754962922  1.0000
  S   S2        1.0  0.4034428894519806  0.28130170702934265  0.44406473636627203  1.0000
  Ti  Ti1       1.0  0.10006146878004074  0.3450833261013031  0.9409920573234559  1.0000
  Ti  Ti2       1.0  0.33453458547592163  0.013176986016333103  0.140584334731102  1.0000
  Ti  Ti3       1.0  0.8394399285316467  0.0002790689468383789  0.6545864939689637  1.0000
  Zr  Zr1       1.0  0.8300758004188538  0.5037564039230347  0.1371349692344666  1.0000
