data_image0
_chemical_formula_structural       AlAs3HTi4Zr2
_chemical_formula_sum              "Al1 As3 H1 Ti4 Zr2"
_cell_length_a       4.0277766550912535
_cell_length_b       6.65191195440842
_cell_length_c       6.962629318237305
_cell_angle_alpha    123.35649311040811
_cell_angle_beta     91.84328525533392
_cell_angle_gamma    89.69126232263203

_space_group_name_H-M_alt    "P 1"
_space_group_IT_number       1

loop_
  _space_group_symop_operation_xyz
  'x, y, z'

loop_
  _atom_site_type_symbol
  _atom_site_label
  _atom_site_symmetry_multiplicity
  _atom_site_fract_x
  _atom_site_fract_y
  _atom_site_fract_z
  _atom_site_occupancy
  Al  Al1       1.0  0.6455979347229004  0.2507232427597046  0.003982991445809603  1.0000
  As  As1       1.0  0.6362388730049133  0.0390704981982708  0.5869388580322266  1.0000
  As  As2       1.0  0.6509877443313599  0.918733298778534  0.7472131252288818  1.0000
  As  As3       1.0  0.6475847363471985  0.2845456004142761  0.4244266152381897  1.0000
  H   H1        1.0  0.14297479391098022  0.6114881634712219  0.6859062910079956  1.0000
  Ti  Ti1       1.0  0.6393910646438599  0.6931586861610413  0.13459019362926483  1.0000
  Ti  Ti2       1.0  0.15941482782363892  0.26397088170051575  0.23232996463775635  1.0000
  Ti  Ti3       1.0  0.1410878300666809  0.5268906354904175  0.3172861933708191  1.0000
  Ti  Ti4       1.0  0.13259094953536987  0.32508641481399536  0.6235096454620361  1.0000
  Zr  Zr1       1.0  0.6470313668251038  0.6062234044075012  0.18555398285388947  1.0000
  Zr  Zr2       1.0  0.13032615184783936  0.9441670179367067  0.022654209285974503  1.0000
