data_image0
_chemical_formula_structural       Al2AsNiS2Ti3Zr2
_chemical_formula_sum              "Al2 As1 Ni1 S2 Ti3 Zr2"
_cell_length_a       5.3223697730963515
_cell_length_b       7.552675500707239
_cell_length_c       8.123163223266602
_cell_angle_alpha    120.26894551144635
_cell_angle_beta     93.22167523927276
_cell_angle_gamma    89.800428242755

_space_group_name_H-M_alt    "P 1"
_space_group_IT_number       1

loop_
  _space_group_symop_operation_xyz
  'x, y, z'

loop_
  _atom_site_type_symbol
  _atom_site_label
  _atom_site_symmetry_multiplicity
  _atom_site_fract_x
  _atom_site_fract_y
  _atom_site_fract_z
  _atom_site_occupancy
  Al  Al1       1.0  0.6997315287590027  0.555303156375885  0.1451531201601028  1.0000
  Al  Al2       1.0  0.954888105392456  0.08801863342523575  0.8717854619026184  1.0000
  As  As1       1.0  0.9295573830604553  0.22442707419395447  0.38564786314964294  1.0000
  Ni  Ni1       1.0  0.39433205127716064  0.9281296730041504  0.37276175618171686  1.0000
  S   S1        1.0  0.43678128719329834  0.5923874378204346  0.5597124099731445  1.0000
  S   S2        1.0  0.9009504318237305  0.38414186239242554  0.517538845539093  1.0000
  Ti  Ti1       1.0  0.44663792848587036  0.593170166015625  0.33404725790023804  1.0000
  Ti  Ti2       1.0  0.9429259896278381  0.8610833287239075  0.21633705496788025  1.0000
  Ti  Ti3       1.0  0.8956195712089539  0.27488014101982117  0.37830787897109985  1.0000
  Zr  Zr1       1.0  0.37391144037246704  0.029160333797335625  0.1616848260164261  1.0000
  Zr  Zr2       1.0  0.6683358550071716  0.8062748908996582  0.675704300403595  1.0000
