data_image0
_chemical_formula_structural       AlAs2OsTi4YZr2
_chemical_formula_sum              "Al1 As2 Os1 Ti4 Y1 Zr2"
_cell_length_a       4.043340938146659
_cell_length_b       6.72370539355619
_cell_length_c       7.56511116027832
_cell_angle_alpha    120.19522219982743
_cell_angle_beta     95.77752409502678
_cell_angle_gamma    82.76338642604554

_space_group_name_H-M_alt    "P 1"
_space_group_IT_number       1

loop_
  _space_group_symop_operation_xyz
  'x, y, z'

loop_
  _atom_site_type_symbol
  _atom_site_label
  _atom_site_symmetry_multiplicity
  _atom_site_fract_x
  _atom_site_fract_y
  _atom_site_fract_z
  _atom_site_occupancy
  Al  Al1       1.0  0.5248333811759949  0.7627493739128113  0.41507396101951594  1.0000
  As  As1       1.0  0.03717697411775589  0.7576471567153931  0.5174528360366821  1.0000
  As  As2       1.0  0.04353965446352959  0.445860892534256  0.8164458274841306  1.0000
  Os  Os1       1.0  0.5238360166549683  0.31393662095069885  0.29899570345878596  1.0000
  Ti  Ti1       1.0  0.5316882133483887  0.9534263014793396  0.8805560469627379  1.0000
  Ti  Ti2       1.0  0.5348420739173889  0.187188059091568  0.6310191154479979  1.0000
  Ti  Ti3       1.0  0.5321894288063049  0.523028552532196  0.4186893701553344  1.0000
  Ti  Ti4       1.0  0.5425682067871094  0.42850685119628906  0.7981742024421691  1.0000
  Y   Y1        1.0  0.03142622858285904  0.7359223365783691  0.1724848300218582  1.0000
  Zr  Zr1       1.0  0.036622412502765656  0.537333607673645  0.5442610383033751  1.0000
  Zr  Zr2       1.0  0.030762702226638794  0.9070773720741272  0.28327673673629755  1.0000
