data_image0
_chemical_formula_structural       AlAsSSc2Ti3Zr3
_chemical_formula_sum              "Al1 As1 S1 Sc2 Ti3 Zr3"
_cell_length_a       5.402509646916794
_cell_length_b       7.424508069491261
_cell_length_c       7.804466724395752
_cell_angle_alpha    119.38833677473077
_cell_angle_beta     89.6726540860579
_cell_angle_gamma    89.56454029271991

_space_group_name_H-M_alt    "P 1"
_space_group_IT_number       1

loop_
  _space_group_symop_operation_xyz
  'x, y, z'

loop_
  _atom_site_type_symbol
  _atom_site_label
  _atom_site_symmetry_multiplicity
  _atom_site_fract_x
  _atom_site_fract_y
  _atom_site_fract_z
  _atom_site_occupancy
  Al  Al1       1.0  0.5110681056976318  0.8651607632637024  0.44765904545783997  1.0000
  As  As1       1.0  0.7476714253425598  0.624316930770874  0.2549952268600464  1.0000
  S   S1        1.0  0.7580739855766296  0.41626042127609253  0.3526521623134613  1.0000
  Sc  Sc1       1.0  0.5079531073570251  0.37601161003112793  0.4446831047534943  1.0000
  Sc  Sc2       1.0  0.014110377058386804  0.6792148351669312  0.2151207029819488  1.0000
  Ti  Ti1       1.0  0.013058665208518505  0.9061044454574585  0.17328351736068726  1.0000
  Ti  Ti2       1.0  0.011980249546468258  0.1721256971359253  0.9399627447128297  1.0000
  Ti  Ti3       1.0  0.5114157795906067  0.9102328419685364  0.9866315722465516  1.0000
  Zr  Zr1       1.0  0.5085065364837646  0.5151102542877197  0.9797105193138124  1.0000
  Zr  Zr2       1.0  0.5064359903335571  0.6187606453895569  0.1875971406698227  1.0000
  Zr  Zr3       1.0  0.011593760922551155  0.9069399237632751  0.02211804687976837  1.0000
