data_image0
_chemical_formula_structural       I3LiLuNaPPt2SbZn
_chemical_formula_sum              "I3 Li1 Lu1 Na1 P1 Pt2 Sb1 Zn1"
_cell_length_a       6.794216845183561
_cell_length_b       6.94971942425165
_cell_length_c       7.420403003692627
_cell_angle_alpha    67.29504465549836
_cell_angle_beta     66.03845335594158
_cell_angle_gamma    70.0022076705011

_space_group_name_H-M_alt    "P 1"
_space_group_IT_number       1

loop_
  _space_group_symop_operation_xyz
  'x, y, z'

loop_
  _atom_site_type_symbol
  _atom_site_label
  _atom_site_symmetry_multiplicity
  _atom_site_fract_x
  _atom_site_fract_y
  _atom_site_fract_z
  _atom_site_occupancy
  I   I1        1.0  0.25403013825416565  0.9198784232139587  0.17378301918506622  1.0000
  I   I2        1.0  0.5108206272125244  0.5308865904808044  0.7323170304298401  1.0000
  I   I3        1.0  0.9957146644592285  0.35322487354278564  0.883235514163971  1.0000
  Li  Li1       1.0  0.7296170592308044  0.6136111617088318  0.5900712013244629  1.0000
  Lu  Lu1       1.0  0.3317100405693054  0.7613758444786072  0.7289055585861206  1.0000
  Na  Na1       1.0  0.9690383076667786  0.11155681312084198  0.6973690390586853  1.0000
  P   P1        1.0  0.6766912937164307  0.5614454746246338  0.514771044254303  1.0000
  Pt  Pt1       1.0  0.6868181228637695  0.358875036239624  0.23768723011016843  1.0000
  Pt  Pt2       1.0  0.18073490262031555  0.23137612640857697  0.3403933644294739  1.0000
  Sb  Sb1       1.0  0.6849228143692017  0.04381762817502022  0.21416740119457237  1.0000
  Zn  Zn1       1.0  0.24005816876888275  0.9854177236557007  0.6420133709907532  1.0000
