data_image0
_chemical_formula_structural       I3InNaPtSTbUVZn
_chemical_formula_sum              "I3 In1 Na1 Pt1 S1 Tb1 U1 V1 Zn1"
_cell_length_a       6.604429997720153
_cell_length_b       5.554124474133594
_cell_length_c       7.096599102020264
_cell_angle_alpha    119.36918531631768
_cell_angle_beta     110.16197160143669
_cell_angle_gamma    125.79680786696889

_space_group_name_H-M_alt    "P 1"
_space_group_IT_number       1

loop_
  _space_group_symop_operation_xyz
  'x, y, z'

loop_
  _atom_site_type_symbol
  _atom_site_label
  _atom_site_symmetry_multiplicity
  _atom_site_fract_x
  _atom_site_fract_y
  _atom_site_fract_z
  _atom_site_occupancy
  I   I1        1.0  0.5288425087928774  0.6762619018554691  0.6562983393669131  1.0000
  I   I2        1.0  0.23416794836521168  0.5014632344245914  0.7610632777214053  1.0000
  I   I3        1.0  0.525888502597809  0.1915173828601839  0.9087505936622621  1.0000
  In  In1       1.0  0.08337216079235084  0.5467585921287538  0.5745704770088197  1.0000
  Na  Na1       1.0  0.8447996973991395  0.3649277091026308  0.5736887454986573  1.0000
  Pt  Pt1       1.0  0.12795609235763553  0.1381694078445435  0.9042127132415771  1.0000
  S   S1        1.0  0.8431616425514221  0.7469546794891359  0.7888036966323854  1.0000
  Tb  Tb1       1.0  0.036652497947216034  0.3587380647659302  0.18148292601108554  1.0000
  U   U1        1.0  0.8659260272979736  0.8085641264915465  0.10739526897668847  1.0000
  V   V1        1.0  0.8352585434913635  0.6460538506507875  0.47859814763069164  1.0000
  Zn  Zn1       1.0  0.4915912747383118  0.7803449630737306  0.7749725580215455  1.0000
