data_image0
_chemical_formula_structural       CdCuI3NaPPtSU2
_chemical_formula_sum              "Cd1 Cu1 I3 Na1 P1 Pt1 S1 U2"
_cell_length_a       7.56793825289081
_cell_length_b       7.513153512098519
_cell_length_c       7.825897216796875
_cell_angle_alpha    77.3050722350151
_cell_angle_beta     64.50730889911866
_cell_angle_gamma    63.99365432184491

_space_group_name_H-M_alt    "P 1"
_space_group_IT_number       1

loop_
  _space_group_symop_operation_xyz
  'x, y, z'

loop_
  _atom_site_type_symbol
  _atom_site_label
  _atom_site_symmetry_multiplicity
  _atom_site_fract_x
  _atom_site_fract_y
  _atom_site_fract_z
  _atom_site_occupancy
  Cd  Cd1       1.0  0.8300793170928955  0.8473089337348938  0.15529784560203552  1.0000
  Cu  Cu1       1.0  0.5205994844436646  0.38168099522590637  0.955600380897522  1.0000
  I   I1        1.0  0.17607851326465607  0.1131509318947792  0.4043138325214386  1.0000
  I   I2        1.0  0.013347282074391842  0.2993973195552826  0.6619032025337219  1.0000
  I   I3        1.0  0.6111164093017578  0.06757315248250961  0.05106743425130844  1.0000
  Na  Na1       1.0  0.10621196776628494  0.3970174193382263  0.4871024489402771  1.0000
  P   P1        1.0  0.5644299387931824  0.6575276255607605  0.463172197341919  1.0000
  Pt  Pt1       1.0  0.42231160402297974  0.23537416756153107  0.011374790221452713  1.0000
  S   S1        1.0  0.10175228118896484  0.2240656316280365  0.7039363980293274  1.0000
  U   U1        1.0  0.866853654384613  0.9024985432624817  0.5968126058578491  1.0000
  U   U2        1.0  0.3672240078449249  0.20553255081176758  0.47586312890052795  1.0000
