data_image0
_chemical_formula_structural       NNa4Te6
_chemical_formula_sum              "N1 Na4 Te6"
_cell_length_a       6.571576547231068
_cell_length_b       6.293248723027722
_cell_length_c       9.438961029052734
_cell_angle_alpha    90.73236910224031
_cell_angle_beta     88.7884684607617
_cell_angle_gamma    110.39768104139323

_space_group_name_H-M_alt    "P 1"
_space_group_IT_number       1

loop_
  _space_group_symop_operation_xyz
  'x, y, z'

loop_
  _atom_site_type_symbol
  _atom_site_label
  _atom_site_symmetry_multiplicity
  _atom_site_fract_x
  _atom_site_fract_y
  _atom_site_fract_z
  _atom_site_occupancy
  N   N1        1.0  0.5486193895339966  0.32820582389831543  0.7921078205108643  1.0000
  Na  Na1       1.0  0.3802755773067474  0.588844895362854  0.4382154941558838  1.0000
  Na  Na2       1.0  0.3807086646556855  0.9152085781097413  0.09122869372367859  1.0000
  Na  Na3       1.0  0.3799369931221008  0.3944117724895478  0.45510411262512207  1.0000
  Na  Na4       1.0  0.8816864490509032  0.8436440825462342  0.7926252484321594  1.0000
  Te  Te1       1.0  0.549500584602356  0.7756385803222657  0.22023195028305054  1.0000
  Te  Te2       1.0  0.3555563986301422  0.8829233050346376  0.31506165862083435  1.0000
  Te  Te3       1.0  0.3582121431827545  0.08766774833202362  0.03192573040723801  1.0000
  Te  Te4       1.0  0.8702527880668639  0.12672582268714905  0.2694054841995239  1.0000
  Te  Te5       1.0  0.8721515536308287  0.7901955246925355  0.10899178683757782  1.0000
  Te  Te6       1.0  0.36619719862937933  0.9362788200378419  0.16123148798942566  1.0000
