data_image0
_chemical_formula_structural       CuINa6Te3
_chemical_formula_sum              "Cu1 I1 Na6 Te3"
_cell_length_a       5.972995075803127
_cell_length_b       6.410311445064714
_cell_length_c       8.823833465576172
_cell_angle_alpha    85.73138817447918
_cell_angle_beta     82.66175839437015
_cell_angle_gamma    81.8404561005028

_space_group_name_H-M_alt    "P 1"
_space_group_IT_number       1

loop_
  _space_group_symop_operation_xyz
  'x, y, z'

loop_
  _atom_site_type_symbol
  _atom_site_label
  _atom_site_symmetry_multiplicity
  _atom_site_fract_x
  _atom_site_fract_y
  _atom_site_fract_z
  _atom_site_occupancy
  Cu  Cu1       1.0  0.07711582630872726  0.40212175250053406  0.5336905121803284  1.0000
  I   I1        1.0  0.57789546251297  0.3828814923763275  0.5786567330360413  1.0000
  Na  Na1       1.0  0.10327789187431337  0.8899708986282349  0.6752378940582275  1.0000
  Na  Na2       1.0  0.5720417499542236  0.1639605164527893  0.8902331590652466  1.0000
  Na  Na3       1.0  0.05693417042493821  0.03131341189146042  0.31851017475128174  1.0000
  Na  Na4       1.0  0.07915980368852615  0.7734846472740173  0.07167371362447739  1.0000
  Na  Na5       1.0  0.5673214197158813  0.08159098029136658  0.8168051242828369  1.0000
  Na  Na6       1.0  0.5834833383560181  0.9014029502868652  0.9965035915374756  1.0000
  Te  Te1       1.0  0.0718056857585907  0.25389257073402405  0.2612340748310089  1.0000
  Te  Te2       1.0  0.09331198036670686  0.6069060564041138  0.3778063952922821  1.0000
  Te  Te3       1.0  0.3438296318054199  0.6885053515434265  0.3458968997001648  1.0000
