data_image0
_chemical_formula_structural       DyI4Na3PPt2
_chemical_formula_sum              "Dy1 I4 Na3 P1 Pt2"
_cell_length_a       6.468299911198008
_cell_length_b       7.827413232485477
_cell_length_c       7.9869771003723145
_cell_angle_alpha    123.87654846124505
_cell_angle_beta     91.13235725326896
_cell_angle_gamma    89.56462125066834

_space_group_name_H-M_alt    "P 1"
_space_group_IT_number       1

loop_
  _space_group_symop_operation_xyz
  'x, y, z'

loop_
  _atom_site_type_symbol
  _atom_site_label
  _atom_site_symmetry_multiplicity
  _atom_site_fract_x
  _atom_site_fract_y
  _atom_site_fract_z
  _atom_site_occupancy
  Dy  Dy1       1.0  0.362316757440567  0.5117440819740295  0.30794996023178106  1.0000
  I   I1        1.0  0.07566879689693451  0.5632506012916565  0.9440383911132814  1.0000
  I   I2        1.0  0.38317835330963135  0.3526037335395813  0.5879294276237489  1.0000
  I   I3        1.0  0.872356116771698  0.5713615417480469  0.518502950668335  1.0000
  I   I4        1.0  0.12165344506502151  0.5895771384239197  0.6844155788421632  1.0000
  Na  Na1       1.0  0.6232815384864807  0.2856811285018921  0.45179289579391485  1.0000
  Na  Na2       1.0  0.9067543148994446  0.8297232389450073  0.14287915825843808  1.0000
  Na  Na3       1.0  0.37492504715919495  0.26821252703666687  0.575630009174347  1.0000
  P   P1        1.0  0.19984358549118042  0.600210428237915  0.6908533573150636  1.0000
  Pt  Pt1       1.0  0.6884284019470215  0.5201043486595154  0.1683173626661301  1.0000
  Pt  Pt2       1.0  0.4103166162967682  0.3605121672153473  0.1208488419651985  1.0000
