data_image0
_chemical_formula_structural       BiCoCuNdP2Te2Zr
_chemical_formula_sum              "Bi1 Co1 Cu1 Nd1 P2 Te2 Zr1"
_cell_length_a       6.135620440460318
_cell_length_b       6.137830582267999
_cell_length_c       7.144433975219727
_cell_angle_alpha    89.99191005176039
_cell_angle_beta     89.981400854841
_cell_angle_gamma    120.09230376231503

_space_group_name_H-M_alt    "P 1"
_space_group_IT_number       1

loop_
  _space_group_symop_operation_xyz
  'x, y, z'

loop_
  _atom_site_type_symbol
  _atom_site_label
  _atom_site_symmetry_multiplicity
  _atom_site_fract_x
  _atom_site_fract_y
  _atom_site_fract_z
  _atom_site_occupancy
  Bi  Bi1       1.0  0.6224671006202698  0.8460701704025269  0.10102693736553191  1.0000
  Co  Co1       1.0  0.9637495279312134  0.11527754366397858  0.38079455494880676  1.0000
  Cu  Cu1       1.0  0.5074971914291382  0.5289006233215332  0.3831014931201935  1.0000
  Nd  Nd1       1.0  0.9955898523330688  0.6137101650238037  0.10046419501304626  1.0000
  P   P1        1.0  0.620517373085022  0.8516994118690491  0.5983664393424988  1.0000
  P   P2        1.0  0.2558884024620056  0.24729590117931366  0.1042637452483177  1.0000
  Te  Te1       1.0  0.3129218518733978  0.16884545981884003  0.6021558046340941  1.0000
  Te  Te2       1.0  0.9608011245727539  0.5137906074523926  0.5974668264389038  1.0000
  Zr  Zr1       1.0  0.9565388560295105  0.12015803158283234  0.812168538570404  1.0000
