data_image0
_chemical_formula_structural       ClHfPPdPrTe3Ti
_chemical_formula_sum              "Cl1 Hf1 P1 Pd1 Pr1 Te3 Ti1"
_cell_length_a       6.604579091737072
_cell_length_b       6.599470707867564
_cell_length_c       6.731353759765625
_cell_angle_alpha    90.08186491455459
_cell_angle_beta     89.9374591466819
_cell_angle_gamma    119.8614393465391

_space_group_name_H-M_alt    "P 1"
_space_group_IT_number       1

loop_
  _space_group_symop_operation_xyz
  'x, y, z'

loop_
  _atom_site_type_symbol
  _atom_site_label
  _atom_site_symmetry_multiplicity
  _atom_site_fract_x
  _atom_site_fract_y
  _atom_site_fract_z
  _atom_site_occupancy
  Cl  Cl1       1.0  0.5955294966697693  0.9824091196060181  0.8853203654289246  1.0000
  Hf  Hf1       1.0  0.9239046573638916  0.9996631145477295  0.6676024198532104  1.0000
  P   P1        1.0  0.6842274069786072  0.7515250444412231  0.39259457588195795  1.0000
  Pd  Pd1       1.0  0.5758958458900452  0.4362718462944031  0.17235183715820312  1.0000
  Pr  Pr1       1.0  0.2319805920124054  0.6416889429092407  0.5127824544906616  1.0000
  Te  Te1       1.0  0.9231781363487244  0.6511174440383911  0.8855260014533997  1.0000
  Te  Te2       1.0  0.2615153193473816  0.33823323249816895  0.8883839845657348  1.0000
  Te  Te3       1.0  0.2932486832141876  0.1315310299396515  0.39499905705451965  1.0000
  Ti  Ti1       1.0  0.9238923192024231  0.9990990161895752  0.14650937914848328  1.0000
