data_image0
_chemical_formula_structural       I2LiPbScZn2
_chemical_formula_sum              "I2 Li1 Pb1 Sc1 Zn2"
_cell_length_a       4.563497254236767
_cell_length_b       4.681745682005599
_cell_length_c       9.083895683288574
_cell_angle_alpha    91.51051803769332
_cell_angle_beta     90.39322899587212
_cell_angle_gamma    109.7560617733769

_space_group_name_H-M_alt    "P 1"
_space_group_IT_number       1

loop_
  _space_group_symop_operation_xyz
  'x, y, z'

loop_
  _atom_site_type_symbol
  _atom_site_label
  _atom_site_symmetry_multiplicity
  _atom_site_fract_x
  _atom_site_fract_y
  _atom_site_fract_z
  _atom_site_occupancy
  I   I1        1.0  0.617578387260437  0.33341026306152344  0.9693994522094727  1.0000
  I   I2        1.0  0.624710202217102  0.26334652304649353  0.910821795463562  1.0000
  Li  Li1       1.0  0.6369137763977051  0.4832310974597931  0.5957033038139343  1.0000
  Pb  Pb1       1.0  0.1404847800731659  0.5626184940338135  0.7823514938354492  1.0000
  Sc  Sc1       1.0  0.6313185691833496  0.7448863387107849  0.29702097177505493  1.0000
  Zn  Zn1       1.0  0.6366518139839172  0.9024863839149475  0.1766263097524643  1.0000
  Zn  Zn2       1.0  0.14241696894168854  0.04879993200302124  0.044669557362794876  1.0000
