data_image0
_chemical_formula_structural       PbSc2Zn3Zr
_chemical_formula_sum              "Pb1 Sc2 Zn3 Zr1"
_cell_length_a       4.840798262703863
_cell_length_b       4.532116385130597
_cell_length_c       10.312247276306152
_cell_angle_alpha    94.97624928699737
_cell_angle_beta     90.71919455839512
_cell_angle_gamma    113.2856272323248

_space_group_name_H-M_alt    "P 1"
_space_group_IT_number       1

loop_
  _space_group_symop_operation_xyz
  'x, y, z'

loop_
  _atom_site_type_symbol
  _atom_site_label
  _atom_site_symmetry_multiplicity
  _atom_site_fract_x
  _atom_site_fract_y
  _atom_site_fract_z
  _atom_site_occupancy
  Pb  Pb1       1.0  0.6227706074714661  0.5435659885406494  0.529768705368042  1.0000
  Sc  Sc1       1.0  0.8287630081176758  0.5509452819824219  0.0239324402064085  1.0000
  Sc  Sc2       1.0  0.643903374671936  0.7161068320274353  0.9800512194633484  1.0000
  Zn  Zn1       1.0  0.12102576345205307  0.45192766189575195  0.14744220674037933  1.0000
  Zn  Zn2       1.0  0.1355981081724167  0.7977351546287537  0.7870132327079773  1.0000
  Zn  Zn3       1.0  0.6277818083763123  0.8251021504402161  0.23628030717372894  1.0000
  Zr  Zr1       1.0  0.3298358619213104  0.3398343026638031  0.49031001329421997  1.0000
