data_image0
_chemical_formula_structural       I2KS2U2V2
_chemical_formula_sum              "I2 K1 S2 U2 V2"
_cell_length_a       7.259162615887472
_cell_length_b       7.5250607656890764
_cell_length_c       8.09555435180664
_cell_angle_alpha    107.79669173638378
_cell_angle_beta     106.22509491415346
_cell_angle_gamma    111.22959020312693

_space_group_name_H-M_alt    "P 1"
_space_group_IT_number       1

loop_
  _space_group_symop_operation_xyz
  'x, y, z'

loop_
  _atom_site_type_symbol
  _atom_site_label
  _atom_site_symmetry_multiplicity
  _atom_site_fract_x
  _atom_site_fract_y
  _atom_site_fract_z
  _atom_site_occupancy
  I   I1        1.0  0.23471792042255393  0.8458679914474486  0.5073145031929016  1.0000
  I   I2        1.0  0.02365220151841634  0.8144677281379699  0.1427209973335266  1.0000
  K   K1        1.0  0.7334488034248352  0.8749781250953673  0.7703151106834412  1.0000
  S   S1        1.0  0.25229072570800776  0.7659056782722472  0.3855516016483307  1.0000
  S   S2        1.0  0.6945724487304688  0.10811996459960936  0.3512051999568939  1.0000
  U   U1        1.0  0.5657584071159363  0.25259101390838623  0.6787030696868896  1.0000
  U   U2        1.0  0.6850270628929138  0.8328908681869506  0.8959312438964844  1.0000
  V   V1        1.0  0.6869987845420837  0.5532655715942383  0.9507265686988831  1.0000
  V   V2        1.0  0.7408108115196228  0.40693104267120356  0.7226091623306274  1.0000
