data_image0
_chemical_formula_structural       K6S2Sb
_chemical_formula_sum              "K6 S2 Sb1"
_cell_length_a       6.443349833550694
_cell_length_b       6.140024646183096
_cell_length_c       6.835203170776367
_cell_angle_alpha    111.34077436959613
_cell_angle_beta     111.8500980503125
_cell_angle_gamma    116.1430191221853

_space_group_name_H-M_alt    "P 1"
_space_group_IT_number       1

loop_
  _space_group_symop_operation_xyz
  'x, y, z'

loop_
  _atom_site_type_symbol
  _atom_site_label
  _atom_site_symmetry_multiplicity
  _atom_site_fract_x
  _atom_site_fract_y
  _atom_site_fract_z
  _atom_site_occupancy
  K   K1        1.0  0.7658134698867798  0.36812013387680054  0.26260191202163696  1.0000
  K   K2        1.0  0.30639129877090454  0.18376284837722778  0.15634408593177795  1.0000
  K   K3        1.0  0.2801734209060669  0.7891707420349121  0.8581091165542603  1.0000
  K   K4        1.0  0.291742205619812  0.7470986247062683  0.9871237874031067  1.0000
  K   K5        1.0  0.28259655833244324  0.23308590054512024  0.5744482278823853  1.0000
  K   K6        1.0  0.7833970785140991  0.8444330096244812  0.7417047023773193  1.0000
  S   S1        1.0  0.852574348449707  0.20503392815589905  0.9592466354370117  1.0000
  S   S2        1.0  0.16620641946792603  0.0808975026011467  0.5397830009460449  1.0000
  Sb  Sb1       1.0  0.7575910687446594  0.935215175151825  0.9710687398910522  1.0000
