data_image0
_chemical_formula_structural       K7S2
_chemical_formula_sum              "K7 S2"
_cell_length_a       7.9847294535753495
_cell_length_b       7.932342248179834
_cell_length_c       8.555529594421387
_cell_angle_alpha    109.61126219580444
_cell_angle_beta     108.38097042752936
_cell_angle_gamma    110.41663779286023

_space_group_name_H-M_alt    "P 1"
_space_group_IT_number       1

loop_
  _space_group_symop_operation_xyz
  'x, y, z'

loop_
  _atom_site_type_symbol
  _atom_site_label
  _atom_site_symmetry_multiplicity
  _atom_site_fract_x
  _atom_site_fract_y
  _atom_site_fract_z
  _atom_site_occupancy
  K   K1        1.0  0.05544520169496537  0.047557320445775986  0.868506133556366  1.0000
  K   K2        1.0  0.07862838357686996  0.769160270690918  0.4815963804721832  1.0000
  K   K3        1.0  0.5852426290512085  0.6206579804420471  0.9089945554733276  1.0000
  K   K4        1.0  0.8247427344322206  0.25889235734939575  0.47491276264190674  1.0000
  K   K5        1.0  0.5601124167442322  0.6281788349151611  0.9923367500305176  1.0000
  K   K6        1.0  0.5549219846725464  0.40111121535301203  0.28065651655197144  1.0000
  K   K7        1.0  0.06470341235399243  0.46880668401718134  0.38257768750190735  1.0000
  S   S1        1.0  0.03494580462574953  0.9424708485603331  0.6995376348495483  1.0000
  S   S2        1.0  0.5624714493751526  0.7766517400741577  0.027263591066002846  1.0000
