data_image0
_chemical_formula_structural       I2K3LiPSU
_chemical_formula_sum              "I2 K3 Li1 P1 S1 U1"
_cell_length_a       8.394421474799069
_cell_length_b       8.702902050316986
_cell_length_c       9.648347854614258
_cell_angle_alpha    108.39815579594853
_cell_angle_beta     109.64691746475991
_cell_angle_gamma    110.56718924972404

_space_group_name_H-M_alt    "P 1"
_space_group_IT_number       1

loop_
  _space_group_symop_operation_xyz
  'x, y, z'

loop_
  _atom_site_type_symbol
  _atom_site_label
  _atom_site_symmetry_multiplicity
  _atom_site_fract_x
  _atom_site_fract_y
  _atom_site_fract_z
  _atom_site_occupancy
  I   I1        1.0  0.11494543403387075  0.7808085083961488  0.38781225681304937  1.0000
  I   I2        1.0  0.6454638242721558  0.39160618185997015  0.9274271726608276  1.0000
  K   K1        1.0  0.7434969544410706  0.5122624039649963  0.9393443465232849  1.0000
  K   K2        1.0  0.3976084291934967  0.2823575735092163  0.19528663158416748  1.0000
  K   K3        1.0  0.40406078100204473  0.7177674174308778  0.2544331848621369  1.0000
  Li  Li1       1.0  0.6219996213912964  0.3399947285652161  0.15501326322555542  1.0000
  P   P1        1.0  0.17948606610298162  0.4947005212306977  0.6678569912910461  1.0000
  S   S1        1.0  0.8943590521812439  0.21301403641700747  0.49841728806495667  1.0000
  U   U1        1.0  0.6938685178756714  0.8642601370811464  0.0361516997218132  1.0000
