data_image0
_chemical_formula_structural       CoGaGeILiP3Pt
_chemical_formula_sum              "Co1 Ga1 Ge1 I1 Li1 P3 Pt1"
_cell_length_a       4.884640856608398
_cell_length_b       6.085927045927567
_cell_length_c       6.981292247772217
_cell_angle_alpha    88.31353234248311
_cell_angle_beta     95.40937302749201
_cell_angle_gamma    92.16371462422

_space_group_name_H-M_alt    "P 1"
_space_group_IT_number       1

loop_
  _space_group_symop_operation_xyz
  'x, y, z'

loop_
  _atom_site_type_symbol
  _atom_site_label
  _atom_site_symmetry_multiplicity
  _atom_site_fract_x
  _atom_site_fract_y
  _atom_site_fract_z
  _atom_site_occupancy
  Co  Co1       1.0  0.6454827785491943  0.7497369050979614  0.2959502637386322  1.0000
  Ga  Ga1       1.0  0.6399192810058594  0.7842477560043335  0.9267172217369081  1.0000
  Ge  Ge1       1.0  0.14408236742019653  0.2985275685787201  0.9329915642738343  1.0000
  I   I1        1.0  0.14760436117649078  0.2939048707485199  0.44127884507179266  1.0000
  Li  Li1       1.0  0.7080137133598328  0.7514742612838745  0.4779082536697388  1.0000
  P   P1        1.0  0.8815529346466064  0.1751483827829361  0.27870750427246094  1.0000
  P   P2        1.0  0.38738325238227844  0.9923961758613586  0.2895798981189728  1.0000
  P   P3        1.0  0.9111733436584473  0.35445356369018555  0.35100236535072327  1.0000
  Pt  Pt1       1.0  0.6882699728012085  0.41763240098953247  0.6562591791152954  1.0000
