data_image0
_chemical_formula_structural       Co3P3Pt2Y
_chemical_formula_sum              "Co3 P3 Pt2 Y1"
_cell_length_a       5.2240167777281465
_cell_length_b       5.445453419991143
_cell_length_c       7.000403881072998
_cell_angle_alpha    87.28276624947974
_cell_angle_beta     91.90158346224392
_cell_angle_gamma    83.20301843897903

_space_group_name_H-M_alt    "P 1"
_space_group_IT_number       1

loop_
  _space_group_symop_operation_xyz
  'x, y, z'

loop_
  _atom_site_type_symbol
  _atom_site_label
  _atom_site_symmetry_multiplicity
  _atom_site_fract_x
  _atom_site_fract_y
  _atom_site_fract_z
  _atom_site_occupancy
  Co  Co1       1.0  0.5618147253990173  0.17414434254169464  0.4356778562068939  1.0000
  Co  Co2       1.0  0.8389862179756165  0.16952137649059296  0.7448870539665222  1.0000
  Co  Co3       1.0  0.30209729075431824  0.9913903474807739  0.5681631565093994  1.0000
  P   P1        1.0  0.06081080064177513  0.14810630679130554  0.6150496602058411  1.0000
  P   P2        1.0  0.5800791382789612  0.7755820751190186  0.4435458779335022  1.0000
  P   P3        1.0  0.3328455984592438  0.18400152027606964  0.6627475023269653  1.0000
  Pt  Pt1       1.0  0.8315428495407104  0.24308651685714722  0.9663745164871215  1.0000
  Pt  Pt2       1.0  0.050900064408779144  0.9231998920440674  0.2981495261192321  1.0000
  Y   Y1        1.0  0.9963237047195435  0.09141145646572113  0.4887790381908416  1.0000
