data_image0
_chemical_formula_structural       Co2GaP2Pt4
_chemical_formula_sum              "Co2 Ga1 P2 Pt4"
_cell_length_a       4.4275350804615154
_cell_length_b       6.171016676860981
_cell_length_c       6.524678707122803
_cell_angle_alpha    89.58932520607922
_cell_angle_beta     89.41134157966827
_cell_angle_gamma    90.65992259203387

_space_group_name_H-M_alt    "P 1"
_space_group_IT_number       1

loop_
  _space_group_symop_operation_xyz
  'x, y, z'

loop_
  _atom_site_type_symbol
  _atom_site_label
  _atom_site_symmetry_multiplicity
  _atom_site_fract_x
  _atom_site_fract_y
  _atom_site_fract_z
  _atom_site_occupancy
  Co  Co1       1.0  0.5823709964752197  0.8138598203659058  0.21549798548221588  1.0000
  Co  Co2       1.0  0.09225770086050034  0.78500896692276  0.6865843534469604  1.0000
  Ga  Ga1       1.0  0.5940757989883423  0.08806975930929184  0.8357573747634888  1.0000
  P   P1        1.0  0.08500505983829498  0.24409638345241547  0.16419725120067596  1.0000
  P   P2        1.0  0.09343322366476059  0.6951576471328735  0.5181342959403992  1.0000
  Pt  Pt1       1.0  0.0554339773952961  0.13851942121982574  0.10040319710969925  1.0000
  Pt  Pt2       1.0  0.5506170392036438  0.3973895013332367  0.6268990635871887  1.0000
  Pt  Pt3       1.0  0.6154704093933105  0.5802240371704102  0.22388727962970734  1.0000
  Pt  Pt4       1.0  0.5884566903114319  0.993000328540802  0.8115114569664001  1.0000
