data_image0
_chemical_formula_structural       HO3U3V
_chemical_formula_sum              "H1 O3 U3 V1"
_cell_length_a       5.302907962257291
_cell_length_b       5.16493704667262
_cell_length_c       7.136771202087402
_cell_angle_alpha    88.15238005975229
_cell_angle_beta     95.29237502007089
_cell_angle_gamma    119.4339352783956

_space_group_name_H-M_alt    "P 1"
_space_group_IT_number       1

loop_
  _space_group_symop_operation_xyz
  'x, y, z'

loop_
  _atom_site_type_symbol
  _atom_site_label
  _atom_site_symmetry_multiplicity
  _atom_site_fract_x
  _atom_site_fract_y
  _atom_site_fract_z
  _atom_site_occupancy
  H   H1        1.0  0.9723573923110962  0.3074161410331726  0.11469102650880814  1.0000
  O   O1        1.0  0.3975867033004761  0.4916277229785919  0.8373711705207825  1.0000
  O   O2        1.0  0.6987246870994568  0.6757255792617798  0.1618773341178894  1.0000
  O   O3        1.0  0.3838631808757782  0.0003298521041870117  0.10382946580648422  1.0000
  U   U1        1.0  0.8863685131072998  0.01455300860106945  0.3450908660888672  1.0000
  U   U2        1.0  0.5786334872245789  0.5418336987495422  0.4511430263519287  1.0000
  U   U3        1.0  0.8952925801277161  0.019950371235609055  0.04639499634504318  1.0000
  V   V1        1.0  0.6351566910743713  0.40332916378974915  0.9508873224258423  1.0000
