data_image0
_chemical_formula_structural       O5Pb2Zr3
_chemical_formula_sum              "O5 Pb2 Zr3"
_cell_length_a       4.939385981932125
_cell_length_b       7.267890142004568
_cell_length_c       7.316694259643555
_cell_angle_alpha    122.52666887045817
_cell_angle_beta     88.8822172318044
_cell_angle_gamma    89.84655181593156

_space_group_name_H-M_alt    "P 1"
_space_group_IT_number       1

loop_
  _space_group_symop_operation_xyz
  'x, y, z'

loop_
  _atom_site_type_symbol
  _atom_site_label
  _atom_site_symmetry_multiplicity
  _atom_site_fract_x
  _atom_site_fract_y
  _atom_site_fract_z
  _atom_site_occupancy
  O   O1        1.0  0.8463246822357178  0.9353508353233336  0.970820963382721  1.0000
  O   O2        1.0  0.808284342288971  0.7481298446655272  0.14052519202232355  1.0000
  O   O3        1.0  0.3130028545856476  0.4299491345882415  0.09659031778573987  1.0000
  O   O4        1.0  0.7978615760803223  0.9441096782684325  0.30567392706871027  1.0000
  O   O5        1.0  0.31375452876091003  0.3076643943786621  0.8893364071846007  1.0000
  Pb  Pb1       1.0  0.8035523891448975  0.7159080505371094  0.7952660322189331  1.0000
  Pb  Pb2       1.0  0.3104129433631897  0.25723686814308167  0.38918882608413696  1.0000
  Zr  Zr1       1.0  0.30992501974105835  0.20191919803619382  0.7597923874855042  1.0000
  Zr  Zr2       1.0  0.3086050748825073  0.5689689517021179  0.34279856085777277  1.0000
  Zr  Zr3       1.0  0.808751404285431  0.6984491944313049  0.42092722654342646  1.0000
