data_image0
_chemical_formula_structural       O4PPb3Zr2
_chemical_formula_sum              "O4 P1 Pb3 Zr2"
_cell_length_a       3.93646514305106
_cell_length_b       4.427072717099864
_cell_length_c       8.506109237670898
_cell_angle_alpha    108.45863481139277
_cell_angle_beta     89.53000211004071
_cell_angle_gamma    123.70367794477868

_space_group_name_H-M_alt    "P 1"
_space_group_IT_number       1

loop_
  _space_group_symop_operation_xyz
  'x, y, z'

loop_
  _atom_site_type_symbol
  _atom_site_label
  _atom_site_symmetry_multiplicity
  _atom_site_fract_x
  _atom_site_fract_y
  _atom_site_fract_z
  _atom_site_occupancy
  O   O1        1.0  0.43061849474906927  0.7682700753211975  0.15655617415905  1.0000
  O   O2        1.0  0.4591719210147858  0.2642470598220825  0.06686203926801682  1.0000
  O   O3        1.0  0.8305731415748597  0.792631208896637  0.4205659031867981  1.0000
  O   O4        1.0  0.1687677800655365  0.26003339886665344  0.3710443377494812  1.0000
  P   P1        1.0  0.5502343773841858  0.22617174685001376  0.18970562517642975  1.0000
  Pb  Pb1       1.0  0.0915946438908577  0.7266546487808228  0.05523192510008815  1.0000
  Pb  Pb2       1.0  0.949018955230713  0.778938353061676  0.5772606730461121  1.0000
  Pb  Pb3       1.0  0.9730844497680665  0.7651118636131287  0.8501507043838501  1.0000
  Zr  Zr1       1.0  0.4801698029041291  0.7522783875465393  0.8525602221488954  1.0000
  Zr  Zr2       1.0  0.5709556341171266  0.9462201595306398  0.346084326505661  1.0000
