data_image0
_chemical_formula_structural       O5PbZr4
_chemical_formula_sum              "O5 Pb1 Zr4"
_cell_length_a       3.977460545629701
_cell_length_b       6.950673323995708
_cell_length_c       7.152597427368164
_cell_angle_alpha    123.10013875747308
_cell_angle_beta     90.53108964923227
_cell_angle_gamma    89.33641753818472

_space_group_name_H-M_alt    "P 1"
_space_group_IT_number       1

loop_
  _space_group_symop_operation_xyz
  'x, y, z'

loop_
  _atom_site_type_symbol
  _atom_site_label
  _atom_site_symmetry_multiplicity
  _atom_site_fract_x
  _atom_site_fract_y
  _atom_site_fract_z
  _atom_site_occupancy
  O   O1        1.0  0.2162069529294968  0.9725837111473083  0.8132212162017822  1.0000
  O   O2        1.0  0.7194607257843019  0.84538334608078  0.3444281220436096  1.0000
  O   O3        1.0  0.22129674255847934  0.23873306810855865  0.6985310912132263  1.0000
  O   O4        1.0  0.725433111190796  0.7244376540184021  0.933932900428772  1.0000
  O   O5        1.0  0.229227289557457  0.3693963289260864  0.9692679643630981  1.0000
  Pb  Pb1       1.0  0.7221808433532716  0.4348418414592743  0.8576745986938477  1.0000
  Zr  Zr1       1.0  0.7242376804351808  0.9197556972503662  0.9181250333786011  1.0000
  Zr  Zr2       1.0  0.21221996843814853  0.4077468812465668  0.7137991189956665  1.0000
  Zr  Zr3       1.0  0.7237478494644166  0.9057791829109192  0.5012009739875793  1.0000
  Zr  Zr4       1.0  0.2224681228399277  0.8964442014694214  0.23713001608848566  1.0000
