data_image0
_chemical_formula_structural       O5PbZr4
_chemical_formula_sum              "O5 Pb1 Zr4"
_cell_length_a       4.092732069933957
_cell_length_b       6.649734391280376
_cell_length_c       6.731435775756836
_cell_angle_alpha    132.70157521186928
_cell_angle_beta     88.95181852574984
_cell_angle_gamma    88.49084882360164

_space_group_name_H-M_alt    "P 1"
_space_group_IT_number       1

loop_
  _space_group_symop_operation_xyz
  'x, y, z'

loop_
  _atom_site_type_symbol
  _atom_site_label
  _atom_site_symmetry_multiplicity
  _atom_site_fract_x
  _atom_site_fract_y
  _atom_site_fract_z
  _atom_site_occupancy
  O   O1        1.0  0.3893316984176636  0.02702152170240879  0.7363508939743041  1.0000
  O   O2        1.0  0.8714625835418701  0.44364055991172785  0.2615712285041809  1.0000
  O   O3        1.0  0.37045684456825256  0.15109901130199432  0.9569476842880248  1.0000
  O   O4        1.0  0.3629723787307739  0.6663797497749329  0.43729799985885615  1.0000
  O   O5        1.0  0.36816641688346863  0.643415093421936  0.33939561247825617  1.0000
  Pb  Pb1       1.0  0.8596077561378479  0.7683185338973999  0.9988096356391906  1.0000
  Zr  Zr1       1.0  0.37253981828689575  0.12266192585229872  0.5861852169036865  1.0000
  Zr  Zr2       1.0  0.8685513138771057  0.04921386390924454  0.7466567158699035  1.0000
  Zr  Zr3       1.0  0.36933258175849915  0.6684746742248535  0.43245798349380493  1.0000
  Zr  Zr4       1.0  0.8679196238517761  0.16319330036640167  0.007307501975446939  1.0000
