data_image0
_chemical_formula_structural       O6PbZr3
_chemical_formula_sum              "O6 Pb1 Zr3"
_cell_length_a       4.664771318581671
_cell_length_b       5.2667312625104135
_cell_length_c       7.4285149574279785
_cell_angle_alpha    111.59269141679735
_cell_angle_beta     104.78581291059392
_cell_angle_gamma    91.1795061600804

_space_group_name_H-M_alt    "P 1"
_space_group_IT_number       1

loop_
  _space_group_symop_operation_xyz
  'x, y, z'

loop_
  _atom_site_type_symbol
  _atom_site_label
  _atom_site_symmetry_multiplicity
  _atom_site_fract_x
  _atom_site_fract_y
  _atom_site_fract_z
  _atom_site_occupancy
  O   O1        1.0  0.04660460725426674  0.6392810344696045  0.868439495563507  1.0000
  O   O2        1.0  0.5742812156677246  0.7315855622291565  0.2606838345527649  1.0000
  O   O3        1.0  0.9410539269447327  0.9591040015220643  0.3812143802642822  1.0000
  O   O4        1.0  0.5596408843994141  0.6319518089294434  0.7874469757080077  1.0000
  O   O5        1.0  0.5616134405136108  0.7729836106300354  0.8314291834831237  1.0000
  O   O6        1.0  0.6826760172843933  0.18843089044094086  0.10294741392135619  1.0000
  Pb  Pb1       1.0  0.25773248076438904  0.4694437980651856  0.09504443407058716  1.0000
  Zr  Zr1       1.0  0.28340789675712585  0.21170152723789215  0.5966328382492065  1.0000
  Zr  Zr2       1.0  0.8885849118232727  0.6994697451591492  0.8421770334243773  1.0000
  Zr  Zr3       1.0  0.6599917411804199  0.20659160614013672  0.356416791677475  1.0000
