data_image0
_chemical_formula_structural       Mn2Ni2O3Y4Zn2
_chemical_formula_sum              "Mn2 Ni2 O3 Y4 Zn2"
_cell_length_a       5.264600171143399
_cell_length_b       6.4807729904001565
_cell_length_c       6.512254238128662
_cell_angle_alpha    68.58631154283246
_cell_angle_beta     61.25069089661741
_cell_angle_gamma    65.18452861946703

_space_group_name_H-M_alt    "P 1"
_space_group_IT_number       1

loop_
  _space_group_symop_operation_xyz
  'x, y, z'

loop_
  _atom_site_type_symbol
  _atom_site_label
  _atom_site_symmetry_multiplicity
  _atom_site_fract_x
  _atom_site_fract_y
  _atom_site_fract_z
  _atom_site_occupancy
  Mn  Mn1       1.0  0.17743366956710815  0.9595455527305603  0.44540977478027344  1.0000
  Mn  Mn2       1.0  0.52796471118927  0.3457331955432892  0.10675647854804993  1.0000
  Ni  Ni1       1.0  0.6836398839950562  0.2601814270019531  0.710182785987854  1.0000
  Ni  Ni2       1.0  0.9615479111671448  0.188954696059227  0.21829186379909515  1.0000
  O   O1        1.0  0.6940993666648865  0.46684080362319946  0.4876978993415833  1.0000
  O   O2        1.0  0.07563697546720505  0.8565528392791748  0.7029109001159668  1.0000
  O   O3        1.0  0.1325841248035431  0.4965134263038635  0.7262975573539734  1.0000
  Y   Y1        1.0  0.7645402550697327  0.5648529529571533  0.9973526000976562  1.0000
  Y   Y2        1.0  0.9785133600234985  0.1864636391401291  0.26902678608894354  1.0000
  Y   Y3        1.0  0.3346216380596161  0.29012343287467957  0.4913446605205536  1.0000
  Y   Y4        1.0  0.8550885915756226  0.36051395535469055  0.6533064246177673  1.0000
  Zn  Zn1       1.0  0.587850034236908  0.8719263076782227  0.9126745462417603  1.0000
  Zn  Zn2       1.0  0.08198418468236923  0.3504694402217865  0.7126858234405518  1.0000
