data_image0
_chemical_formula_structural       HMnNi3O2Y4Zn2
_chemical_formula_sum              "H1 Mn1 Ni3 O2 Y4 Zn2"
_cell_length_a       5.834589370730671
_cell_length_b       7.1622917536047455
_cell_length_c       6.698526382446289
_cell_angle_alpha    107.90703199791749
_cell_angle_beta     107.21501916845179
_cell_angle_gamma    112.35413619060076

_space_group_name_H-M_alt    "P 1"
_space_group_IT_number       1

loop_
  _space_group_symop_operation_xyz
  'x, y, z'

loop_
  _atom_site_type_symbol
  _atom_site_label
  _atom_site_symmetry_multiplicity
  _atom_site_fract_x
  _atom_site_fract_y
  _atom_site_fract_z
  _atom_site_occupancy
  H   H1        1.0  0.19338938593864438  0.6682838201522827  0.7949685454368591  1.0000
  Mn  Mn1       1.0  0.4876714646816253  0.45922499895095825  0.9160913228988649  1.0000
  Ni  Ni1       1.0  0.8636908531188964  0.45631659030914307  0.9207435250282289  1.0000
  Ni  Ni2       1.0  0.030901044607162472  0.7145295739173889  0.11813452094793321  1.0000
  Ni  Ni3       1.0  0.02782308496534824  0.22248224914073944  0.14895683526992798  1.0000
  O   O1        1.0  0.5379002094268799  0.023007089272141457  0.8352963924407959  1.0000
  O   O2        1.0  0.8414052724838256  0.5803015828132629  0.7402061223983765  1.0000
  Y   Y1        1.0  0.14935895800590515  0.7020056247711182  0.2856571674346924  1.0000
  Y   Y2        1.0  0.8080148100852965  0.727878987789154  0.526056706905365  1.0000
  Y   Y3        1.0  0.5754163265228271  0.13613155484199524  0.14086584746837616  1.0000
  Y   Y4        1.0  0.7497265338897704  0.7419604063034058  0.4334338307380676  1.0000
  Zn  Zn1       1.0  0.609573245048523  0.2499992847442627  0.4325980246067047  1.0000
  Zn  Zn2       1.0  0.28116175532341003  0.16618666052818298  0.41710931062698364  1.0000
