data_image0
_chemical_formula_structural       H2MnNi4OY2Zn3
_chemical_formula_sum              "H2 Mn1 Ni4 O1 Y2 Zn3"
_cell_length_a       5.370964831818788
_cell_length_b       6.069524418874872
_cell_length_c       6.028137683868408
_cell_angle_alpha    62.93914723444449
_cell_angle_beta     61.00783954725082
_cell_angle_gamma    61.77351937735856

_space_group_name_H-M_alt    "P 1"
_space_group_IT_number       1

loop_
  _space_group_symop_operation_xyz
  'x, y, z'

loop_
  _atom_site_type_symbol
  _atom_site_label
  _atom_site_symmetry_multiplicity
  _atom_site_fract_x
  _atom_site_fract_y
  _atom_site_fract_z
  _atom_site_occupancy
  H   H1        1.0  0.5783659219741821  0.6679163575172424  0.2598831355571747  1.0000
  H   H2        1.0  0.9214464426040649  0.3084094524383545  0.48678126931190496  1.0000
  Mn  Mn1       1.0  0.572787344455719  0.6831204295158386  0.2765685021877289  1.0000
  Ni  Ni1       1.0  0.08223455399274826  0.5899311900138855  0.26685839891433716  1.0000
  Ni  Ni2       1.0  0.5701091289520264  0.30369502305984497  0.26555129885673523  1.0000
  Ni  Ni3       1.0  0.48225370049476624  0.15937663614749908  0.5047791600227356  1.0000
  Ni  Ni4       1.0  0.11073508113622665  0.11249113082885742  0.6579241156578064  1.0000
  O   O1        1.0  0.8298653364181519  0.7356433272361755  0.8059877157211303  1.0000
  Y   Y1        1.0  0.7935728430747986  0.49675077199935913  0.6407970786094666  1.0000
  Y   Y2        1.0  0.24460093677043915  0.3014640808105469  0.9887498021125792  1.0000
  Zn  Zn1       1.0  0.23326490819454193  0.7654919624328613  0.03856324031949043  1.0000
  Zn  Zn2       1.0  0.4938657879829407  0.27218297123908997  0.12883824110031133  1.0000
  Zn  Zn3       1.0  0.6165662407875061  0.13009248673915863  0.15775375068187716  1.0000
