data_image0
_chemical_formula_structural       H2Mn2Ni2O3Y2Zn2
_chemical_formula_sum              "H2 Mn2 Ni2 O3 Y2 Zn2"
_cell_length_a       5.21302464875674
_cell_length_b       6.195754159999127
_cell_length_c       6.257528781890869
_cell_angle_alpha    64.72934146422449
_cell_angle_beta     61.06013563741755
_cell_angle_gamma    68.41626953101847

_space_group_name_H-M_alt    "P 1"
_space_group_IT_number       1

loop_
  _space_group_symop_operation_xyz
  'x, y, z'

loop_
  _atom_site_type_symbol
  _atom_site_label
  _atom_site_symmetry_multiplicity
  _atom_site_fract_x
  _atom_site_fract_y
  _atom_site_fract_z
  _atom_site_occupancy
  H   H1        1.0  0.43259939551353455  0.11109147220849991  0.4499413967132568  1.0000
  H   H2        1.0  0.793340265750885  0.9456021785736084  0.6163553595542908  1.0000
  Mn  Mn1       1.0  0.6010528802871704  0.25014957785606384  0.21338699758052823  1.0000
  Mn  Mn2       1.0  0.12928563356399536  0.24774909019470215  0.7054287195205688  1.0000
  Ni  Ni1       1.0  0.020302047953009605  0.28373220562934875  0.4518647193908691  1.0000
  Ni  Ni2       1.0  0.7528005242347717  0.7658976912498474  0.02591634728014462  1.0000
  O   O1        1.0  0.6080525517463684  0.7168179154396057  0.9331952929496764  1.0000
  O   O2        1.0  0.7874243259429932  0.451945960521698  0.8881275057792662  1.0000
  O   O3        1.0  0.6678059697151184  0.13074074685573578  0.5251668095588684  1.0000
  Y   Y1        1.0  0.01691991277039051  0.7290728688240051  0.6792200803756714  1.0000
  Y   Y2        1.0  0.48056930303573614  0.2520146667957306  0.3663516640663147  1.0000
  Zn  Zn1       1.0  0.4722576439380646  0.6844341158866882  0.772483766078949  1.0000
  Zn  Zn2       1.0  0.8109551072120667  0.9461201429367065  0.870568811893463  1.0000
