data_image0
_chemical_formula_structural       FeH2MnNiOY7
_chemical_formula_sum              "Fe1 H2 Mn1 Ni1 O1 Y7"
_cell_length_a       5.937452545696368
_cell_length_b       6.45288295726928
_cell_length_c       6.48548698425293
_cell_angle_alpha    63.1569163845708
_cell_angle_beta     63.83894973940509
_cell_angle_gamma    63.2634024889198

_space_group_name_H-M_alt    "P 1"
_space_group_IT_number       1

loop_
  _space_group_symop_operation_xyz
  'x, y, z'

loop_
  _atom_site_type_symbol
  _atom_site_label
  _atom_site_symmetry_multiplicity
  _atom_site_fract_x
  _atom_site_fract_y
  _atom_site_fract_z
  _atom_site_occupancy
  Fe  Fe1       1.0  0.6730985641479492  0.7952973246574402  0.510295033454895  1.0000
  H   H1        1.0  0.1348775327205658  0.7178802490234375  0.6310349106788635  1.0000
  H   H2        1.0  0.6336281895637512  0.2726585268974304  0.14883197844028473  1.0000
  Mn  Mn1       1.0  0.13494175672531128  0.2852398157119751  0.15903685986995697  1.0000
  Ni  Ni1       1.0  0.4434182643890381  0.9531213641166686  0.1580992192029953  1.0000
  O   O1        1.0  0.1290484517812729  0.2823786735534668  0.3469010591506958  1.0000
  Y   Y1        1.0  0.752166211605072  0.7412462830543518  0.028991740196943283  1.0000
  Y   Y2        1.0  0.46478572487831116  0.20933108031749723  0.8613450527191162  1.0000
  Y   Y3        1.0  0.49414223432540894  0.477298617362976  0.9443705081939697  1.0000
  Y   Y4        1.0  0.2632145583629608  0.2570917010307312  0.6839929223060608  1.0000
  Y   Y5        1.0  0.9469950199127197  0.49581563472747797  0.6534556150436401  1.0000
  Y   Y6        1.0  0.7725449204444885  0.21903835237026212  0.8747717142105103  1.0000
  Y   Y7        1.0  0.2443738728761673  0.7777998447418213  0.16888613998889923  1.0000
