data_image0
_chemical_formula_structural       FeHMn2NiOY7
_chemical_formula_sum              "Fe1 H1 Mn2 Ni1 O1 Y7"
_cell_length_a       5.3273987622338215
_cell_length_b       6.587871423651378
_cell_length_c       6.127525806427002
_cell_angle_alpha    70.44227090384699
_cell_angle_beta     66.67270797195688
_cell_angle_gamma    67.43766136425972

_space_group_name_H-M_alt    "P 1"
_space_group_IT_number       1

loop_
  _space_group_symop_operation_xyz
  'x, y, z'

loop_
  _atom_site_type_symbol
  _atom_site_label
  _atom_site_symmetry_multiplicity
  _atom_site_fract_x
  _atom_site_fract_y
  _atom_site_fract_z
  _atom_site_occupancy
  Fe  Fe1       1.0  0.8522972464561462  0.4583496749401092  0.14128611981868744  1.0000
  H   H1        1.0  0.591086208820343  0.18664808571338654  0.5454732179641724  1.0000
  Mn  Mn1       1.0  0.3394984304904938  0.4803192019462585  0.5559030175209045  1.0000
  Mn  Mn2       1.0  0.8511358499526978  0.949840486049652  0.5448237061500549  1.0000
  Ni  Ni1       1.0  0.6481500864028931  0.3037528097629547  0.9073750972747804  1.0000
  O   O1        1.0  0.5471535921096802  0.45143055915832514  0.28136134147644043  1.0000
  Y   Y1        1.0  0.6070401072502136  0.43661567568778986  0.8586332201957704  1.0000
  Y   Y2        1.0  0.35076990723609924  0.653565526008606  0.569789707660675  1.0000
  Y   Y3        1.0  0.07841055840253831  0.44485616683959955  0.7435694932937622  1.0000
  Y   Y4        1.0  0.06830070167779922  0.12061930447816847  0.24745348095893863  1.0000
  Y   Y5        1.0  0.8306276202201843  0.45295256376266474  0.4065984785556794  1.0000
  Y   Y6        1.0  0.4931875169277191  0.9527928233146666  0.8378980159759523  1.0000
  Y   Y7        1.0  0.0792736262083054  0.9685362577438353  0.5319586396217346  1.0000
