data_image0
_chemical_formula_structural       Eu8O2
_chemical_formula_sum              "Eu8 O2"
_cell_length_a       4.123850831061617
_cell_length_b       4.20234625936667
_cell_length_c       9.18966007232666
_cell_angle_alpha    89.95814088822667
_cell_angle_beta     89.37774826686457
_cell_angle_gamma    122.17048384404657

_space_group_name_H-M_alt    "P 1"
_space_group_IT_number       1

loop_
  _space_group_symop_operation_xyz
  'x, y, z'

loop_
  _atom_site_type_symbol
  _atom_site_label
  _atom_site_symmetry_multiplicity
  _atom_site_fract_x
  _atom_site_fract_y
  _atom_site_fract_z
  _atom_site_occupancy
  Eu  Eu1       1.0  0.7887234687805176  0.45373812317848206  0.8171356916427612  1.0000
  Eu  Eu2       1.0  0.2834116816520691  0.4518248736858368  0.047524191439151764  1.0000
  Eu  Eu3       1.0  0.17229288816452026  0.5821591019630432  0.8453654646873474  1.0000
  Eu  Eu4       1.0  0.1331605762243271  0.03870212659239769  0.39379051327705383  1.0000
  Eu  Eu5       1.0  0.7828947305679321  0.6128516793251038  0.3707005977630615  1.0000
  Eu  Eu6       1.0  0.2871088683605194  0.7257935404777527  0.22903525829315186  1.0000
  Eu  Eu7       1.0  0.5462034344673157  0.7494198679924011  0.0488872155547142  1.0000
  Eu  Eu8       1.0  0.7894651293754578  0.039655111730098724  0.1436876654624939  1.0000
  O   O1        1.0  0.14692926406860352  0.511267900466919  0.07605571299791336  1.0000
  O   O2        1.0  0.2671467661857605  0.4302671551704407  0.44122615456581116  1.0000
