data_image0
_chemical_formula_structural       Eu8IO
_chemical_formula_sum              "Eu8 I1 O1"
_cell_length_a       5.151807482665066
_cell_length_b       5.0874336737764025
_cell_length_c       11.949727058410645
_cell_angle_alpha    90.09028134793247
_cell_angle_beta     90.59795510210436
_cell_angle_gamma    110.77356437420153

_space_group_name_H-M_alt    "P 1"
_space_group_IT_number       1

loop_
  _space_group_symop_operation_xyz
  'x, y, z'

loop_
  _atom_site_type_symbol
  _atom_site_label
  _atom_site_symmetry_multiplicity
  _atom_site_fract_x
  _atom_site_fract_y
  _atom_site_fract_z
  _atom_site_occupancy
  Eu  Eu1       1.0  0.8570775389671326  0.08985178917646408  0.2795240879058838  1.0000
  Eu  Eu2       1.0  0.6108410954475403  0.7049943208694458  0.46113625168800354  1.0000
  Eu  Eu3       1.0  0.3293662965297699  0.009768789634108543  0.8525150418281555  1.0000
  Eu  Eu4       1.0  0.805707573890686  0.624580442905426  0.20197637379169464  1.0000
  Eu  Eu5       1.0  0.10791470855474472  0.27663204073905945  0.0997476801276207  1.0000
  Eu  Eu6       1.0  0.7426953911781311  0.9409099817276001  0.5617822408676147  1.0000
  Eu  Eu7       1.0  0.11932355910539627  0.4471850097179413  0.17513233423233032  1.0000
  Eu  Eu8       1.0  0.1603967696428299  0.796118974685669  0.7277628779411316  1.0000
  I   I1        1.0  0.21143075823783875  0.6868253946304321  0.7410109639167786  1.0000
  O   O1        1.0  0.8477172255516052  0.008564542979001999  0.595299482345581  1.0000
