data_image0
_chemical_formula_structural       Eu8O2
_chemical_formula_sum              "Eu8 O2"
_cell_length_a       5.609316503868124
_cell_length_b       7.339468716296916
_cell_length_c       10.455398559570312
_cell_angle_alpha    74.57974805633167
_cell_angle_beta     79.95424483719428
_cell_angle_gamma    79.16546716934154

_space_group_name_H-M_alt    "P 1"
_space_group_IT_number       1

loop_
  _space_group_symop_operation_xyz
  'x, y, z'

loop_
  _atom_site_type_symbol
  _atom_site_label
  _atom_site_symmetry_multiplicity
  _atom_site_fract_x
  _atom_site_fract_y
  _atom_site_fract_z
  _atom_site_occupancy
  Eu  Eu1       1.0  0.661786675453186  7.27679580450058e-05  0.9838786721229552  1.0000
  Eu  Eu2       1.0  0.14986960589885712  0.20663277804851532  0.42928946018218994  1.0000
  Eu  Eu3       1.0  0.6536095142364502  0.7349559664726257  0.8934023380279541  1.0000
  Eu  Eu4       1.0  0.6402615308761597  0.1429365873336792  0.9859938621520995  1.0000
  Eu  Eu5       1.0  0.6549792885780334  0.6813239455223083  0.5560684204101562  1.0000
  Eu  Eu6       1.0  0.1711658537387848  0.38233351707458496  0.24452449381351468  1.0000
  Eu  Eu7       1.0  0.648613452911377  0.08937892317771912  0.9413337707519531  1.0000
  Eu  Eu8       1.0  0.15300968289375305  0.7595181465148926  0.24396330118179319  1.0000
  O   O1        1.0  0.16337884962558746  0.6521828174591064  0.6977052688598632  1.0000
  O   O2        1.0  0.14392672479152677  0.969707489013672  0.9818716645240783  1.0000
