data_image0
_chemical_formula_structural       Eu8O2
_chemical_formula_sum              "Eu8 O2"
_cell_length_a       4.720846808902783
_cell_length_b       4.485012804025495
_cell_length_c       6.484770774841309
_cell_angle_alpha    92.69766465457704
_cell_angle_beta     94.1321082364843
_cell_angle_gamma    91.00106346163312

_space_group_name_H-M_alt    "P 1"
_space_group_IT_number       1

loop_
  _space_group_symop_operation_xyz
  'x, y, z'

loop_
  _atom_site_type_symbol
  _atom_site_label
  _atom_site_symmetry_multiplicity
  _atom_site_fract_x
  _atom_site_fract_y
  _atom_site_fract_z
  _atom_site_occupancy
  Eu  Eu1       1.0  0.9781342148780823  0.12546423077583313  0.4071615934371948  1.0000
  Eu  Eu2       1.0  0.9152498841285706  0.1082945391535759  0.7201086282730103  1.0000
  Eu  Eu3       1.0  0.755831778049469  0.004344399552792311  0.20943456888198853  1.0000
  Eu  Eu4       1.0  0.42542973160743713  0.21815001964569092  0.43547821044921875  1.0000
  Eu  Eu5       1.0  0.5796319246292114  0.8462819457054138  0.30957886576652527  1.0000
  Eu  Eu6       1.0  0.5896443724632263  0.18424595892429352  0.3199002146720886  1.0000
  Eu  Eu7       1.0  0.2810889184474945  0.6045702695846558  0.0613008551299572  1.0000
  Eu  Eu8       1.0  0.020553167909383774  0.7498114705085754  0.370557963848114  1.0000
  O   O1        1.0  0.3605310618877411  0.8805407285690308  0.03075152263045311  1.0000
  O   O2        1.0  0.3101961016654968  0.34490227699279785  0.202239528298378  1.0000
