data_image0
_chemical_formula_structural       Eu8O2
_chemical_formula_sum              "Eu8 O2"
_cell_length_a       4.421601932265805
_cell_length_b       4.73516824937999
_cell_length_c       6.039028644561768
_cell_angle_alpha    91.2832022376372
_cell_angle_beta     91.82224517835779
_cell_angle_gamma    89.86582141000822

_space_group_name_H-M_alt    "P 1"
_space_group_IT_number       1

loop_
  _space_group_symop_operation_xyz
  'x, y, z'

loop_
  _atom_site_type_symbol
  _atom_site_label
  _atom_site_symmetry_multiplicity
  _atom_site_fract_x
  _atom_site_fract_y
  _atom_site_fract_z
  _atom_site_occupancy
  Eu  Eu1       1.0  0.7184200882911682  0.6335879564285278  0.7182652354240417  1.0000
  Eu  Eu2       1.0  0.42066794633865356  0.26099666953086853  0.8052363395690918  1.0000
  Eu  Eu3       1.0  0.3992348611354828  0.35650527477264404  0.6367246508598328  1.0000
  Eu  Eu4       1.0  0.16990894079208374  0.4541511535644531  0.985779345035553  1.0000
  Eu  Eu5       1.0  0.6705065369606018  0.9472426176071167  0.3325689435005188  1.0000
  Eu  Eu6       1.0  0.1614801436662674  0.8239624500274658  0.42474138736724854  1.0000
  Eu  Eu7       1.0  0.18070288002490997  0.007532522082328796  0.3026130795478821  1.0000
  Eu  Eu8       1.0  0.7288721799850464  0.023653289303183556  0.1261925846338272  1.0000
  O   O1        1.0  0.7273333668708801  0.8916035890579224  0.379664808511734  1.0000
  O   O2        1.0  0.20259328186511993  0.4532846510410309  0.41847333312034607  1.0000
