data_image0
_chemical_formula_structural       Eu7OPZn
_chemical_formula_sum              "Eu7 O1 P1 Zn1"
_cell_length_a       6.455381985805323
_cell_length_b       6.598021906805739
_cell_length_c       10.000083923339844
_cell_angle_alpha    89.84602007165796
_cell_angle_beta     89.07840628704689
_cell_angle_gamma    111.934156613634

_space_group_name_H-M_alt    "P 1"
_space_group_IT_number       1

loop_
  _space_group_symop_operation_xyz
  'x, y, z'

loop_
  _atom_site_type_symbol
  _atom_site_label
  _atom_site_symmetry_multiplicity
  _atom_site_fract_x
  _atom_site_fract_y
  _atom_site_fract_z
  _atom_site_occupancy
  Eu  Eu1       1.0  0.6708616018295288  0.8620666861534119  0.8059907555580139  1.0000
  Eu  Eu2       1.0  0.18580053746700284  0.46656265854835505  0.26675811409950256  1.0000
  Eu  Eu3       1.0  0.18434789776802063  0.01875433698296547  0.7961409687995911  1.0000
  Eu  Eu4       1.0  0.18629221618175507  0.23054444789886475  0.8709703087806702  1.0000
  Eu  Eu5       1.0  0.9727356433868408  0.03515520691871643  0.9209536910057067  1.0000
  Eu  Eu6       1.0  0.554485023021698  0.23674045503139493  0.06134743615984916  1.0000
  Eu  Eu7       1.0  0.6717431545257568  0.4402972459793091  0.33068808913230896  1.0000
  O   O1        1.0  0.46373218297958374  0.6498385667800903  0.8327260613441467  1.0000
  P   P1        1.0  0.5437149405479431  0.7581967711448669  0.34009256958961487  1.0000
  Zn  Zn1       1.0  0.09053018689155579  0.3788759112358093  0.6337632536888123  1.0000
