data_image0
_chemical_formula_structural       I2NNb3O3Sb2
_chemical_formula_sum              "I2 N1 Nb3 O3 Sb2"
_cell_length_a       6.912748734666554
_cell_length_b       6.814571370130471
_cell_length_c       7.08760929107666
_cell_angle_alpha    65.31750070486962
_cell_angle_beta     65.31512668266795
_cell_angle_gamma    61.90318810034733

_space_group_name_H-M_alt    "P 1"
_space_group_IT_number       1

loop_
  _space_group_symop_operation_xyz
  'x, y, z'

loop_
  _atom_site_type_symbol
  _atom_site_label
  _atom_site_symmetry_multiplicity
  _atom_site_fract_x
  _atom_site_fract_y
  _atom_site_fract_z
  _atom_site_occupancy
  I   I1        1.0  0.4380490183830261  0.347176730632782  0.7707300186157228  1.0000
  I   I2        1.0  0.4403561055660248  0.10020680725574493  0.4857176840305329  1.0000
  N   N1        1.0  0.8237873911857605  0.1477222442626953  0.5101946592330933  1.0000
  Nb  Nb1       1.0  0.27882978320121765  0.13897903263568878  0.5425341725349426  1.0000
  Nb  Nb2       1.0  0.4454859495162964  0.04719178006052971  0.010310639627277853  1.0000
  Nb  Nb3       1.0  0.44799694418907166  0.5307750105857849  0.9181714653968812  1.0000
  O   O1        1.0  0.1559550017118454  0.5236101150512695  0.4916885197162629  1.0000
  O   O2        1.0  0.005549444351345301  0.035412825644016266  0.4365223646163941  1.0000
  O   O3        1.0  0.6630771160125732  0.19208642840385437  0.8312556743621827  1.0000
  Sb  Sb1       1.0  0.9494258165359497  0.5371626615524292  0.2075389623641968  1.0000
  Sb  Sb2       1.0  0.44188201427459717  0.579724907875061  0.16937100887298587  1.0000
