data_image0
_chemical_formula_structural       NNb2O4PPb3
_chemical_formula_sum              "N1 Nb2 O4 P1 Pb3"
_cell_length_a       5.500698465639073
_cell_length_b       5.455494912179557
_cell_length_c       5.898721694946289
_cell_angle_alpha    10.787096203656464
_cell_angle_beta     54.52103360314001
_cell_angle_gamma    44.848403188987874

_space_group_name_H-M_alt    "P 1"
_space_group_IT_number       1

loop_
  _space_group_symop_operation_xyz
  'x, y, z'

loop_
  _atom_site_type_symbol
  _atom_site_label
  _atom_site_symmetry_multiplicity
  _atom_site_fract_x
  _atom_site_fract_y
  _atom_site_fract_z
  _atom_site_occupancy
  N   N1        1.0  0.5495178699493408  0.9595749974250795  0.09830534458160409  1.0000
  Nb  Nb1       1.0  0.7306888699531555  0.45093658566474915  0.18331959843635562  1.0000
  Nb  Nb2       1.0  0.2931032180786133  0.03961053118109691  0.7051641941070558  1.0000
  O   O1        1.0  0.1154034435749054  0.2435779124498367  0.7830198407173157  1.0000
  O   O2        1.0  0.9797235131263733  0.9847462177276611  0.2021088302135467  1.0000
  O   O3        1.0  0.26816868782043457  0.931014597415924  0.16615079343318936  1.0000
  O   O4        1.0  0.3169071078300476  0.5683214664459227  0.6302463412284852  1.0000
  P   P1        1.0  0.18376141786575317  0.48077127337455744  0.4806247651576996  1.0000
  Pb  Pb1       1.0  0.48988088965415955  0.6940804719924927  0.32759171724319464  1.0000
  Pb  Pb2       1.0  0.8385968208312988  0.5255134701728822  0.9358924627304076  1.0000
  Pb  Pb3       1.0  0.28180891275405884  0.9809839129447936  0.7261611819267273  1.0000
