data_image0
_chemical_formula_structural       Nb8OPbZr
_chemical_formula_sum              "Nb8 O1 Pb1 Zr1"
_cell_length_a       5.253001610852867
_cell_length_b       5.863087604321937
_cell_length_c       9.210580825805664
_cell_angle_alpha    93.81868363153151
_cell_angle_beta     90.43110375692686
_cell_angle_gamma    89.50515421258024

_space_group_name_H-M_alt    "P 1"
_space_group_IT_number       1

loop_
  _space_group_symop_operation_xyz
  'x, y, z'

loop_
  _atom_site_type_symbol
  _atom_site_label
  _atom_site_symmetry_multiplicity
  _atom_site_fract_x
  _atom_site_fract_y
  _atom_site_fract_z
  _atom_site_occupancy
  Nb  Nb1       1.0  0.4250073730945587  0.6228814125061035  0.4711061120033264  1.0000
  Nb  Nb2       1.0  0.9261883497238159  0.210038885474205  0.05828235670924187  1.0000
  Nb  Nb3       1.0  0.4238539338111878  0.8771274685859679  0.1864267736673355  1.0000
  Nb  Nb4       1.0  0.4225796163082123  0.12313035130500792  0.20500415563583374  1.0000
  Nb  Nb5       1.0  0.926871657371521  0.4117364883422851  0.8917048573493958  1.0000
  Nb  Nb6       1.0  0.42552700638771057  0.876393973827362  0.435536652803421  1.0000
  Nb  Nb7       1.0  0.42435142397880554  0.5828691124916077  0.9124683141708374  1.0000
  Nb  Nb8       1.0  0.9266233444213867  0.18123848736286163  0.4674459397792816  1.0000
  O   O1        1.0  0.8604793548583984  0.050416000187396996  0.29200252890586853  1.0000
  Pb  Pb1       1.0  0.4272303879261017  0.2335236072540283  0.02548842318356037  1.0000
  Zr  Zr1       1.0  0.9281339049339294  0.6822021007537842  0.3564184904098511  1.0000
