data_image0
_chemical_formula_structural       MoNb6O2SbSr
_chemical_formula_sum              "Mo1 Nb6 O2 Sb1 Sr1"
_cell_length_a       6.232936867703646
_cell_length_b       6.196348548118073
_cell_length_c       6.444370269775391
_cell_angle_alpha    63.57884338988921
_cell_angle_beta     65.85619401786491
_cell_angle_gamma    63.26896511888812

_space_group_name_H-M_alt    "P 1"
_space_group_IT_number       1

loop_
  _space_group_symop_operation_xyz
  'x, y, z'

loop_
  _atom_site_type_symbol
  _atom_site_label
  _atom_site_symmetry_multiplicity
  _atom_site_fract_x
  _atom_site_fract_y
  _atom_site_fract_z
  _atom_site_occupancy
  Mo  Mo1       1.0  0.1635088324546814  0.3960965871810913  0.7264167666435242  1.0000
  Nb  Nb1       1.0  0.661331295967102  0.38540560007095337  0.30769023299217224  1.0000
  Nb  Nb2       1.0  0.18345308303833008  0.40462398529052734  0.5185979604721069  1.0000
  Nb  Nb3       1.0  0.12582305073738098  0.7459365725517273  0.6079199910163879  1.0000
  Nb  Nb4       1.0  0.10713353753089905  0.75083327293396  0.28375083208084106  1.0000
  Nb  Nb5       1.0  0.6521804928779602  0.18102484941482544  0.10672405362129211  1.0000
  Nb  Nb6       1.0  0.15212661027908325  0.059809360653162  0.46012553572654724  1.0000
  O   O1        1.0  0.2025585174560547  0.4754946231842041  0.5077625513076782  1.0000
  O   O2        1.0  0.1268123835325241  0.48619139194488525  0.6520540714263916  1.0000
  Sb  Sb1       1.0  0.6537748575210571  0.2195686399936676  0.03851765766739845  1.0000
  Sr  Sr1       1.0  0.6530518531799316  0.10095077008008957  0.22953788936138153  1.0000
