data_image0
_chemical_formula_structural       Nb9O2
_chemical_formula_sum              "Nb9 O2"
_cell_length_a       4.753443557626187
_cell_length_b       4.906730395837683
_cell_length_c       8.52782154083252
_cell_angle_alpha    85.85987362378572
_cell_angle_beta     77.17902431990709
_cell_angle_gamma    61.777000789061525

_space_group_name_H-M_alt    "P 1"
_space_group_IT_number       1

loop_
  _space_group_symop_operation_xyz
  'x, y, z'

loop_
  _atom_site_type_symbol
  _atom_site_label
  _atom_site_symmetry_multiplicity
  _atom_site_fract_x
  _atom_site_fract_y
  _atom_site_fract_z
  _atom_site_occupancy
  Nb  Nb1       1.0  0.5461606979370117  0.3681179881095886  0.7429868578910828  1.0000
  Nb  Nb2       1.0  0.03745298087596893  0.7335394024848938  0.46728184819221497  1.0000
  Nb  Nb3       1.0  0.047895923256874084  0.015192879363894463  0.6561850905418396  1.0000
  Nb  Nb4       1.0  0.04837771877646446  0.5203770399093628  0.36825740337371826  1.0000
  Nb  Nb5       1.0  0.03767019510269165  0.3723587989807129  0.013330869376659393  1.0000
  Nb  Nb6       1.0  0.5461995005607605  0.9530261754989624  0.41130194067955017  1.0000
  Nb  Nb7       1.0  0.5378623604774475  0.16775654256343842  0.21034398674964905  1.0000
  Nb  Nb8       1.0  0.04263802245259285  0.5889897346496582  0.575665295124054  1.0000
  Nb  Nb9       1.0  0.04452655836939812  0.18438419699668884  0.07354045659303665  1.0000
  O   O1        1.0  0.5370174050331116  0.46677565574645996  0.7577154636383057  1.0000
  O   O2        1.0  0.5129082202911377  0.20850926637649536  0.25187644362449646  1.0000
