data_image0
_chemical_formula_structural       Nb11
_chemical_formula_sum              "Nb11"
_cell_length_a       4.4917251135341605
_cell_length_b       4.684722357537763
_cell_length_c       8.2424898147583
_cell_angle_alpha    85.31441670362857
_cell_angle_beta     76.86421273150225
_cell_angle_gamma    64.97367209807362

_space_group_name_H-M_alt    "P 1"
_space_group_IT_number       1

loop_
  _space_group_symop_operation_xyz
  'x, y, z'

loop_
  _atom_site_type_symbol
  _atom_site_label
  _atom_site_symmetry_multiplicity
  _atom_site_fract_x
  _atom_site_fract_y
  _atom_site_fract_z
  _atom_site_occupancy
  Nb  Nb1       1.0  0.3680397570133209  0.9749318957328796  0.5964091420173645  1.0000
  Nb  Nb2       1.0  0.8626049757003784  0.3946371078491211  0.24583549797534943  1.0000
  Nb  Nb3       1.0  0.8654617667198181  0.4911610782146454  0.5892906785011292  1.0000
  Nb  Nb4       1.0  0.3617120683193207  0.13874180614948273  0.6438433527946472  1.0000
  Nb  Nb5       1.0  0.8572683930397034  0.47473400831222534  0.6123097538948059  1.0000
  Nb  Nb6       1.0  0.9139719009399414  0.1864807903766632  0.7790312767028809  1.0000
  Nb  Nb7       1.0  0.8533166646957397  0.1136360615491867  0.15761053562164307  1.0000
  Nb  Nb8       1.0  0.36253124475479126  0.4252777695655823  0.7383579611778259  1.0000
  Nb  Nb9       1.0  0.2657470703125  0.1740720272064209  0.23286566138267517  1.0000
  Nb  Nb10      1.0  0.3633677363395691  0.3639945685863495  0.01096204575151205  1.0000
  Nb  Nb11      1.0  0.8470918536186218  0.5988641977310181  0.24725857377052307  1.0000
