data_image0
_chemical_formula_structural       Al4K3LaSY
_chemical_formula_sum              "Al4 K3 La1 S1 Y1"
_cell_length_a       6.3755591364896285
_cell_length_b       7.138364141673666
_cell_length_c       7.1955342292785645
_cell_angle_alpha    110.39730563743547
_cell_angle_beta     107.00288141737654
_cell_angle_gamma    109.04456165777376

_space_group_name_H-M_alt    "P 1"
_space_group_IT_number       1

loop_
  _space_group_symop_operation_xyz
  'x, y, z'

loop_
  _atom_site_type_symbol
  _atom_site_label
  _atom_site_symmetry_multiplicity
  _atom_site_fract_x
  _atom_site_fract_y
  _atom_site_fract_z
  _atom_site_occupancy
  Al  Al1       1.0  0.7283514738082886  0.0909307450056076  0.7765605449676513  1.0000
  Al  Al2       1.0  0.3135620653629303  0.6684792637825012  0.2194007486104965  1.0000
  Al  Al3       1.0  0.9068772792816163  0.03485916182398796  0.5826395153999329  1.0000
  Al  Al4       1.0  0.06338667869567871  0.929660975933075  0.7589462995529174  1.0000
  K   K1        1.0  0.8466750979423524  0.12708397209644318  0.245919793844223  1.0000
  K   K2        1.0  0.3861996829509735  0.39744138717651367  0.7209081649780272  1.0000
  K   K3        1.0  0.3419920802116394  0.9166450500488281  0.2644035816192627  1.0000
  La  La1       1.0  0.09922084957361223  0.3530048131942749  0.11247958987951277  1.0000
  S   S1        1.0  0.7151437401771545  0.5894102454185486  0.7525052428245543  1.0000
  Y   Y1        1.0  0.7163911461830139  0.5910122990608215  0.01813279464840895  1.0000
