data_image0
_chemical_formula_structural       Al4K5N
_chemical_formula_sum              "Al4 K5 N1"
_cell_length_a       4.787975738988262
_cell_length_b       6.796497044320823
_cell_length_c       7.505786895751953
_cell_angle_alpha    83.91466818281607
_cell_angle_beta     69.69392071778043
_cell_angle_gamma    68.6958553255322

_space_group_name_H-M_alt    "P 1"
_space_group_IT_number       1

loop_
  _space_group_symop_operation_xyz
  'x, y, z'

loop_
  _atom_site_type_symbol
  _atom_site_label
  _atom_site_symmetry_multiplicity
  _atom_site_fract_x
  _atom_site_fract_y
  _atom_site_fract_z
  _atom_site_occupancy
  Al  Al1       1.0  0.23752433061599731  0.7115451693534851  0.2995660603046417  1.0000
  Al  Al2       1.0  0.9789756536483765  0.0015064043691381812  0.7285245656967164  1.0000
  Al  Al3       1.0  0.5850315690040588  0.4708773493766784  0.28873804211616516  1.0000
  Al  Al4       1.0  0.8153467774391174  0.5219926238059998  0.43642792105674744  1.0000
  K   K1        1.0  0.980212926864624  0.48940092325210566  0.7247628569602966  1.0000
  K   K2        1.0  0.02595025487244134  0.4513188004493713  0.18709953129291534  1.0000
  K   K3        1.0  0.41029083728790283  0.8749850988388062  0.9509810209274292  1.0000
  K   K4        1.0  0.5496878027915956  0.9956339597702025  0.7528913617134094  1.0000
  K   K5        1.0  0.668061375617981  0.7162436842918396  0.002649124711751938  1.0000
  N   N1        1.0  0.3691270053386688  0.3148098587989807  0.7754284143447876  1.0000
