data_image0
_chemical_formula_structural       Al5K5
_chemical_formula_sum              "Al5 K5"
_cell_length_a       7.860602889280552
_cell_length_b       8.393743454876871
_cell_length_c       11.594325065612793
_cell_angle_alpha    93.43682761079829
_cell_angle_beta     88.01751218394872
_cell_angle_gamma    109.59817134477134

_space_group_name_H-M_alt    "P 1"
_space_group_IT_number       1

loop_
  _space_group_symop_operation_xyz
  'x, y, z'

loop_
  _atom_site_type_symbol
  _atom_site_label
  _atom_site_symmetry_multiplicity
  _atom_site_fract_x
  _atom_site_fract_y
  _atom_site_fract_z
  _atom_site_occupancy
  Al  Al1       1.0  0.39228096604347235  0.17563912272453308  0.7505952715873718  1.0000
  Al  Al2       1.0  0.6608240604400636  0.9691474437713623  0.16773949563503265  1.0000
  Al  Al3       1.0  0.47637790441513067  0.3945980668067932  0.9334439635276794  1.0000
  Al  Al4       1.0  0.5982815623283387  0.21088948845863342  0.24456730484962463  1.0000
  Al  Al5       1.0  0.3117901980876923  0.40608087182044983  0.41987428069114685  1.0000
  K   K1        1.0  0.8268591761589051  0.7724642753601074  0.9133560061454773  1.0000
  K   K2        1.0  0.5285521149635315  0.5136155486106873  0.6938075423240662  1.0000
  K   K3        1.0  0.7553600072860719  0.7251517176628113  0.36095792055130005  1.0000
  K   K4        1.0  0.4510400295257569  0.8503929376602173  0.36718907952308655  1.0000
  K   K5        1.0  0.8246722221374513  0.8427289724349976  0.7587947249412537  1.0000
