data_image0
_chemical_formula_structural       Al4K3TeTiY
_chemical_formula_sum              "Al4 K3 Te1 Ti1 Y1"
_cell_length_a       5.354767469734705
_cell_length_b       6.99425397103916
_cell_length_c       8.21359920501709
_cell_angle_alpha    107.04288283900966
_cell_angle_beta     91.08899511142982
_cell_angle_gamma    105.32622620946675

_space_group_name_H-M_alt    "P 1"
_space_group_IT_number       1

loop_
  _space_group_symop_operation_xyz
  'x, y, z'

loop_
  _atom_site_type_symbol
  _atom_site_label
  _atom_site_symmetry_multiplicity
  _atom_site_fract_x
  _atom_site_fract_y
  _atom_site_fract_z
  _atom_site_occupancy
  Al  Al1       1.0  0.919409453868866  0.7248073816299438  0.9457123279571533  1.0000
  Al  Al2       1.0  0.9937375783920288  0.3417842984199524  0.9001231789588928  1.0000
  Al  Al3       1.0  0.4103396236896515  0.6868347525596619  0.5331559777259827  1.0000
  Al  Al4       1.0  0.7031435966491699  0.6278149485588074  0.15042942762374875  1.0000
  K   K1        1.0  0.3497161567211151  0.011565239168703556  0.6905477046966553  1.0000
  K   K2        1.0  0.9033392071723938  0.33428701758384705  0.924239695072174  1.0000
  K   K3        1.0  0.8467455506324768  0.967808187007904  0.4326359033584595  1.0000
  Te  Te1       1.0  0.0958351269364357  0.7457653284072876  0.8808045387268066  1.0000
  Ti  Ti1       1.0  0.47833070158958435  0.348429799079895  0.1422010362148285  1.0000
  Y   Y1        1.0  0.3586393892765045  0.22889705002307892  0.15481990575790405  1.0000
