data_image0
_chemical_formula_structural       Al4K5Re
_chemical_formula_sum              "Al4 K5 Re1"
_cell_length_a       8.413064119546933
_cell_length_b       8.812735430567887
_cell_length_c       8.032971382141113
_cell_angle_alpha    116.39175643850706
_cell_angle_beta     100.19115462433197
_cell_angle_gamma    104.06320646656744

_space_group_name_H-M_alt    "P 1"
_space_group_IT_number       1

loop_
  _space_group_symop_operation_xyz
  'x, y, z'

loop_
  _atom_site_type_symbol
  _atom_site_label
  _atom_site_symmetry_multiplicity
  _atom_site_fract_x
  _atom_site_fract_y
  _atom_site_fract_z
  _atom_site_occupancy
  Al  Al1       1.0  0.3381091058254242  0.6839750409126282  0.41356828808784485  1.0000
  Al  Al2       1.0  0.5670319199562073  0.589821457862854  0.9322518706321716  1.0000
  Al  Al3       1.0  0.5178058743476868  0.8877936005592347  0.03861570730805397  1.0000
  Al  Al4       1.0  0.11114884912967687  0.7938495278358461  0.6695923805236816  1.0000
  K   K1        1.0  0.10744064301252368  0.47844856977462774  0.14051862061023712  1.0000
  K   K2        1.0  0.17828795313835144  0.28893354535102844  0.7333517670631409  1.0000
  K   K3        1.0  0.8449713587760925  0.43926858901977545  0.6040539145469666  1.0000
  K   K4        1.0  0.5902557969093323  0.08999144285917283  0.32494261860847473  1.0000
  K   K5        1.0  0.5774791836738586  0.25997477769851685  0.5226730704307556  1.0000
  Re  Re1       1.0  0.8457602858543397  0.023044107481837276  0.22108207643032077  1.0000
