data_image0
_chemical_formula_structural       Al6K4
_chemical_formula_sum              "Al6 K4"
_cell_length_a       5.613099079205485
_cell_length_b       6.131132090114394
_cell_length_c       8.775858879089355
_cell_angle_alpha    90.8360554007159
_cell_angle_beta     89.58893073213558
_cell_angle_gamma    111.2614931018427

_space_group_name_H-M_alt    "P 1"
_space_group_IT_number       1

loop_
  _space_group_symop_operation_xyz
  'x, y, z'

loop_
  _atom_site_type_symbol
  _atom_site_label
  _atom_site_symmetry_multiplicity
  _atom_site_fract_x
  _atom_site_fract_y
  _atom_site_fract_z
  _atom_site_occupancy
  Al  Al1       1.0  0.2537258863449096  0.8778597712516784  0.4522538185119629  1.0000
  Al  Al2       1.0  0.2675376832485199  0.6595383286476135  0.29739972949028015  1.0000
  Al  Al3       1.0  0.9607231020927429  0.2516689896583557  0.47840672731399536  1.0000
  Al  Al4       1.0  0.38685712218284607  0.04516407847404479  0.9494553208351135  1.0000
  Al  Al5       1.0  0.03664505109190941  0.5605664849281311  0.46255654096603394  1.0000
  Al  Al6       1.0  0.19144697487354279  0.11518821120262145  0.6570417881011963  1.0000
  K   K1        1.0  0.2647342085838318  0.37665307521820063  0.22697699069976807  1.0000
  K   K2        1.0  0.2958342134952545  0.5328108668327332  0.6445343494415283  1.0000
  K   K3        1.0  0.7516364455223083  0.5534979701042175  0.40901505947113037  1.0000
  K   K4        1.0  0.9684507846832275  0.757946491241455  0.6925162672996521  1.0000
