data_image0
_chemical_formula_structural       Ge3SSb2Si2Th2Tl
_chemical_formula_sum              "Ge3 S1 Sb2 Si2 Th2 Tl1"
_cell_length_a       4.741265023153671
_cell_length_b       7.044423861330036
_cell_length_c       8.150614738464355
_cell_angle_alpha    91.14352830975481
_cell_angle_beta     89.79535134557797
_cell_angle_gamma    89.86531363827304

_space_group_name_H-M_alt    "P 1"
_space_group_IT_number       1

loop_
  _space_group_symop_operation_xyz
  'x, y, z'

loop_
  _atom_site_type_symbol
  _atom_site_label
  _atom_site_symmetry_multiplicity
  _atom_site_fract_x
  _atom_site_fract_y
  _atom_site_fract_z
  _atom_site_occupancy
  Ge  Ge1       1.0  0.5965852737426758  0.9470367431640625  0.6532747149467468  1.0000
  Ge  Ge2       1.0  0.6012056469917297  0.4232582151889801  0.12183263897895813  1.0000
  Ge  Ge3       1.0  0.06923621147871017  0.9380422830581665  0.8031525015830994  1.0000
  S   S1        1.0  0.11976644396781921  0.215542733669281  0.08596368879079819  1.0000
  Sb  Sb1       1.0  0.10217246413230896  0.44615140557289124  0.7791935205459595  1.0000
  Sb  Sb2       1.0  0.6082857847213745  0.7199447751045227  0.30780014395713806  1.0000
  Si  Si1       1.0  0.619845986366272  0.9268538951873779  0.810475766658783  1.0000
  Si  Si2       1.0  0.6250365376472473  0.7019254565238953  0.7902258634567261  1.0000
  Th  Th1       1.0  0.615752100944519  0.9478662610054016  0.41423019766807556  1.0000
  Th  Th2       1.0  0.1104830652475357  0.7070625424385071  0.07702727615833282  1.0000
  Tl  Tl1       1.0  0.09322045743465424  0.048898544162511826  0.03560202941298485  1.0000
