data_image0
_chemical_formula_structural       Ge3HPbSSiTh3Tl
_chemical_formula_sum              "Ge3 H1 Pb1 S1 Si1 Th3 Tl1"
_cell_length_a       4.955951238616275
_cell_length_b       6.824064962216917
_cell_length_c       7.251705169677734
_cell_angle_alpha    117.29862216397544
_cell_angle_beta     93.94575888047683
_cell_angle_gamma    90.08163737908328

_space_group_name_H-M_alt    "P 1"
_space_group_IT_number       1

loop_
  _space_group_symop_operation_xyz
  'x, y, z'

loop_
  _atom_site_type_symbol
  _atom_site_label
  _atom_site_symmetry_multiplicity
  _atom_site_fract_x
  _atom_site_fract_y
  _atom_site_fract_z
  _atom_site_occupancy
  Ge  Ge1       1.0  0.7107114791870117  0.19177566468715668  0.013134675100445747  1.0000
  Ge  Ge2       1.0  0.702739417552948  0.09384048730134964  0.12054002285003662  1.0000
  Ge  Ge3       1.0  0.213125079870224  0.82097989320755  0.9823921322822571  1.0000
  H   H1        1.0  0.24686267971992493  0.6658903956413269  0.8277294635772705  1.0000
  Pb  Pb1       1.0  0.7331545352935791  0.590234100818634  0.43210700154304504  1.0000
  S   S1        1.0  0.23582598567008972  0.48709091544151306  0.015258917585015297  1.0000
  Si  Si1       1.0  0.7101283073425293  0.303643137216568  0.3281180262565613  1.0000
  Th  Th1       1.0  0.7125046253204346  0.5908380150794983  0.0014120049308985472  1.0000
  Th  Th2       1.0  0.2092360407114029  0.5834497809410095  0.4941861927509308  1.0000
  Th  Th3       1.0  0.7117787599563599  0.042447779327631  0.21858654916286469  1.0000
  Tl  Tl1       1.0  0.20930834114551544  0.267841637134552  0.38000965118408203  1.0000
