data_image0
_chemical_formula_structural       Ge3Si4ThTl2W
_chemical_formula_sum              "Ge3 Si4 Th1 Tl2 W1"
_cell_length_a       6.310547208142558
_cell_length_b       6.3936875255527355
_cell_length_c       6.720150470733643
_cell_angle_alpha    111.54906296713038
_cell_angle_beta     112.68526624120953
_cell_angle_gamma    104.53604378002781

_space_group_name_H-M_alt    "P 1"
_space_group_IT_number       1

loop_
  _space_group_symop_operation_xyz
  'x, y, z'

loop_
  _atom_site_type_symbol
  _atom_site_label
  _atom_site_symmetry_multiplicity
  _atom_site_fract_x
  _atom_site_fract_y
  _atom_site_fract_z
  _atom_site_occupancy
  Ge  Ge1       1.0  0.34232306480407715  0.6656546592712402  0.6322079300880432  1.0000
  Ge  Ge2       1.0  0.02125069685280323  0.7131754159927368  0.8074708580970764  1.0000
  Ge  Ge3       1.0  0.7848669290542603  0.17115266621112823  0.93914794921875  1.0000
  Si  Si1       1.0  0.2996196448802948  0.3885125517845154  0.4732592701911926  1.0000
  Si  Si2       1.0  0.4671874642372131  0.7255457043647766  0.3376043140888214  1.0000
  Si  Si3       1.0  0.9438145756721495  0.05159349367022514  0.5437315106391906  1.0000
  Si  Si4       1.0  0.8057154417037964  0.8764903545379639  0.05960502475500107  1.0000
  Th  Th1       1.0  0.2919575870037079  0.1814054697751999  0.9730404019355774  1.0000
  Tl  Tl1       1.0  0.8039126992225647  0.6772193908691406  0.7816975712776184  1.0000
  Tl  Tl2       1.0  0.32686835527420044  0.36764681339263916  0.6670727729797363  1.0000
  W   W1        1.0  0.7874525189399719  0.7042306661605835  0.29893288016319275  1.0000
