data_image0
_chemical_formula_structural       Ge3OOsSbSi2Th2Zr
_chemical_formula_sum              "Ge3 O1 Os1 Sb1 Si2 Th2 Zr1"
_cell_length_a       6.453157890546261
_cell_length_b       6.827982653141715
_cell_length_c       7.212646484375
_cell_angle_alpha    114.7306846635181
_cell_angle_beta     112.00556723695875
_cell_angle_gamma    94.80555986911037

_space_group_name_H-M_alt    "P 1"
_space_group_IT_number       1

loop_
  _space_group_symop_operation_xyz
  'x, y, z'

loop_
  _atom_site_type_symbol
  _atom_site_label
  _atom_site_symmetry_multiplicity
  _atom_site_fract_x
  _atom_site_fract_y
  _atom_site_fract_z
  _atom_site_occupancy
  Ge  Ge1       1.0  0.2519666254520416  0.5499038100242615  0.05678810551762581  1.0000
  Ge  Ge2       1.0  0.7465742826461792  0.31128621101379395  0.34597674012184143  1.0000
  Ge  Ge3       1.0  0.5075268149375916  0.1396915465593338  0.7698093056678772  1.0000
  O   O1        1.0  0.994210958480835  0.888617753982544  0.8466110825538635  1.0000
  Os  Os1       1.0  0.002674531890079379  0.2702842056751251  0.8536454439163208  1.0000
  Sb  Sb1       1.0  0.5380858182907104  0.5206974744796753  0.5696206092834473  1.0000
  Si  Si1       1.0  0.9905094504356384  0.5723615288734436  0.5034773349761963  1.0000
  Si  Si2       1.0  0.5303016304969788  0.7583996057510376  0.16743515431880956  1.0000
  Th  Th1       1.0  0.009633147157728672  0.06127915903925896  0.06169487163424492  1.0000
  Th  Th2       1.0  0.255232572555542  0.5933729410171509  0.6521641612052917  1.0000
  Zr  Zr1       1.0  0.050702109932899475  0.11223845183849335  0.3423989415168762  1.0000
