data_image0
_chemical_formula_structural       Ge6Os5
_chemical_formula_sum              "Ge6 Os5"
_cell_length_a       4.9969587058384
_cell_length_b       7.749573724819018
_cell_length_c       6.971645832061768
_cell_angle_alpha    126.61622791730818
_cell_angle_beta     84.15811590376038
_cell_angle_gamma    95.13077233408967

_space_group_name_H-M_alt    "P 1"
_space_group_IT_number       1

loop_
  _space_group_symop_operation_xyz
  'x, y, z'

loop_
  _atom_site_type_symbol
  _atom_site_label
  _atom_site_symmetry_multiplicity
  _atom_site_fract_x
  _atom_site_fract_y
  _atom_site_fract_z
  _atom_site_occupancy
  Ge  Ge1       1.0  0.5647773742675781  0.32585832476615906  0.612119197845459  1.0000
  Ge  Ge2       1.0  0.055203355848789215  0.9491872787475587  0.16410253942012773  1.0000
  Ge  Ge3       1.0  0.044698692858219154  0.9634883403778077  0.9617753028869628  1.0000
  Ge  Ge4       1.0  0.5311006903648376  0.45969811081886297  0.9427466988563538  1.0000
  Ge  Ge5       1.0  0.5535101294517517  0.4735053479671479  0.4602304399013519  1.0000
  Ge  Ge6       1.0  0.07105317711830139  0.9290757179260255  0.3510001301765441  1.0000
  Os  Os1       1.0  0.564440131187439  0.8341194987297058  0.5980531573295593  1.0000
  Os  Os2       1.0  0.05519009754061699  0.195656880736351  0.5646859407424927  1.0000
  Os  Os3       1.0  0.5588871240615845  0.36714139580726624  0.34998124837875366  1.0000
  Os  Os4       1.0  0.05430368706583977  0.5155234932899475  0.5539517998695374  1.0000
  Os  Os5       1.0  0.5533829927444458  0.3953619599342346  0.19030846655368802  1.0000
