data_image0
_chemical_formula_structural       Ge3Os7Sm
_chemical_formula_sum              "Ge3 Os7 Sm1"
_cell_length_a       5.530830655283705
_cell_length_b       5.726801652345792
_cell_length_c       6.971624851226807
_cell_angle_alpha    88.87845226190966
_cell_angle_beta     90.44863318863246
_cell_angle_gamma    93.47464545173946

_space_group_name_H-M_alt    "P 1"
_space_group_IT_number       1

loop_
  _space_group_symop_operation_xyz
  'x, y, z'

loop_
  _atom_site_type_symbol
  _atom_site_label
  _atom_site_symmetry_multiplicity
  _atom_site_fract_x
  _atom_site_fract_y
  _atom_site_fract_z
  _atom_site_occupancy
  Ge  Ge1       1.0  0.5529789328575134  0.23457546532154083  0.624910295009613  1.0000
  Ge  Ge2       1.0  0.21839486062526703  0.8371164202690125  0.13582362234592438  1.0000
  Ge  Ge3       1.0  0.0395410880446434  0.0878787487745285  0.6272297501564026  1.0000
  Os  Os1       1.0  0.9118101596832275  0.9569753408432007  0.45992836356163025  1.0000
  Os  Os2       1.0  0.3945946991443634  0.9386340379714966  0.3992588222026825  1.0000
  Os  Os3       1.0  0.6439608931541443  0.41659313440322876  0.7516319155693054  1.0000
  Os  Os4       1.0  0.6620727777481079  0.5723590850830078  0.47855252027511597  1.0000
  Os  Os5       1.0  0.9240627288818359  0.43254178762435913  0.44761282205581665  1.0000
  Os  Os6       1.0  0.373258501291275  0.44639021158218384  0.8426554799079895  1.0000
  Os  Os7       1.0  0.41100725531578064  0.9582119584083557  0.3705398142337799  1.0000
  Sm  Sm1       1.0  0.6725876331329346  0.9326353073120117  0.9719514846801758  1.0000
