data_image0
_chemical_formula_structural       ClIMn8
_chemical_formula_sum              "Cl1 I1 Mn8"
_cell_length_a       6.258144218374526
_cell_length_b       6.583470553056402
_cell_length_c       6.277020454406738
_cell_angle_alpha    64.82244220726469
_cell_angle_beta     60.23367488448211
_cell_angle_gamma    56.148712307788415

_space_group_name_H-M_alt    "P 1"
_space_group_IT_number       1

loop_
  _space_group_symop_operation_xyz
  'x, y, z'

loop_
  _atom_site_type_symbol
  _atom_site_label
  _atom_site_symmetry_multiplicity
  _atom_site_fract_x
  _atom_site_fract_y
  _atom_site_fract_z
  _atom_site_occupancy
  Cl  Cl1       1.0  0.38279277086257935  0.8628199100494385  0.8667392730712891  1.0000
  I   I1        1.0  0.8765791058540344  0.3391294777393341  0.5070273876190186  1.0000
  Mn  Mn1       1.0  0.37319380044937134  0.2712334096431732  0.13340771198272705  1.0000
  Mn  Mn2       1.0  0.8782671689987183  0.39269500970840454  0.24235834181308746  1.0000
  Mn  Mn3       1.0  0.8770418167114258  0.4021592438220978  0.7337434887886047  1.0000
  Mn  Mn4       1.0  0.8832982182502747  0.07204524427652359  0.5252861380577087  1.0000
  Mn  Mn5       1.0  0.8762041330337524  0.5124733448028564  0.18979617953300476  1.0000
  Mn  Mn6       1.0  0.3810584843158722  0.03345554694533348  0.9707874059677124  1.0000
  Mn  Mn7       1.0  0.8855375647544861  0.056653350591659546  0.2464720755815506  1.0000
  Mn  Mn8       1.0  0.3735625147819519  0.38277241587638855  0.668239951133728  1.0000
