data_image0
_chemical_formula_structural       CaCl2DyHMn4Pb
_chemical_formula_sum              "Ca1 Cl2 Dy1 H1 Mn4 Pb1"
_cell_length_a       5.239714324313735
_cell_length_b       5.018505642691739
_cell_length_c       7.776418209075928
_cell_angle_alpha    83.411963330891
_cell_angle_beta     65.32858334671596
_cell_angle_gamma    49.25724498604753

_space_group_name_H-M_alt    "P 1"
_space_group_IT_number       1

loop_
  _space_group_symop_operation_xyz
  'x, y, z'

loop_
  _atom_site_type_symbol
  _atom_site_label
  _atom_site_symmetry_multiplicity
  _atom_site_fract_x
  _atom_site_fract_y
  _atom_site_fract_z
  _atom_site_occupancy
  Ca  Ca1       1.0  0.0403396375477314  0.15641848742961884  0.5345295667648315  1.0000
  Cl  Cl1       1.0  0.5555447340011597  0.1371818482875824  0.2808607518672943  1.0000
  Cl  Cl2       1.0  0.03969276323914528  0.17004510760307312  0.7572271227836609  1.0000
  Dy  Dy1       1.0  0.053939998149871826  0.9831951856613159  0.6424980163574219  1.0000
  H   H1        1.0  0.5800649523735046  0.3087557256221771  0.5395942330360413  1.0000
  Mn  Mn1       1.0  0.8523324131965637  0.938962459564209  0.9115539789199829  1.0000
  Mn  Mn2       1.0  0.45292890071868896  0.0019441212061792612  0.983672320842743  1.0000
  Mn  Mn3       1.0  0.4486410319805145  0.6370447278022766  0.5311571955680847  1.0000
  Mn  Mn4       1.0  0.04435437172651291  0.08996950089931488  0.10193279385566711  1.0000
  Pb  Pb1       1.0  0.47837454080581665  0.5113673806190491  0.16446268558502197  1.0000
