data_image0
_chemical_formula_structural       Mn10
_chemical_formula_sum              "Mn10"
_cell_length_a       6.27248598681483
_cell_length_b       5.840251247672807
_cell_length_c       7.624012470245361
_cell_angle_alpha    72.58667789605842
_cell_angle_beta     66.58041400023197
_cell_angle_gamma    68.26329506845

_space_group_name_H-M_alt    "P 1"
_space_group_IT_number       1

loop_
  _space_group_symop_operation_xyz
  'x, y, z'

loop_
  _atom_site_type_symbol
  _atom_site_label
  _atom_site_symmetry_multiplicity
  _atom_site_fract_x
  _atom_site_fract_y
  _atom_site_fract_z
  _atom_site_occupancy
  Mn  Mn1       1.0  0.28674429655075073  0.5483476519584656  0.7722035646438599  1.0000
  Mn  Mn2       1.0  0.7818588018417358  0.5519645810127258  0.23495881259441376  1.0000
  Mn  Mn3       1.0  0.31272464990615845  0.1752876341342926  0.10268566757440567  1.0000
  Mn  Mn4       1.0  0.6232410073280334  0.27048537135124207  0.15366758406162262  1.0000
  Mn  Mn5       1.0  0.29857587814331055  0.3558514416217804  0.9073082208633423  1.0000
  Mn  Mn6       1.0  0.2903963327407837  0.04658009484410286  0.8756237626075745  1.0000
  Mn  Mn7       1.0  0.8006397485733032  0.3297530710697174  0.7965667247772217  1.0000
  Mn  Mn8       1.0  0.809839129447937  0.9316369295120239  0.021506885066628456  1.0000
  Mn  Mn9       1.0  0.8030250668525696  0.8266058564186096  0.2826301157474518  1.0000
  Mn  Mn10      1.0  0.27936795353889465  0.5828268527984619  0.8723024129867554  1.0000
