data_image0
_chemical_formula_structural       Mn9Sn
_chemical_formula_sum              "Mn9 Sn1"
_cell_length_a       5.611640184040941
_cell_length_b       5.940858514801466
_cell_length_c       6.605916976928711
_cell_angle_alpha    66.62759337369586
_cell_angle_beta     59.021292750489614
_cell_angle_gamma    65.73652100791035

_space_group_name_H-M_alt    "P 1"
_space_group_IT_number       1

loop_
  _space_group_symop_operation_xyz
  'x, y, z'

loop_
  _atom_site_type_symbol
  _atom_site_label
  _atom_site_symmetry_multiplicity
  _atom_site_fract_x
  _atom_site_fract_y
  _atom_site_fract_z
  _atom_site_occupancy
  Mn  Mn1       1.0  0.8983893394470215  0.6569979786872864  0.02636382915079594  1.0000
  Mn  Mn2       1.0  0.8008325695991516  0.346126914024353  0.5437811017036438  1.0000
  Mn  Mn3       1.0  0.38390737771987915  0.2794555127620697  0.4973475635051728  1.0000
  Mn  Mn4       1.0  0.6406249403953552  0.4013284742832184  0.5603243708610535  1.0000
  Mn  Mn5       1.0  0.8983790278434753  0.5245745778083801  0.14860306680202484  1.0000
  Mn  Mn6       1.0  0.8891682624816895  0.3149431645870209  0.5273456573486328  1.0000
  Mn  Mn7       1.0  0.400373637676239  0.5178180932998657  0.34875273704528814  1.0000
  Mn  Mn8       1.0  0.3631652891635895  0.8248783946037292  0.7712306380271913  1.0000
  Mn  Mn9       1.0  0.3880823850631714  0.1649675965309143  0.6226569414138794  1.0000
  Sn  Sn1       1.0  0.6397183537483215  0.5751981139183044  0.5263292193412781  1.0000
