data_image0
_chemical_formula_structural       CaPd3VW2Y3
_chemical_formula_sum              "Ca1 Pd3 V1 W2 Y3"
_cell_length_a       3.969863988775118
_cell_length_b       6.550893108205792
_cell_length_c       9.241469383239746
_cell_angle_alpha    70.52559746875006
_cell_angle_beta     77.15686438836644
_cell_angle_gamma    72.0327664547534

_space_group_name_H-M_alt    "P 1"
_space_group_IT_number       1

loop_
  _space_group_symop_operation_xyz
  'x, y, z'

loop_
  _atom_site_type_symbol
  _atom_site_label
  _atom_site_symmetry_multiplicity
  _atom_site_fract_x
  _atom_site_fract_y
  _atom_site_fract_z
  _atom_site_occupancy
  Ca  Ca1       1.0  0.287783682346344  0.6865718364715576  0.5360850095748901  1.0000
  Pd  Pd1       1.0  0.6098453998565674  0.9001807570457458  0.6908867955207825  1.0000
  Pd  Pd2       1.0  0.6989520788192749  0.041242245584726334  0.34493547677993774  1.0000
  Pd  Pd3       1.0  0.47213470935821533  0.8548015356063843  0.9739916324615479  1.0000
  V   V1        1.0  0.6407499313354492  0.4163215756416321  0.10004543513059616  1.0000
  W   W1        1.0  0.24922612309455872  0.17592157423496246  0.13454554975032806  1.0000
  W   W2        1.0  0.1472863256931305  0.6060651540756226  0.8936243653297424  1.0000
  Y   Y1        1.0  0.87678062915802  0.19517378509044647  0.8405895233154298  1.0000
  Y   Y2        1.0  0.9438526034355164  0.6933014988899231  0.21378538012504578  1.0000
  Y   Y3        1.0  0.03673990070819855  0.23432859778404236  0.4734417200088501  1.0000
