data_image0
_chemical_formula_structural       CaPd4VW2Y2
_chemical_formula_sum              "Ca1 Pd4 V1 W2 Y2"
_cell_length_a       3.797754557304523
_cell_length_b       7.4436605209645546
_cell_length_c       8.68284797668457
_cell_angle_alpha    67.09240390868656
_cell_angle_beta     77.24282257746167
_cell_angle_gamma    75.03596111152966

_space_group_name_H-M_alt    "P 1"
_space_group_IT_number       1

loop_
  _space_group_symop_operation_xyz
  'x, y, z'

loop_
  _atom_site_type_symbol
  _atom_site_label
  _atom_site_symmetry_multiplicity
  _atom_site_fract_x
  _atom_site_fract_y
  _atom_site_fract_z
  _atom_site_occupancy
  Ca  Ca1       1.0  0.7688907384872437  0.9279161691665649  0.2814466059207916  1.0000
  Pd  Pd1       1.0  0.6616063117980957  0.7613749504089355  0.7096039056777953  1.0000
  Pd  Pd2       1.0  0.09671095758676529  0.0028340816497802734  0.5680953860282898  1.0000
  Pd  Pd3       1.0  0.4978054463863373  0.6051976680755615  0.1812137067317963  1.0000
  Pd  Pd4       1.0  0.7710033059120178  0.3518374562263489  0.8786802887916565  1.0000
  V   V1        1.0  0.09150820970535278  0.6652660369873047  0.9425276517868042  1.0000
  W   W1        1.0  0.20160891115665436  0.29563623666763306  0.10188607126474382  1.0000
  W   W2        1.0  0.009426483884453773  0.4055701494216919  0.3722563087940216  1.0000
  Y   Y1        1.0  0.32635053992271423  0.5538176894187927  0.5869999527931213  1.0000
  Y   Y2        1.0  0.4359273612499237  0.015932699665427208  0.8859658241271972  1.0000
