data_image0
_chemical_formula_structural       CCaCuP2PdSnWYZr
_chemical_formula_sum              "C1 Ca1 Cu1 P2 Pd1 Sn1 W1 Y1 Zr1"
_cell_length_a       5.665913263522531
_cell_length_b       5.733138423734039
_cell_length_c       6.493294715881348
_cell_angle_alpha    90.09944290940417
_cell_angle_beta     90.20671346115044
_cell_angle_gamma    117.6019305531961

_space_group_name_H-M_alt    "P 1"
_space_group_IT_number       1

loop_
  _space_group_symop_operation_xyz
  'x, y, z'

loop_
  _atom_site_type_symbol
  _atom_site_label
  _atom_site_symmetry_multiplicity
  _atom_site_fract_x
  _atom_site_fract_y
  _atom_site_fract_z
  _atom_site_occupancy
  C   C1        1.0  0.9757566452026367  0.9619361758232117  0.47976329922676086  1.0000
  Ca  Ca1       1.0  0.5000897645950317  0.05253951624035835  0.6437652707099916  1.0000
  Cu  Cu1       1.0  0.024430235847830772  0.6600973010063171  0.34102746844291687  1.0000
  P   P1        1.0  0.7022403478622437  0.3981381058692932  0.038557056337594986  1.0000
  P   P2        1.0  0.40490254759788513  0.5485206246376038  0.4831603169441223  1.0000
  Pd  Pd1       1.0  0.2829025685787201  0.1622498780488968  0.2616381347179413  1.0000
  Sn  Sn1       1.0  0.14723153412342072  0.8297421336174011  0.9840902090072632  1.0000
  W   W1        1.0  0.811905562877655  0.7042367458343506  0.7125800848007202  1.0000
  Y   Y1        1.0  0.14023107290267944  0.33593669533729553  0.8400555849075317  1.0000
  Zr  Zr1       1.0  0.643693745136261  0.8834327459335327  0.1754239648580551  1.0000
