data_image0
_chemical_formula_structural       LiN3RhTbTiTl5
_chemical_formula_sum              "Li1 N3 Rh1 Tb1 Ti1 Tl5"
_cell_length_a       6.543471836774269
_cell_length_b       6.926558677595427
_cell_length_c       6.7861857414245605
_cell_angle_alpha    62.04695485634516
_cell_angle_beta     61.49311352236088
_cell_angle_gamma    58.70168792415512

_space_group_name_H-M_alt    "P 1"
_space_group_IT_number       1

loop_
  _space_group_symop_operation_xyz
  'x, y, z'

loop_
  _atom_site_type_symbol
  _atom_site_label
  _atom_site_symmetry_multiplicity
  _atom_site_fract_x
  _atom_site_fract_y
  _atom_site_fract_z
  _atom_site_occupancy
  Li  Li1       1.0  0.7050755023956299  0.5922871828079224  0.38391137123107905  1.0000
  N   N1        1.0  0.3692325949668884  0.02829688787460327  0.3949222564697265  1.0000
  N   N2        1.0  0.9567047953605652  0.6297193169593811  0.17462037503719327  1.0000
  N   N3        1.0  0.48519662022590637  0.2730584740638733  0.09355694800615309  1.0000
  Rh  Rh1       1.0  0.8372465968132019  0.7715803980827332  0.9281240105628966  1.0000
  Tb  Tb1       1.0  0.48312926292419434  0.505034863948822  0.9409427642822265  1.0000
  Ti  Ti1       1.0  0.3498271405696869  0.5459287762641907  0.8047830462455748  1.0000
  Tl  Tl1       1.0  0.7163856029510498  0.273754358291626  0.09542108327150343  1.0000
  Tl  Tl2       1.0  0.19962406158447266  0.7934542894363403  0.6842921376228331  1.0000
  Tl  Tl3       1.0  0.14599229395389557  0.08708509057760239  0.8791849017143248  1.0000
  Tl  Tl4       1.0  0.7194548845291138  0.5336312055587769  0.6077222228050232  1.0000
  Tl  Tl5       1.0  0.7170276045799255  0.7883718013763428  0.11825234442949294  1.0000
