data_image0
_chemical_formula_structural       N4RuSrTi2Tl4
_chemical_formula_sum              "N4 Ru1 Sr1 Ti2 Tl4"
_cell_length_a       6.751497556158158
_cell_length_b       7.020837731571237
_cell_length_c       6.867836952209473
_cell_angle_alpha    66.68525508217759
_cell_angle_beta     61.95981355751353
_cell_angle_gamma    62.850916724481294

_space_group_name_H-M_alt    "P 1"
_space_group_IT_number       1

loop_
  _space_group_symop_operation_xyz
  'x, y, z'

loop_
  _atom_site_type_symbol
  _atom_site_label
  _atom_site_symmetry_multiplicity
  _atom_site_fract_x
  _atom_site_fract_y
  _atom_site_fract_z
  _atom_site_occupancy
  N   N1        1.0  0.008580852299928665  0.5365960597991943  0.5740821361541748  1.0000
  N   N2        1.0  0.5085814595222473  0.15635550022125244  0.5459925532341003  1.0000
  N   N3        1.0  0.3274290859699249  0.17486177384853363  0.8319000005722046  1.0000
  N   N4        1.0  0.32599765062332153  0.5522919297218323  0.18050909042358398  1.0000
  Ru  Ru1       1.0  0.5634222626686096  0.06513518840074539  0.07274216413497925  1.0000
  Sr  Sr1       1.0  0.25107020139694214  0.3000166416168213  0.08203393220901489  1.0000
  Ti  Ti1       1.0  0.9926963448524475  0.6907725930213928  0.5745352506637573  1.0000
  Ti  Ti2       1.0  0.800426721572876  0.04609548673033714  0.8218486905097963  1.0000
  Tl  Tl1       1.0  0.7918936014175415  0.30226945877075195  0.5739462375640869  1.0000
  Tl  Tl2       1.0  0.9959173202514648  0.8070055246353149  0.06159889325499534  1.0000
  Tl  Tl3       1.0  0.5478625297546387  0.9274283647537231  0.07017283141613007  1.0000
  Tl  Tl4       1.0  0.26417917013168335  0.6779014468193054  0.8111135959625244  1.0000
