data_image0
_chemical_formula_structural       BrRhSr5TbTe2Tl2
_chemical_formula_sum              "Br1 Rh1 Sr5 Tb1 Te2 Tl2"
_cell_length_a       7.6065172732629245
_cell_length_b       7.708508441172673
_cell_length_c       8.072372436523438
_cell_angle_alpha    62.36724771294981
_cell_angle_beta     62.73179235307591
_cell_angle_gamma    63.576396708893526

_space_group_name_H-M_alt    "P 1"
_space_group_IT_number       1

loop_
  _space_group_symop_operation_xyz
  'x, y, z'

loop_
  _atom_site_type_symbol
  _atom_site_label
  _atom_site_symmetry_multiplicity
  _atom_site_fract_x
  _atom_site_fract_y
  _atom_site_fract_z
  _atom_site_occupancy
  Br  Br1       1.0  0.049061596393585205  0.7053707242012024  0.8086058497428894  1.0000
  Rh  Rh1       1.0  0.24027867615222934  0.38254922628402716  0.19647450745105743  1.0000
  Sr  Sr1       1.0  0.7904030084609985  0.3403480350971222  0.1239341646432876  1.0000
  Sr  Sr2       1.0  0.3024784028530121  0.3471527099609375  0.35975009202957153  1.0000
  Sr  Sr3       1.0  0.31206393241882324  0.34307268261909485  0.9555010795593262  1.0000
  Sr  Sr4       1.0  0.8021408319473268  0.8541057109832765  0.6062641739845275  1.0000
  Sr  Sr5       1.0  0.7494547963142395  0.6355437636375427  0.16867923736572266  1.0000
  Tb  Tb1       1.0  0.4158421158790589  0.06599657982587814  0.7311906218528748  1.0000
  Te  Te1       1.0  0.2860451340675354  0.8541634082794191  0.277643620967865  1.0000
  Te  Te2       1.0  0.2943359315395355  0.8470445275306703  0.5953155755996704  1.0000
  Tl  Tl1       1.0  0.2843494117259979  0.34871917963027954  0.6292089819908142  1.0000
  Tl  Tl2       1.0  0.7942284345626831  0.358720600605011  0.6161618828773499  1.0000
