data_image0
_chemical_formula_structural       CeInSr8Tl2
_chemical_formula_sum              "Ce1 In1 Sr8 Tl2"
_cell_length_a       7.486952312322042
_cell_length_b       8.336708790124346
_cell_length_c       8.42225456237793
_cell_angle_alpha    73.08282035684955
_cell_angle_beta     68.11667660909889
_cell_angle_gamma    65.52673998114174

_space_group_name_H-M_alt    "P 1"
_space_group_IT_number       1

loop_
  _space_group_symop_operation_xyz
  'x, y, z'

loop_
  _atom_site_type_symbol
  _atom_site_label
  _atom_site_symmetry_multiplicity
  _atom_site_fract_x
  _atom_site_fract_y
  _atom_site_fract_z
  _atom_site_occupancy
  Ce  Ce1       1.0  0.8427504897117615  0.7391406893730164  0.802786648273468  1.0000
  In  In1       1.0  0.08727816492319107  0.9858412146568298  0.5535283088684082  1.0000
  Sr  Sr1       1.0  0.34631088376045227  0.5246289968490601  0.00018131732940673828  1.0000
  Sr  Sr2       1.0  0.6478269696235657  0.7373437285423279  0.8522831201553345  1.0000
  Sr  Sr3       1.0  0.8114660978317261  0.7853580713272095  0.34698623418807983  1.0000
  Sr  Sr4       1.0  0.19064992666244507  0.7410594820976257  0.44321712851524353  1.0000
  Sr  Sr5       1.0  0.568573534488678  0.748130202293396  0.47236350178718567  1.0000
  Sr  Sr6       1.0  0.33927470445632935  0.23608636856079102  0.7792666554450989  1.0000
  Sr  Sr7       1.0  0.07068262249231339  0.24550653994083405  0.8374650478363037  1.0000
  Sr  Sr8       1.0  0.6905630826950073  0.23778043687343597  0.5755355954170227  1.0000
  Tl  Tl1       1.0  0.5901094079017639  0.48603329062461853  0.2944853603839874  1.0000
  Tl  Tl2       1.0  0.08277630060911179  0.4831298589706421  0.017962254583835602  1.0000
