data_image0
_chemical_formula_structural       BrMgRhSr7TeTl
_chemical_formula_sum              "Br1 Mg1 Rh1 Sr7 Te1 Tl1"
_cell_length_a       6.848467009634036
_cell_length_b       7.132339712678956
_cell_length_c       7.976436614990234
_cell_angle_alpha    66.9514932830323
_cell_angle_beta     65.7756028700017
_cell_angle_gamma    62.49065906933381

_space_group_name_H-M_alt    "P 1"
_space_group_IT_number       1

loop_
  _space_group_symop_operation_xyz
  'x, y, z'

loop_
  _atom_site_type_symbol
  _atom_site_label
  _atom_site_symmetry_multiplicity
  _atom_site_fract_x
  _atom_site_fract_y
  _atom_site_fract_z
  _atom_site_occupancy
  Br  Br1       1.0  0.14752326905727386  0.02902260795235634  0.6680206656455995  1.0000
  Mg  Mg1       1.0  0.8507470488548279  0.9819961786270142  0.6355721354484559  1.0000
  Rh  Rh1       1.0  0.18257923424243927  0.4461394250392914  0.6231478452682496  1.0000
  Sr  Sr1       1.0  0.9766418337821959  0.11761335283517838  0.4030116796493531  1.0000
  Sr  Sr2       1.0  0.7195926904678345  0.7232081890106201  0.13442111015319827  1.0000
  Sr  Sr3       1.0  0.25827303528785706  0.5306925773620605  0.8967362642288209  1.0000
  Sr  Sr4       1.0  0.2390617877244949  0.6504697799682617  0.3394292891025543  1.0000
  Sr  Sr5       1.0  0.265798419713974  0.9000373482704163  0.874963402748108  1.0000
  Sr  Sr6       1.0  0.7370226979255676  0.34161242842674255  0.988147258758545  1.0000
  Sr  Sr7       1.0  0.7252019643783569  0.3399331569671631  0.6304695010185243  1.0000
  Te  Te1       1.0  0.24018171429634091  0.8322926759719849  0.11190592497587205  1.0000
  Tl  Tl1       1.0  0.7308250665664673  0.3272581100463867  0.6377587318420411  1.0000
