data_image0
_chemical_formula_structural       Rh3Sr3Ti2Tl4
_chemical_formula_sum              "Rh3 Sr3 Ti2 Tl4"
_cell_length_a       6.844025267745344
_cell_length_b       7.256039221832449
_cell_length_c       7.190412521362305
_cell_angle_alpha    62.518994459425194
_cell_angle_beta     60.26363083239879
_cell_angle_gamma    60.87984864976194

_space_group_name_H-M_alt    "P 1"
_space_group_IT_number       1

loop_
  _space_group_symop_operation_xyz
  'x, y, z'

loop_
  _atom_site_type_symbol
  _atom_site_label
  _atom_site_symmetry_multiplicity
  _atom_site_fract_x
  _atom_site_fract_y
  _atom_site_fract_z
  _atom_site_occupancy
  Rh  Rh1       1.0  0.42822566628456116  0.9532976746559143  0.6013086438179016  1.0000
  Rh  Rh2       1.0  0.8870218992233276  0.9637433886528015  0.9444462060928345  1.0000
  Rh  Rh3       1.0  0.3997775614261627  0.7282269597053528  0.13733862340450287  1.0000
  Sr  Sr1       1.0  0.5795553922653198  0.11831408739089966  0.4838460683822632  1.0000
  Sr  Sr2       1.0  0.23782142996788025  0.5761163830757141  0.30881497263908386  1.0000
  Sr  Sr3       1.0  0.10046295076608658  0.9504331350326538  0.5237212181091309  1.0000
  Ti  Ti1       1.0  0.7461269497871399  0.3944200575351715  0.814887285232544  1.0000
  Ti  Ti2       1.0  0.4216918349266052  0.7436652779579163  0.32458367943763733  1.0000
  Tl  Tl1       1.0  0.7801089286804199  0.5719372034072876  0.2600564658641815  1.0000
  Tl  Tl2       1.0  0.25105664134025574  0.8886309266090393  0.9550933241844177  1.0000
  Tl  Tl3       1.0  0.42932575941085815  0.3397102952003479  0.14139804244041443  1.0000
  Tl  Tl4       1.0  0.7937954664230347  0.9030176401138306  0.4989270269870758  1.0000
