data_image0
_chemical_formula_structural       ClCoFMn6Zn
_chemical_formula_sum              "Cl1 Co1 F1 Mn6 Zn1"
_cell_length_a       5.822680869604246
_cell_length_b       6.089082060137542
_cell_length_c       6.1857733726501465
_cell_angle_alpha    62.02803134206696
_cell_angle_beta     60.854614350024605
_cell_angle_gamma    61.52693949542326

_space_group_name_H-M_alt    "P 1"
_space_group_IT_number       1

loop_
  _space_group_symop_operation_xyz
  'x, y, z'

loop_
  _atom_site_type_symbol
  _atom_site_label
  _atom_site_symmetry_multiplicity
  _atom_site_fract_x
  _atom_site_fract_y
  _atom_site_fract_z
  _atom_site_occupancy
  Cl  Cl1       1.0  0.827289879322052  0.6614351868629456  0.7066150903701782  1.0000
  Co  Co1       1.0  0.9427606463432312  0.45395779609680176  0.13090412318706512  1.0000
  F   F1        1.0  0.5417325496673584  0.7724080681800842  0.31610020995140076  1.0000
  Mn  Mn1       1.0  0.5366837382316589  0.7869077920913696  0.6291078925132751  1.0000
  Mn  Mn2       1.0  0.1606304943561554  0.8315681219100952  0.08270154893398285  1.0000
  Mn  Mn3       1.0  0.6886470913887024  0.4470233619213104  0.06404949724674225  1.0000
  Mn  Mn4       1.0  0.5376269221305847  0.953087329864502  0.8317671418190002  1.0000
  Mn  Mn5       1.0  0.17200465500354767  0.15257146954536438  0.3321208953857422  1.0000
  Mn  Mn6       1.0  0.6662785410881042  0.17036712169647217  0.06459099054336548  1.0000
  Zn  Zn1       1.0  0.8251967430114746  0.20098558068275452  0.5574132800102235  1.0000
