data_image0
_chemical_formula_structural       CoF2FeMn5Zn
_chemical_formula_sum              "Co1 F2 Fe1 Mn5 Zn1"
_cell_length_a       5.902909286836189
_cell_length_b       6.282473762872394
_cell_length_c       6.524226665496826
_cell_angle_alpha    63.84850823808644
_cell_angle_beta     62.04065081278321
_cell_angle_gamma    62.85900682858493

_space_group_name_H-M_alt    "P 1"
_space_group_IT_number       1

loop_
  _space_group_symop_operation_xyz
  'x, y, z'

loop_
  _atom_site_type_symbol
  _atom_site_label
  _atom_site_symmetry_multiplicity
  _atom_site_fract_x
  _atom_site_fract_y
  _atom_site_fract_z
  _atom_site_occupancy
  Co  Co1       1.0  0.27284491062164307  0.9515056014060974  0.9723851680755615  1.0000
  F   F1        1.0  0.3175045847892761  0.6931649446487427  0.7673450112342834  1.0000
  F   F2        1.0  0.8125500082969667  0.21562935411930084  0.9251733422279358  1.0000
  Fe  Fe1       1.0  0.007305034436285497  0.795621395111084  0.4186950623989105  1.0000
  Mn  Mn1       1.0  0.26131749153137207  0.9399783611297607  0.9458708167076111  1.0000
  Mn  Mn2       1.0  0.7991223931312562  0.7197238206863403  0.08246269077062607  1.0000
  Mn  Mn3       1.0  0.4897821247577668  0.1781637817621231  0.38495638966560364  1.0000
  Mn  Mn4       1.0  0.7476759552955627  0.2630029022693634  0.043895360082387855  1.0000
  Mn  Mn5       1.0  0.7253588438034058  0.9381661415100098  0.7809604406356812  1.0000
  Zn  Zn1       1.0  0.8016706705093385  0.44336017966270447  0.023781701922416618  1.0000
