data_image0
_chemical_formula_structural       Cl2F3Mn2RhScZn
_chemical_formula_sum              "Cl2 F3 Mn2 Rh1 Sc1 Zn1"
_cell_length_a       6.526861342156358
_cell_length_b       6.66868770411364
_cell_length_c       6.7215752601623535
_cell_angle_alpha    65.75731746593813
_cell_angle_beta     65.22616889186838
_cell_angle_gamma    65.10224216585243

_space_group_name_H-M_alt    "P 1"
_space_group_IT_number       1

loop_
  _space_group_symop_operation_xyz
  'x, y, z'

loop_
  _atom_site_type_symbol
  _atom_site_label
  _atom_site_symmetry_multiplicity
  _atom_site_fract_x
  _atom_site_fract_y
  _atom_site_fract_z
  _atom_site_occupancy
  Cl  Cl1       1.0  0.6611996293067932  0.7248255610466003  0.9239643812179565  1.0000
  Cl  Cl2       1.0  0.1377870738506317  0.3666030466556549  0.5686294436454773  1.0000
  F   F1        1.0  0.2651275098323822  0.23377248644828796  0.07304547727108002  1.0000
  F   F2        1.0  0.017262037843465805  0.5809099674224854  0.8007512092590332  1.0000
  F   F3        1.0  0.5229648947715759  0.933181643486023  0.5639645457267761  1.0000
  Mn  Mn1       1.0  0.7719796299934387  0.5836309790611267  0.09104256331920624  1.0000
  Mn  Mn2       1.0  0.7736934423446655  0.5884387493133545  0.5710586905479431  1.0000
  Rh  Rh1       1.0  0.9574670791625977  0.2143503576517105  0.5619435310363771  1.0000
  Sc  Sc1       1.0  0.328465074300766  0.8486363887786865  0.8078085780143738  1.0000
  Zn  Zn1       1.0  0.3484002351760864  0.3313465118408203  0.9345603585243225  1.0000
