data_image0
_chemical_formula_structural       Cd6DyF2Mg
_chemical_formula_sum              "Cd6 Dy1 F2 Mg1"
_cell_length_a       5.714388182384339
_cell_length_b       6.406887802497987
_cell_length_c       5.556232929229736
_cell_angle_alpha    73.08991486674621
_cell_angle_beta     69.17502059430637
_cell_angle_gamma    66.82718738803582

_space_group_name_H-M_alt    "P 1"
_space_group_IT_number       1

loop_
  _space_group_symop_operation_xyz
  'x, y, z'

loop_
  _atom_site_type_symbol
  _atom_site_label
  _atom_site_symmetry_multiplicity
  _atom_site_fract_x
  _atom_site_fract_y
  _atom_site_fract_z
  _atom_site_occupancy
  Cd  Cd1       1.0  0.8559396862983704  0.8983054161071777  0.8622702956199646  1.0000
  Cd  Cd2       1.0  0.1324625462293625  0.060257118195295334  0.5110853314399719  1.0000
  Cd  Cd3       1.0  0.12511512637138367  0.8556284308433533  0.5065125226974487  1.0000
  Cd  Cd4       1.0  0.3497733175754547  0.36127033829689026  0.9855604767799377  1.0000
  Cd  Cd5       1.0  0.6244888305664062  0.8380043506622314  0.6521390080451965  1.0000
  Cd  Cd6       1.0  0.8589163422584534  0.6203819513320923  0.14755180478096008  1.0000
  Dy  Dy1       1.0  0.38489070534706116  0.6077273488044739  0.7954228520393372  1.0000
  F   F1        1.0  0.6276400685310364  0.6104048490524292  0.09737201780080795  1.0000
  F   F2        1.0  0.8554784655570984  0.3230687379837036  0.5780290961265564  1.0000
  Mg  Mg1       1.0  0.3399783968925476  0.6094419956207275  0.28178733587265015  1.0000
