data_image0
_chemical_formula_structural       Cl2F3FeMn2SbZn
_chemical_formula_sum              "Cl2 F3 Fe1 Mn2 Sb1 Zn1"
_cell_length_a       6.739054595859321
_cell_length_b       7.0067813092347615
_cell_length_c       7.238871097564697
_cell_angle_alpha    108.30067651811035
_cell_angle_beta     103.19639844039709
_cell_angle_gamma    115.66836561005293

_space_group_name_H-M_alt    "P 1"
_space_group_IT_number       1

loop_
  _space_group_symop_operation_xyz
  'x, y, z'

loop_
  _atom_site_type_symbol
  _atom_site_label
  _atom_site_symmetry_multiplicity
  _atom_site_fract_x
  _atom_site_fract_y
  _atom_site_fract_z
  _atom_site_occupancy
  Cl  Cl1       1.0  0.4561015665531159  0.8733128309249879  0.31815350055694586  1.0000
  Cl  Cl2       1.0  0.5578435659408569  0.22584423422813418  0.15564283728599548  1.0000
  F   F1        1.0  0.4534221887588501  0.547975480556488  0.5887796878814697  1.0000
  F   F2        1.0  0.43971896171569824  0.21327963471412661  0.8771195411682129  1.0000
  F   F3        1.0  0.12271319329738617  0.09128953516483308  0.07964713126420975  1.0000
  Fe  Fe1       1.0  0.7717742919921875  0.2518393397331238  0.08664166927337646  1.0000
  Mn  Mn1       1.0  0.9427427053451538  0.5285961031913757  0.8567089438438416  1.0000
  Mn  Mn2       1.0  0.4718636870384217  0.7285040616989137  0.9062297940254211  1.0000
  Sb  Sb1       1.0  0.9502819180488586  0.8765730857849122  0.5728583335876465  1.0000
  Zn  Zn1       1.0  0.7755728960037231  0.7211644649505615  0.0932906791567803  1.0000
