data_image0
_chemical_formula_structural       Cd5F3FeMn
_chemical_formula_sum              "Cd5 F3 Fe1 Mn1"
_cell_length_a       6.0968940009865245
_cell_length_b       6.343072091183475
_cell_length_c       6.387735843658447
_cell_angle_alpha    95.8487125060212
_cell_angle_beta     90.36004351932647
_cell_angle_gamma    90.8014747542941

_space_group_name_H-M_alt    "P 1"
_space_group_IT_number       1

loop_
  _space_group_symop_operation_xyz
  'x, y, z'

loop_
  _atom_site_type_symbol
  _atom_site_label
  _atom_site_symmetry_multiplicity
  _atom_site_fract_x
  _atom_site_fract_y
  _atom_site_fract_z
  _atom_site_occupancy
  Cd  Cd1       1.0  0.003434739075601101  0.20470353960990906  0.7214738726615907  1.0000
  Cd  Cd2       1.0  0.014518454670906067  0.12137985229492188  0.7578156590461732  1.0000
  Cd  Cd3       1.0  0.7610371708869934  0.4410777688026428  0.06211654469370843  1.0000
  Cd  Cd4       1.0  0.5255263447761536  0.8012987971305847  0.7860279083251954  1.0000
  Cd  Cd5       1.0  0.4924393594264984  0.9542553424835205  0.3015558123588562  1.0000
  F   F1        1.0  0.2458677887916565  0.6914014220237732  0.4617586731910706  1.0000
  F   F2        1.0  0.4570951759815216  0.4306918680667877  0.10412637144327165  1.0000
  F   F3        1.0  0.9509599208831787  0.7122684121131897  0.9758774042129518  1.0000
  Fe  Fe1       1.0  0.4689311385154724  0.16386784613132477  0.06673460453748703  1.0000
  Mn  Mn1       1.0  0.2197767049074173  0.6802684664726257  0.48447015881538397  1.0000
