data_image0
_chemical_formula_structural       Ru2TlU2YbZr2
_chemical_formula_sum              "Ru2 Tl1 U2 Yb1 Zr2"
_cell_length_a       5.029940140635598
_cell_length_b       5.190266112110773
_cell_length_c       7.052792549133301
_cell_angle_alpha    114.56404156471172
_cell_angle_beta     91.24119388093679
_cell_angle_gamma    103.77745952295115

_space_group_name_H-M_alt    "P 1"
_space_group_IT_number       1

loop_
  _space_group_symop_operation_xyz
  'x, y, z'

loop_
  _atom_site_type_symbol
  _atom_site_label
  _atom_site_symmetry_multiplicity
  _atom_site_fract_x
  _atom_site_fract_y
  _atom_site_fract_z
  _atom_site_occupancy
  Ru  Ru1       1.0  0.9342582821846008  0.039084725081920624  0.8259197473526001  1.0000
  Ru  Ru2       1.0  0.16674593091011047  0.8089869618415833  0.034842416644096375  1.0000
  Tl  Tl1       1.0  0.1991184651851654  0.31614574790000916  0.035742614418268204  1.0000
  U   U1        1.0  0.6916934847831726  0.793725311756134  0.29444777965545654  1.0000
  U   U2        1.0  0.7128555774688721  0.47436490654945374  0.310098260641098  1.0000
  Yb  Yb1       1.0  0.2030094414949417  0.28844743967056274  0.5826393365859985  1.0000
  Zr  Zr1       1.0  0.41329142451286316  0.7117489576339722  0.7998879551887512  1.0000
  Zr  Zr2       1.0  0.6912694573402405  0.29144904017448425  0.5368916392326355  1.0000
