data_image0
_chemical_formula_structural       H2Ru4SbTl
_chemical_formula_sum              "H2 Ru4 Sb1 Tl1"
_cell_length_a       4.179835216844816
_cell_length_b       6.623718513027412
_cell_length_c       6.524595260620117
_cell_angle_alpha    119.02362718996076
_cell_angle_beta     90.15184850477478
_cell_angle_gamma    89.24787864968246

_space_group_name_H-M_alt    "P 1"
_space_group_IT_number       1

loop_
  _space_group_symop_operation_xyz
  'x, y, z'

loop_
  _atom_site_type_symbol
  _atom_site_label
  _atom_site_symmetry_multiplicity
  _atom_site_fract_x
  _atom_site_fract_y
  _atom_site_fract_z
  _atom_site_occupancy
  H   H1        1.0  0.14152789115905762  0.18649192154407504  0.8473725318908691  1.0000
  H   H2        1.0  0.6401751041412354  0.3765059411525727  0.8722888827323915  1.0000
  Ru  Ru1       1.0  0.6427488327026367  0.6184959411621094  0.3591738641262055  1.0000
  Ru  Ru2       1.0  0.6383159160614014  0.7804629802703859  0.553669810295105  1.0000
  Ru  Ru3       1.0  0.144227996468544  0.05983459204435349  0.10207360982894897  1.0000
  Ru  Ru4       1.0  0.6394389867782593  0.06395890563726425  0.7550730109214783  1.0000
  Sb  Sb1       1.0  0.13861434161663055  0.623971700668335  0.47543919086456304  1.0000
  Tl  Tl1       1.0  0.1391972452402115  0.56722491979599  0.24701137840747836  1.0000
