data_image0
_chemical_formula_structural       BrCrMo2PbRu3
_chemical_formula_sum              "Br1 Cr1 Mo2 Pb1 Ru3"
_cell_length_a       4.309185627548067
_cell_length_b       6.493992288243068
_cell_length_c       6.4514079093933105
_cell_angle_alpha    121.16991459925977
_cell_angle_beta     91.70249980046157
_cell_angle_gamma    89.61026253203572

_space_group_name_H-M_alt    "P 1"
_space_group_IT_number       1

loop_
  _space_group_symop_operation_xyz
  'x, y, z'

loop_
  _atom_site_type_symbol
  _atom_site_label
  _atom_site_symmetry_multiplicity
  _atom_site_fract_x
  _atom_site_fract_y
  _atom_site_fract_z
  _atom_site_occupancy
  Br  Br1       1.0  0.7316066026687622  0.5486162304878235  0.26541903614997864  1.0000
  Cr  Cr1       1.0  0.7373524308204651  0.5777719616889954  0.023325784131884575  1.0000
  Mo  Mo1       1.0  0.23042823374271393  0.9309111237525939  0.4517131745815277  1.0000
  Mo  Mo2       1.0  0.7290606498718262  0.4453537464141845  0.4909379482269287  1.0000
  Pb  Pb1       1.0  0.7337096333503723  0.161368265748024  0.10490536689758301  1.0000
  Ru  Ru1       1.0  0.23547737300395966  0.6753965020179749  0.8082484006881714  1.0000
  Ru  Ru2       1.0  0.2325930893421173  0.4324988722801208  0.3450694680213928  1.0000
  Ru  Ru3       1.0  0.733538806438446  0.7756745219230652  0.8252013921737671  1.0000
