data_image0
_chemical_formula_structural       BaDy3I2Sb5TbV2
_chemical_formula_sum              "Ba1 Dy3 I2 Sb5 Tb1 V2"
_cell_length_a       6.893890739816487
_cell_length_b       8.81827894852876
_cell_length_c       9.16174602508545
_cell_angle_alpha    121.69706567897234
_cell_angle_beta     90.44382596191677
_cell_angle_gamma    90.83252023836535

_space_group_name_H-M_alt    "P 1"
_space_group_IT_number       1

loop_
  _space_group_symop_operation_xyz
  'x, y, z'

loop_
  _atom_site_type_symbol
  _atom_site_label
  _atom_site_symmetry_multiplicity
  _atom_site_fract_x
  _atom_site_fract_y
  _atom_site_fract_z
  _atom_site_occupancy
  Ba  Ba1       1.0  0.4766453206539154  0.7986375689506531  0.23413453996181485  1.0000
  Dy  Dy1       1.0  0.482837051153183  0.3273486793041229  0.5518687963485718  1.0000
  Dy  Dy2       1.0  0.9648681879043579  0.6918977499008179  0.8297691345214844  1.0000
  Dy  Dy3       1.0  0.9852731823921204  0.3979949653148651  0.4977843463420868  1.0000
  I   I1        1.0  0.4841635227203369  0.11851461976766586  0.6733160018920898  1.0000
  I   I2        1.0  0.9748166799545288  0.7354035973548889  0.6708211302757263  1.0000
  Sb  Sb1       1.0  0.986631453037262  0.8332423567771912  0.29526510834693903  1.0000
  Sb  Sb2       1.0  0.9870652556419373  0.08712638914585114  0.7790783643722533  1.0000
  Sb  Sb3       1.0  0.9953741431236267  0.6358339786529541  0.2261732369661331  1.0000
  Sb  Sb4       1.0  0.4834049642086029  0.9924039244651794  0.46017974615097046  1.0000
  Sb  Sb5       1.0  0.4676956236362457  0.5372252464294434  0.07382746785879135  1.0000
  Tb  Tb1       1.0  0.48468017578125  0.518520712852478  0.7409983277320862  1.0000
  V   V1        1.0  0.9778146147727966  0.9412828087806702  0.6437224745750427  1.0000
  V   V2        1.0  0.9822067618370056  0.4033591151237488  0.005502635613083839  1.0000
