data_image0
_chemical_formula_structural       Cd3DyGeILaPbSb4Tb2
_chemical_formula_sum              "Cd3 Dy1 Ge1 I1 La1 Pb1 Sb4 Tb2"
_cell_length_a       7.35264208730016
_cell_length_b       9.146121242523282
_cell_length_c       9.515798568725586
_cell_angle_alpha    119.18198576837729
_cell_angle_beta     92.0497267497031
_cell_angle_gamma    90.93347394048449

_space_group_name_H-M_alt    "P 1"
_space_group_IT_number       1

loop_
  _space_group_symop_operation_xyz
  'x, y, z'

loop_
  _atom_site_type_symbol
  _atom_site_label
  _atom_site_symmetry_multiplicity
  _atom_site_fract_x
  _atom_site_fract_y
  _atom_site_fract_z
  _atom_site_occupancy
  Cd  Cd1       1.0  0.40057861804962164  0.14263796806335452  0.9202730059623718  1.0000
  Cd  Cd2       1.0  0.635463058948517  0.7054453492164613  0.9561564922332764  1.0000
  Cd  Cd3       1.0  0.3865565955638886  0.6685000658035279  0.5060243010520935  1.0000
  Dy  Dy1       1.0  0.896570920944214  0.5787712335586549  0.7039846777915955  1.0000
  Ge  Ge1       1.0  0.38178223371505743  0.5721697211265565  0.9184322953224182  1.0000
  I   I1        1.0  0.371824324131012  0.2946093380451203  0.3359541893005371  1.0000
  La  La1       1.0  0.8790072202682496  0.010770239867269995  0.35380157828330994  1.0000
  Pb  Pb1       1.0  0.3747058212757111  0.05548482388257981  0.13922150433063507  1.0000
  Sb  Sb1       1.0  0.874787986278534  0.4690945744514466  0.8294979333877563  1.0000
  Sb  Sb2       1.0  0.6123124957084657  0.3644766807556153  0.6306215524673462  1.0000
  Sb  Sb3       1.0  0.12023869901895524  0.8080434799194337  0.29905682802200323  1.0000
  Sb  Sb4       1.0  0.8872688412666322  0.6329851150512696  0.48785123229026794  1.0000
  Tb  Tb1       1.0  0.6631681323051454  0.6960775256156922  0.601963996887207  1.0000
  Tb  Tb2       1.0  0.37547072768211376  0.10158891230821611  0.4999465048313141  1.0000
