data_image0
_chemical_formula_structural       Cd4FHLaSb6Zn
_chemical_formula_sum              "Cd4 F1 H1 La1 Sb6 Zn1"
_cell_length_a       6.220835765805468
_cell_length_b       7.857534414210368
_cell_length_c       8.22741413116455
_cell_angle_alpha    126.24466709711568
_cell_angle_beta     90.21183752745243
_cell_angle_gamma    89.48898004270154

_space_group_name_H-M_alt    "P 1"
_space_group_IT_number       1

loop_
  _space_group_symop_operation_xyz
  'x, y, z'

loop_
  _atom_site_type_symbol
  _atom_site_label
  _atom_site_symmetry_multiplicity
  _atom_site_fract_x
  _atom_site_fract_y
  _atom_site_fract_z
  _atom_site_occupancy
  Cd  Cd1       1.0  0.714631974697113  0.06317754089832306  0.699607789516449  1.0000
  Cd  Cd2       1.0  0.21320030093193054  0.25074008107185364  0.39680203795433044  1.0000
  Cd  Cd3       1.0  0.211308553814888  0.8799671530723572  0.9422110915184021  1.0000
  Cd  Cd4       1.0  0.21855612099170685  0.6477128863334656  0.655622124671936  1.0000
  F   F1        1.0  0.4642124772071839  0.9650803804397583  0.2655716836452484  1.0000
  H   H1        1.0  0.709855318069458  0.5437177419662476  0.0049317325465381145  1.0000
  La  La1       1.0  0.7157353162765503  0.5777716040611267  0.8058133125305176  1.0000
  Sb  Sb1       1.0  0.2125367522239685  0.05053333565592766  0.1555018573999405  1.0000
  Sb  Sb2       1.0  0.210263192653656  0.8731275796890259  0.523790419101715  1.0000
  Sb  Sb3       1.0  0.7183490991592407  0.11025891453027725  0.009443028829991817  1.0000
  Sb  Sb4       1.0  0.21254529058933258  0.8399299383163452  0.21026238799095154  1.0000
  Sb  Sb5       1.0  0.7193199992179871  0.08796406537294388  0.6248450875282288  1.0000
  Sb  Sb6       1.0  0.2163497507572174  0.4994966983795166  0.08710213750600815  1.0000
  Zn  Zn1       1.0  0.7139695286750793  0.13378268480300903  0.4544100761413574  1.0000
