data_image0
_chemical_formula_structural       Ba5Cd7FK
_chemical_formula_sum              "Ba5 Cd7 F1 K1"
_cell_length_a       6.219384100118128
_cell_length_b       5.9062250980194735
_cell_length_c       13.993350982666016
_cell_angle_alpha    114.03558137795949
_cell_angle_beta     91.97598630838456
_cell_angle_gamma    95.4013233975704

_space_group_name_H-M_alt    "P 1"
_space_group_IT_number       1

loop_
  _space_group_symop_operation_xyz
  'x, y, z'

loop_
  _atom_site_type_symbol
  _atom_site_label
  _atom_site_symmetry_multiplicity
  _atom_site_fract_x
  _atom_site_fract_y
  _atom_site_fract_z
  _atom_site_occupancy
  Ba  Ba1       1.0  0.7974610328674316  0.20438124239444733  0.6893588900566101  1.0000
  Ba  Ba2       1.0  0.12110181152820587  0.5910724401473999  0.35105574131011963  1.0000
  Ba  Ba3       1.0  0.6334240436553955  0.6956280469894409  0.9692328572273254  1.0000
  Ba  Ba4       1.0  0.7140478491783142  0.7729993462562561  0.5890892744064331  1.0000
  Ba  Ba5       1.0  0.6459351778030396  0.8472205996513367  0.11036551743745804  1.0000
  Cd  Cd1       1.0  0.8583191633224487  0.023959454149007797  0.6521273851394653  1.0000
  Cd  Cd2       1.0  0.2152087688446045  0.9256874322891235  0.4917953610420227  1.0000
  Cd  Cd3       1.0  0.341151624917984  0.5186209678649902  0.04351123794913292  1.0000
  Cd  Cd4       1.0  0.6874071359634399  0.1855212152004242  0.9157074093818665  1.0000
  Cd  Cd5       1.0  0.1479901820421219  0.8182810544967651  0.15763510763645172  1.0000
  Cd  Cd6       1.0  0.12933817505836487  0.10141247510910034  0.2627599537372589  1.0000
  Cd  Cd7       1.0  0.5939031839370728  0.6488645076751709  0.27303847670555115  1.0000
  F   F1        1.0  0.580829381942749  0.3616383969783783  0.25637897849082947  1.0000
  K   K1        1.0  0.7296267747879028  0.6901479363441467  0.4668694734573364  1.0000
