data_image0
_chemical_formula_structural       Ba4Cd8Sb2
_chemical_formula_sum              "Ba4 Cd8 Sb2"
_cell_length_a       7.873285321076574
_cell_length_b       8.022290242679789
_cell_length_c       11.424222946166992
_cell_angle_alpha    97.58557856835617
_cell_angle_beta     94.94933512826611
_cell_angle_gamma    114.96700505848044

_space_group_name_H-M_alt    "P 1"
_space_group_IT_number       1

loop_
  _space_group_symop_operation_xyz
  'x, y, z'

loop_
  _atom_site_type_symbol
  _atom_site_label
  _atom_site_symmetry_multiplicity
  _atom_site_fract_x
  _atom_site_fract_y
  _atom_site_fract_z
  _atom_site_occupancy
  Ba  Ba1       1.0  0.5101773738861084  0.8228256702423096  0.7387509346008301  1.0000
  Ba  Ba2       1.0  0.9622535705566405  0.9294430613517761  0.6056684255599976  1.0000
  Ba  Ba3       1.0  0.9790093302726744  0.34996262192726135  0.8582611680030823  1.0000
  Ba  Ba4       1.0  0.5117119550704956  0.649567723274231  0.053123004734516144  1.0000
  Cd  Cd1       1.0  0.4321837723255157  0.15228953957557678  0.09539419412612915  1.0000
  Cd  Cd2       1.0  0.6188411712646484  0.6059504151344299  0.34831082820892334  1.0000
  Cd  Cd3       1.0  0.9779332280158995  0.004576096311211586  0.22594554722309113  1.0000
  Cd  Cd4       1.0  0.007124307099729804  0.7642119526863098  0.25089532136917114  1.0000
  Cd  Cd5       1.0  0.3405323326587677  0.3952110707759857  0.6128418445587158  1.0000
  Cd  Cd6       1.0  0.33625414967536926  0.2901729941368103  0.7239919304847717  1.0000
  Cd  Cd7       1.0  0.8084282279014586  0.23856709897518158  0.37714138627052307  1.0000
  Cd  Cd8       1.0  0.9666829109191893  0.08343546092510223  0.9602622389793396  1.0000
  Sb  Sb1       1.0  0.298560231924057  0.4744912087917328  0.035710934549570084  1.0000
  Sb  Sb2       1.0  0.6904141902923584  0.7343848943710327  0.8044309616088867  1.0000
