data_image0
_chemical_formula_structural       Ba7CdDyGeInLaSb2
_chemical_formula_sum              "Ba7 Cd1 Dy1 Ge1 In1 La1 Sb2"
_cell_length_a       8.330476980037671
_cell_length_b       8.315076064094905
_cell_length_c       9.554072380065918
_cell_angle_alpha    110.26036053814816
_cell_angle_beta     109.45199235892004
_cell_angle_gamma    112.54526889064954

_space_group_name_H-M_alt    "P 1"
_space_group_IT_number       1

loop_
  _space_group_symop_operation_xyz
  'x, y, z'

loop_
  _atom_site_type_symbol
  _atom_site_label
  _atom_site_symmetry_multiplicity
  _atom_site_fract_x
  _atom_site_fract_y
  _atom_site_fract_z
  _atom_site_occupancy
  Ba  Ba1       1.0  0.9794143438339233  0.9051149487495422  0.02616773545742035  1.0000
  Ba  Ba2       1.0  0.02318328619003296  0.6954677104949951  0.5857243537902833  1.0000
  Ba  Ba3       1.0  0.5410625338554382  0.41284364461898804  0.11464721709489822  1.0000
  Ba  Ba4       1.0  0.04919843748211861  0.8268423676490784  0.3229379653930665  1.0000
  Ba  Ba5       1.0  0.5398986339569092  0.6703246831893921  0.44523072242736816  1.0000
  Ba  Ba6       1.0  0.009347832761704922  0.6976873278617859  0.9098628759384155  1.0000
  Ba  Ba7       1.0  0.012764908373355865  0.6177641153335571  0.5102941989898683  1.0000
  Cd  Cd1       1.0  0.8096129298210144  0.9216155409812927  0.7276076078414918  1.0000
  Dy  Dy1       1.0  0.1496477574110031  0.6390341520309448  0.8081746697425842  1.0000
  Ge  Ge1       1.0  0.5054945349693298  0.7750598192214966  0.35771879553794866  1.0000
  In  In1       1.0  0.9954771399497986  0.7896497845649719  0.10015759617090235  1.0000
  La  La1       1.0  0.5188401937484741  0.636460542678833  0.22722394764423381  1.0000
  Sb  Sb1       1.0  0.04381169378757477  0.18744541704654694  0.3236381709575653  1.0000
  Sb  Sb2       1.0  0.40457919239997864  0.21447890996932983  0.889142632484436  1.0000
