data_image0
_chemical_formula_structural       Mn5SSc
_chemical_formula_sum              "Mn5 S1 Sc1"
_cell_length_a       5.269685808296715
_cell_length_b       5.960358424262812
_cell_length_c       6.016350269317627
_cell_angle_alpha    63.65172743604211
_cell_angle_beta     62.464862208259724
_cell_angle_gamma    64.09297680536567

_space_group_name_H-M_alt    "P 1"
_space_group_IT_number       1

loop_
  _space_group_symop_operation_xyz
  'x, y, z'

loop_
  _atom_site_type_symbol
  _atom_site_label
  _atom_site_symmetry_multiplicity
  _atom_site_fract_x
  _atom_site_fract_y
  _atom_site_fract_z
  _atom_site_occupancy
  Mn  Mn1       1.0  0.533847451210022  0.1368790715932846  0.0006009340286254883  1.0000
  Mn  Mn2       1.0  0.0161278173327446  0.1623670607805252  0.878314971923828  1.0000
  Mn  Mn3       1.0  0.7559333443641663  0.8619028329849243  0.34393560886383057  1.0000
  Mn  Mn4       1.0  0.5041581392288208  0.75347900390625  0.10403968393802643  1.0000
  Mn  Mn5       1.0  0.09650426357984543  0.20026347041130066  0.8839358091354369  1.0000
  S   S1        1.0  0.26202091574668884  0.866445004940033  0.29637470841407776  1.0000
  Sc  Sc1       1.0  0.8452178239822388  0.4002988040447235  0.5159080028533936  1.0000
