data_image0
_chemical_formula_structural       Mn4Sb3
_chemical_formula_sum              "Mn4 Sb3"
_cell_length_a       5.287288647722131
_cell_length_b       5.339936228940117
_cell_length_c       5.2947306632995605
_cell_angle_alpha    62.48355569570602
_cell_angle_beta     60.681386847271625
_cell_angle_gamma    59.8464382486976

_space_group_name_H-M_alt    "P 1"
_space_group_IT_number       1

loop_
  _space_group_symop_operation_xyz
  'x, y, z'

loop_
  _atom_site_type_symbol
  _atom_site_label
  _atom_site_symmetry_multiplicity
  _atom_site_fract_x
  _atom_site_fract_y
  _atom_site_fract_z
  _atom_site_occupancy
  Mn  Mn1       1.0  0.7143768668174744  0.273740291595459  0.8183396458625793  1.0000
  Mn  Mn2       1.0  0.12133365124464035  0.05592048913240433  0.7572212219238281  1.0000
  Mn  Mn3       1.0  0.1842852085828781  0.5968313813209534  0.3095570504665375  1.0000
  Mn  Mn4       1.0  0.17392127215862274  0.5977568626403809  0.49403417110443115  1.0000
  Sb  Sb1       1.0  0.7639077305793762  0.6010488271713257  0.7776408195495605  1.0000
  Sb  Sb2       1.0  0.033510345965623856  0.12293920665979385  0.05589069426059723  1.0000
  Sb  Sb3       1.0  0.4292769730091095  0.06526520103216171  0.5911763310432434  1.0000
