data_image0
_chemical_formula_structural       Mn4SbSc2
_chemical_formula_sum              "Mn4 Sb1 Sc2"
_cell_length_a       5.5648946547031155
_cell_length_b       6.265868709100008
_cell_length_c       5.896712303161621
_cell_angle_alpha    66.3615032133514
_cell_angle_beta     61.713483069761764
_cell_angle_gamma    63.242678373848634

_space_group_name_H-M_alt    "P 1"
_space_group_IT_number       1

loop_
  _space_group_symop_operation_xyz
  'x, y, z'

loop_
  _atom_site_type_symbol
  _atom_site_label
  _atom_site_symmetry_multiplicity
  _atom_site_fract_x
  _atom_site_fract_y
  _atom_site_fract_z
  _atom_site_occupancy
  Mn  Mn1       1.0  0.0980561301112175  0.018102049827575684  0.387033998966217  1.0000
  Mn  Mn2       1.0  0.544805645942688  0.20923571288585663  0.239837497472763  1.0000
  Mn  Mn3       1.0  0.5530494451522827  0.7043895721435547  0.8877593874931334  1.0000
  Mn  Mn4       1.0  0.09462203085422516  0.02228919230401516  0.3995187878608703  1.0000
  Sb  Sb1       1.0  0.8144597411155701  0.2986982464790344  0.9031687378883361  1.0000
  Sc  Sc1       1.0  0.4876217842102051  0.5863495469093323  0.8927848339080809  1.0000
  Sc  Sc2       1.0  0.09333845973014832  0.709158182144165  0.3877009749412536  1.0000
