data_image0
_chemical_formula_structural       OPW4
_chemical_formula_sum              "O1 P1 W4"
_cell_length_a       4.307844784600925
_cell_length_b       4.706065304763239
_cell_length_c       5.817004680633545
_cell_angle_alpha    102.35011909387639
_cell_angle_beta     112.45563278332914
_cell_angle_gamma    88.05608626648191

_space_group_name_H-M_alt    "P 1"
_space_group_IT_number       1

loop_
  _space_group_symop_operation_xyz
  'x, y, z'

loop_
  _atom_site_type_symbol
  _atom_site_label
  _atom_site_symmetry_multiplicity
  _atom_site_fract_x
  _atom_site_fract_y
  _atom_site_fract_z
  _atom_site_occupancy
  O   O1        1.0  0.10686436295509338  0.22564756870269775  0.16739505529403687  1.0000
  P   P1        1.0  0.41911211609840393  0.4637807607650757  0.10144571959972383  1.0000
  W   W1        1.0  0.5987386703491211  0.954752504825592  0.5020071864128113  1.0000
  W   W2        1.0  0.009250914677977562  0.4715879559516907  0.5907657742500305  1.0000
  W   W3        1.0  0.7398149967193604  0.7170083522796631  0.8309679627418519  1.0000
  W   W4        1.0  0.4209825098514557  0.9619236588478088  0.09803718328475954  1.0000
