data_image0
_chemical_formula_structural       OW5
_chemical_formula_sum              "O1 W5"
_cell_length_a       2.072080478238051
_cell_length_b       4.932672237537226
_cell_length_c       5.162384033203125
_cell_angle_alpha    129.03515053157508
_cell_angle_beta     87.21615294330068
_cell_angle_gamma    123.4476235424471

_space_group_name_H-M_alt    "P 1"
_space_group_IT_number       1

loop_
  _space_group_symop_operation_xyz
  'x, y, z'

loop_
  _atom_site_type_symbol
  _atom_site_label
  _atom_site_symmetry_multiplicity
  _atom_site_fract_x
  _atom_site_fract_y
  _atom_site_fract_z
  _atom_site_occupancy
  O   O1        1.0  0.6216384768486023  0.7152968645095825  0.32127457857131964  1.0000
  W   W1        1.0  0.8955445289611814  0.23420582711696605  0.4894650280475616  1.0000
  W   W2        1.0  0.8906569480895996  0.5498552322387695  0.4782955050468445  1.0000
  W   W3        1.0  0.3651387095451356  0.7314390540122987  0.12282831221818931  1.0000
  W   W4        1.0  0.015170126222073711  0.8232023715972899  0.8341805338859558  1.0000
  W   W5        1.0  0.3179336488246917  0.2313243597745895  0.5804561972618103  1.0000
