data_image0
_chemical_formula_structural       OOsW4
_chemical_formula_sum              "O1 Os1 W4"
_cell_length_a       3.2613025206515043
_cell_length_b       5.157297175309538
_cell_length_c       4.984571933746338
_cell_angle_alpha    94.15191510777903
_cell_angle_beta     89.21031326118927
_cell_angle_gamma    87.33837187268837

_space_group_name_H-M_alt    "P 1"
_space_group_IT_number       1

loop_
  _space_group_symop_operation_xyz
  'x, y, z'

loop_
  _atom_site_type_symbol
  _atom_site_label
  _atom_site_symmetry_multiplicity
  _atom_site_fract_x
  _atom_site_fract_y
  _atom_site_fract_z
  _atom_site_occupancy
  O   O1        1.0  0.0357527881860733  0.6879364252090454  0.8010104894638062  1.0000
  Os  Os1       1.0  0.786490797996521  0.3594614267349243  0.468699961900711  1.0000
  W   W1        1.0  0.5151389241218567  0.8782373666763306  0.7289919257164001  1.0000
  W   W2        1.0  0.2993500232696533  0.8653289675712585  0.22506992518901822  1.0000
  W   W3        1.0  0.4899176359176636  0.7126322388648987  0.9719524979591369  1.0000
  W   W4        1.0  0.2906881272792816  0.18525519967079163  0.1883944422006607  1.0000
