data_image0
_chemical_formula_structural       AlCeGa4GeLaPSeTb
_chemical_formula_sum              "Al1 Ce1 Ga4 Ge1 La1 P1 Se1 Tb1"
_cell_length_a       5.28500753480294
_cell_length_b       6.317738674901434
_cell_length_c       8.00324535369873
_cell_angle_alpha    89.92651877582966
_cell_angle_beta     90.38569388079122
_cell_angle_gamma    89.8177406898911

_space_group_name_H-M_alt    "P 1"
_space_group_IT_number       1

loop_
  _space_group_symop_operation_xyz
  'x, y, z'

loop_
  _atom_site_type_symbol
  _atom_site_label
  _atom_site_symmetry_multiplicity
  _atom_site_fract_x
  _atom_site_fract_y
  _atom_site_fract_z
  _atom_site_occupancy
  Al  Al1       1.0  0.57217937707901  0.4293432831764221  0.9638731479644775  1.0000
  Ce  Ce1       1.0  0.5572175979614258  0.6741653680801392  0.6363787651062012  1.0000
  Ga  Ga1       1.0  0.8178800940513611  0.9332957863807678  0.8927786350250244  1.0000
  Ga  Ga2       1.0  0.5268880724906921  0.04306844249367714  0.8546295166015625  1.0000
  Ga  Ga3       1.0  0.03536192327737808  0.7390269637107849  0.22018347680568695  1.0000
  Ga  Ga4       1.0  0.580003023147583  0.6905216574668884  0.7412421703338623  1.0000
  Ge  Ge1       1.0  0.5507116913795471  0.5449463725090027  0.048562612384557724  1.0000
  La  La1       1.0  0.06940717250108719  0.7108669877052307  0.26685917377471924  1.0000
  P   P1        1.0  0.06548362970352173  0.3182618319988251  0.2555275857448578  1.0000
  Se  Se1       1.0  0.08060605823993683  0.3315500020980835  0.8280177712440491  1.0000
  Tb  Tb1       1.0  0.052743833512067795  0.922156572341919  0.17535962164402008  1.0000
