data_image0
_chemical_formula_structural       Ce2Ga2IMgSeTbZnZr2
_chemical_formula_sum              "Ce2 Ga2 I1 Mg1 Se1 Tb1 Zn1 Zr2"
_cell_length_a       5.913476584233707
_cell_length_b       5.866566924863435
_cell_length_c       7.575666427612305
_cell_angle_alpha    92.34217425581684
_cell_angle_beta     89.02943556034599
_cell_angle_gamma    88.54900314282715

_space_group_name_H-M_alt    "P 1"
_space_group_IT_number       1

loop_
  _space_group_symop_operation_xyz
  'x, y, z'

loop_
  _atom_site_type_symbol
  _atom_site_label
  _atom_site_symmetry_multiplicity
  _atom_site_fract_x
  _atom_site_fract_y
  _atom_site_fract_z
  _atom_site_occupancy
  Ce  Ce1       1.0  0.8521000742912291  0.4379248023033142  0.32003918290138245  1.0000
  Ce  Ce2       1.0  0.8423233032226561  0.03141360357403755  0.8220102190971375  1.0000
  Ga  Ga1       1.0  0.8485847115516661  0.5963963270187378  0.12592121958732605  1.0000
  Ga  Ga2       1.0  0.34896510839462275  0.4003436267375946  0.25364673137664795  1.0000
  I   I1        1.0  0.35582983493804926  0.42792272567749023  0.05254750698804855  1.0000
  Mg  Mg1       1.0  0.35625538229942316  0.38685035705566406  0.20331212878227234  1.0000
  Se  Se1       1.0  0.8614062666893004  0.42476823925971985  0.1408071368932724  1.0000
  Tb  Tb1       1.0  0.34907457232475275  0.07644012570381165  0.6495807170867921  1.0000
  Zn  Zn1       1.0  0.8476042747497557  0.6866872310638428  0.5644245147705078  1.0000
  Zr  Zr1       1.0  0.3527121543884277  0.3025577664375305  0.30315282940864563  1.0000
  Zr  Zr2       1.0  0.3566018939018249  0.332245409488678  0.14039072394371033  1.0000
