data_image0
_chemical_formula_structural       Al3Ce3Ga4Mg
_chemical_formula_sum              "Al3 Ce3 Ga4 Mg1"
_cell_length_a       5.961493193172251
_cell_length_b       6.1100237090513145
_cell_length_c       6.361233711242676
_cell_angle_alpha    95.59815972398384
_cell_angle_beta     89.30137700425192
_cell_angle_gamma    89.34024334497462

_space_group_name_H-M_alt    "P 1"
_space_group_IT_number       1

loop_
  _space_group_symop_operation_xyz
  'x, y, z'

loop_
  _atom_site_type_symbol
  _atom_site_label
  _atom_site_symmetry_multiplicity
  _atom_site_fract_x
  _atom_site_fract_y
  _atom_site_fract_z
  _atom_site_occupancy
  Al  Al1       1.0  0.263045996427536  0.47659519314765925  0.11930055171251297  1.0000
  Al  Al2       1.0  0.2864221930503845  0.4280829429626465  0.6051127910614014  1.0000
  Al  Al3       1.0  0.2685477137565613  0.6580948829650879  0.6380428671836853  1.0000
  Ce  Ce1       1.0  0.2802640199661255  0.10860336571931839  0.7126397490501404  1.0000
  Ce  Ce2       1.0  0.7769248485565186  0.3698132038116455  0.7531585097312927  1.0000
  Ce  Ce3       1.0  0.27434849739074707  0.9616093635559081  0.8852826952934265  1.0000
  Ga  Ga1       1.0  0.7926004528999329  0.9874278306961058  0.0472753532230854  1.0000
  Ga  Ga2       1.0  0.26935774087905884  0.5470871925354004  0.35793620347976685  1.0000
  Ga  Ga3       1.0  0.7789589166641235  0.32592976093292236  0.7609081864356995  1.0000
  Ga  Ga4       1.0  0.7654317617416382  0.5677925944328308  0.057929497212171555  1.0000
  Mg  Mg1       1.0  0.7867116332054138  0.7379774451255798  0.4160919785499573  1.0000
