data_image0
_chemical_formula_structural       Al4Ce3Ga4
_chemical_formula_sum              "Al4 Ce3 Ga4"
_cell_length_a       6.073316204045722
_cell_length_b       6.786951677585683
_cell_length_c       6.844390392303467
_cell_angle_alpha    84.55986346556315
_cell_angle_beta     76.24497213767663
_cell_angle_gamma    74.23657144008284

_space_group_name_H-M_alt    "P 1"
_space_group_IT_number       1

loop_
  _space_group_symop_operation_xyz
  'x, y, z'

loop_
  _atom_site_type_symbol
  _atom_site_label
  _atom_site_symmetry_multiplicity
  _atom_site_fract_x
  _atom_site_fract_y
  _atom_site_fract_z
  _atom_site_occupancy
  Al  Al1       1.0  0.3547031283378601  0.30141741037368774  0.6438905596733093  1.0000
  Al  Al2       1.0  0.6276091933250427  0.4068393409252167  0.4825698435306549  1.0000
  Al  Al3       1.0  0.6539122462272644  0.7014113664627075  0.2915416359901428  1.0000
  Al  Al4       1.0  0.1318187415599823  0.2535363435745239  0.9383825063705444  1.0000
  Ce  Ce1       1.0  0.6278252005577087  0.8822193741798401  0.8032015562057495  1.0000
  Ce  Ce2       1.0  0.6369603872299194  0.7282543182373047  0.38643762469291687  1.0000
  Ce  Ce3       1.0  0.1447990983724594  0.6146686673164368  0.8311681747436523  1.0000
  Ga  Ga1       1.0  0.11554181575775146  0.2675313353538513  0.0750209167599678  1.0000
  Ga  Ga2       1.0  0.13867369294166565  0.05891023576259613  0.026896750554442402  1.0000
  Ga  Ga3       1.0  0.11680363863706589  0.8589581847190857  0.5089892745018005  1.0000
  Ga  Ga4       1.0  0.3794877827167511  0.5518717169761658  0.06083562597632408  1.0000
