data_image0
_chemical_formula_structural       AlGa3I2RuZnZr3
_chemical_formula_sum              "Al1 Ga3 I2 Ru1 Zn1 Zr3"
_cell_length_a       5.132073429930559
_cell_length_b       6.211647149978237
_cell_length_c       6.399037837982178
_cell_angle_alpha    116.338496647365
_cell_angle_beta     93.30780206048831
_cell_angle_gamma    91.27100655757249

_space_group_name_H-M_alt    "P 1"
_space_group_IT_number       1

loop_
  _space_group_symop_operation_xyz
  'x, y, z'

loop_
  _atom_site_type_symbol
  _atom_site_label
  _atom_site_symmetry_multiplicity
  _atom_site_fract_x
  _atom_site_fract_y
  _atom_site_fract_z
  _atom_site_occupancy
  Al  Al1       1.0  0.41069257259368896  0.3608689308166504  0.27732256054878235  1.0000
  Ga  Ga1       1.0  0.44833216071128845  0.42895588278770447  0.7441219091415405  1.0000
  Ga  Ga2       1.0  0.43504950404167175  0.9070475101470947  0.25917735695838934  1.0000
  Ga  Ga3       1.0  0.4122568666934967  0.07261484116315842  0.7244333028793335  1.0000
  I   I1        1.0  0.9080161452293396  0.8968465924263  0.616100549697876  1.0000
  I   I2        1.0  0.9389491677284241  0.31432101130485535  0.982741892337799  1.0000
  Ru  Ru1       1.0  0.43318361043930054  0.2714863419532776  0.8146826028823853  1.0000
  Zn  Zn1       1.0  0.9438231587409973  0.16138631105422974  0.7616026997566223  1.0000
  Zr  Zr1       1.0  0.9449609518051147  0.8206425905227661  0.4664686024188995  1.0000
  Zr  Zr2       1.0  0.9510055184364319  0.43872353434562683  0.8103377819061279  1.0000
  Zr  Zr3       1.0  0.4344409704208374  0.34220483899116516  0.49872285127639765  1.0000
