data_image0
_chemical_formula_structural       Ce3DyGa3MgRuSeV
_chemical_formula_sum              "Ce3 Dy1 Ga3 Mg1 Ru1 Se1 V1"
_cell_length_a       5.865638784916598
_cell_length_b       7.055943635551619
_cell_length_c       7.699224948883057
_cell_angle_alpha    121.29497694836657
_cell_angle_beta     92.73275823910922
_cell_angle_gamma    91.37386361425982

_space_group_name_H-M_alt    "P 1"
_space_group_IT_number       1

loop_
  _space_group_symop_operation_xyz
  'x, y, z'

loop_
  _atom_site_type_symbol
  _atom_site_label
  _atom_site_symmetry_multiplicity
  _atom_site_fract_x
  _atom_site_fract_y
  _atom_site_fract_z
  _atom_site_occupancy
  Ce  Ce1       1.0  0.3575606346130371  0.40046587586402893  0.49849605560302734  1.0000
  Ce  Ce2       1.0  0.8486601114273071  0.1751861572265625  0.5224331021308899  1.0000
  Ce  Ce3       1.0  0.3264109492301941  0.18302898108959198  0.5139681100845337  1.0000
  Dy  Dy1       1.0  0.8539344668388367  0.04247822239995003  0.7956135869026184  1.0000
  Ga  Ga1       1.0  0.9332652688026428  0.5139440894126892  0.23432953655719757  1.0000
  Ga  Ga2       1.0  0.8568460941314697  0.5665024518966675  0.20239844918251038  1.0000
  Ga  Ga3       1.0  0.3395647406578064  0.14455214142799377  0.328933984041214  1.0000
  Mg  Mg1       1.0  0.36798420548439026  0.4483012557029724  0.2483542263507843  1.0000
  Ru  Ru1       1.0  0.8622950315475464  0.6833727359771729  0.7322381138801575  1.0000
  Se  Se1       1.0  0.833230197429657  0.6330570578575134  0.4192656278610229  1.0000
  V   V1        1.0  0.2730339467525482  0.16569803655147552  0.3806459605693817  1.0000
