data_image0
_chemical_formula_structural       I3P6PbPtSV
_chemical_formula_sum              "I3 P6 Pb1 Pt1 S1 V1"
_cell_length_a       5.945812315511521
_cell_length_b       7.419551911174809
_cell_length_c       9.441062927246094
_cell_angle_alpha    114.27071850924277
_cell_angle_beta     90.25674423402425
_cell_angle_gamma    91.41793193033041

_space_group_name_H-M_alt    "P 1"
_space_group_IT_number       1

loop_
  _space_group_symop_operation_xyz
  'x, y, z'

loop_
  _atom_site_type_symbol
  _atom_site_label
  _atom_site_symmetry_multiplicity
  _atom_site_fract_x
  _atom_site_fract_y
  _atom_site_fract_z
  _atom_site_occupancy
  I   I1        1.0  0.6583177447319031  0.5656022429466248  0.9374839663505554  1.0000
  I   I2        1.0  0.2887455224990845  0.42819008231163025  0.7006568908691406  1.0000
  I   I3        1.0  0.8449589610099792  0.28990137577056885  0.007303809747099888  1.0000
  P   P1        1.0  0.8530531525611877  0.018937965855002403  0.2426436245441437  1.0000
  P   P2        1.0  0.7534459829330444  0.19977879524230957  0.014619777910411358  1.0000
  P   P3        1.0  0.39624863862991333  0.9156580567359924  0.8105863332748413  1.0000
  P   P4        1.0  0.4945238530635834  0.44556725025177  0.27572524547576904  1.0000
  P   P5        1.0  0.9824503660202026  0.14122362434864044  0.8457534313201904  1.0000
  P   P6        1.0  0.3766649067401886  0.5024815797805786  0.006944145075976872  1.0000
  Pb  Pb1       1.0  0.34409746527671814  0.16193972527980804  0.7267636060714722  1.0000
  Pt  Pt1       1.0  0.3704812824726105  0.9979211688041687  0.09420457482337956  1.0000
  S   S1        1.0  0.1694798618555069  0.5676109194755554  0.8596788644790649  1.0000
  V   V1        1.0  0.8813764452934265  0.5711047649383545  0.11459774523973466  1.0000
