data_image0
_chemical_formula_structural       I5P6SZr
_chemical_formula_sum              "I5 P6 S1 Zr1"
_cell_length_a       5.798137784410854
_cell_length_b       7.189871374788675
_cell_length_c       9.444198608398438
_cell_angle_alpha    90.15349589046103
_cell_angle_beta     90.77601123942587
_cell_angle_gamma    106.44215982005308

_space_group_name_H-M_alt    "P 1"
_space_group_IT_number       1

loop_
  _space_group_symop_operation_xyz
  'x, y, z'

loop_
  _atom_site_type_symbol
  _atom_site_label
  _atom_site_symmetry_multiplicity
  _atom_site_fract_x
  _atom_site_fract_y
  _atom_site_fract_z
  _atom_site_occupancy
  I   I1        1.0  0.28580838441848755  0.26337283849716187  0.5141260027885437  1.0000
  I   I2        1.0  0.6244368553161621  0.4649811387062073  0.002987429965287447  1.0000
  I   I3        1.0  0.8262308239936828  0.5592750310897827  0.42881059646606445  1.0000
  I   I4        1.0  0.3056541383266449  0.009152843616902828  0.7861478924751282  1.0000
  I   I5        1.0  0.44576108455657953  0.5397295355796814  0.7219932675361633  1.0000
  P   P1        1.0  0.031658124178647995  0.7422477006912231  0.7911306023597717  1.0000
  P   P2        1.0  0.10490798950195311  0.49144312739372253  0.3102949857711792  1.0000
  P   P3        1.0  0.8608166575431823  0.27514374256134033  0.6547049880027771  1.0000
  P   P4        1.0  0.5158329606056213  0.6994002461433411  0.3590419292449951  1.0000
  P   P5        1.0  0.33704912662506104  0.524958074092865  0.5364002585411072  1.0000
  P   P6        1.0  0.7685356140136719  0.5851226449012756  0.28502318263053894  1.0000
  S   S1        1.0  0.8246136903762816  0.5642571449279785  0.01454190630465746  1.0000
  Zr  Zr1       1.0  0.3330794870853424  0.9451721906661987  0.6780991554260254  1.0000
