data_image0
_chemical_formula_structural       Ag2Bi4P3PbS3
_chemical_formula_sum              "Ag2 Bi4 P3 Pb1 S3"
_cell_length_a       6.561855873579277
_cell_length_b       6.398658246752724
_cell_length_c       11.034936904907227
_cell_angle_alpha    97.33396226239681
_cell_angle_beta     90.86856561942093
_cell_angle_gamma    89.10484329271083

_space_group_name_H-M_alt    "P 1"
_space_group_IT_number       1

loop_
  _space_group_symop_operation_xyz
  'x, y, z'

loop_
  _atom_site_type_symbol
  _atom_site_label
  _atom_site_symmetry_multiplicity
  _atom_site_fract_x
  _atom_site_fract_y
  _atom_site_fract_z
  _atom_site_occupancy
  Ag  Ag1       1.0  0.32001587748527527  0.5815724730491638  0.8317296504974365  1.0000
  Ag  Ag2       1.0  0.3751009404659271  0.487030416727066  0.5661648511886597  1.0000
  Bi  Bi1       1.0  0.8322107791900635  0.6141661405563354  0.9288464188575745  1.0000
  Bi  Bi2       1.0  0.18975597620010376  0.26902830600738525  0.3917129337787628  1.0000
  Bi  Bi3       1.0  0.41478779911994934  0.1154537796974182  0.5264090895652771  1.0000
  Bi  Bi4       1.0  0.8314135670661926  0.8376198410987853  0.6102868914604187  1.0000
  P   P1        1.0  0.5608807802200317  0.30084577202796936  0.7186127305030823  1.0000
  P   P2        1.0  0.0867849737405777  0.46246433258056635  0.638154923915863  1.0000
  P   P3        1.0  0.32038524746894836  0.603963315486908  0.8846960663795471  1.0000
  Pb  Pb1       1.0  0.8090988397598267  0.07708105444908142  0.37192705273628235  1.0000
  S   S1        1.0  0.6258039474487305  0.853602111339569  0.10055700689554214  1.0000
  S   S2        1.0  0.3130926489830017  0.793283700942993  0.1399451345205307  1.0000
  S   S3        1.0  0.8694199323654175  0.12731604278087616  0.5348520874977112  1.0000
