data_image0
_chemical_formula_structural       Ag2Bi4HoNaPS4
_chemical_formula_sum              "Ag2 Bi4 Ho1 Na1 P1 S4"
_cell_length_a       5.913587417569756
_cell_length_b       5.686250616558877
_cell_length_c       13.5947847366333
_cell_angle_alpha    91.2797873372249
_cell_angle_beta     90.09674699905041
_cell_angle_gamma    116.86987895769994

_space_group_name_H-M_alt    "P 1"
_space_group_IT_number       1

loop_
  _space_group_symop_operation_xyz
  'x, y, z'

loop_
  _atom_site_type_symbol
  _atom_site_label
  _atom_site_symmetry_multiplicity
  _atom_site_fract_x
  _atom_site_fract_y
  _atom_site_fract_z
  _atom_site_occupancy
  Ag  Ag1       1.0  0.7143555879592896  0.7343019247055054  0.9581334590911865  1.0000
  Ag  Ag2       1.0  0.5251832008361816  0.100687675178051  0.4639240801334381  1.0000
  Bi  Bi1       1.0  0.5493208765983582  0.5502564907073975  0.48629316687583923  1.0000
  Bi  Bi2       1.0  0.07957302033901215  0.13615365326404572  0.4811980426311493  1.0000
  Bi  Bi3       1.0  0.5542671084403992  0.1051693856716156  0.5207562446594238  1.0000
  Bi  Bi4       1.0  0.04479072988033295  0.14866292476654053  0.13788823783397675  1.0000
  Ho  Ho1       1.0  0.5463250279426575  0.15086610615253448  0.5771646499633789  1.0000
  Na  Na1       1.0  0.1711694300174713  0.41907116770744324  0.8991661071777344  1.0000
  P   P1        1.0  0.9962096810340881  0.6097104549407959  0.2063136100769043  1.0000
  S   S1        1.0  0.2578935921192169  0.9980131387710571  0.21590811014175415  1.0000
  S   S2        1.0  0.3998658359050751  0.28477224707603455  0.25894254446029663  1.0000
  S   S3        1.0  0.5376968383789062  0.4097385108470917  0.30345192551612854  1.0000
  S   S4        1.0  0.4755028486251831  0.9927147626876831  0.03696680814027786  1.0000
