data_image0
_chemical_formula_structural       AsP7PbPdRbSTi
_chemical_formula_sum              "As1 P7 Pb1 Pd1 Rb1 S1 Ti1"
_cell_length_a       5.833980293392461
_cell_length_b       7.17224034642639
_cell_length_c       8.423332214355469
_cell_angle_alpha    95.34546949660529
_cell_angle_beta     89.3912972141529
_cell_angle_gamma    102.77011696885168

_space_group_name_H-M_alt    "P 1"
_space_group_IT_number       1

loop_
  _space_group_symop_operation_xyz
  'x, y, z'

loop_
  _atom_site_type_symbol
  _atom_site_label
  _atom_site_symmetry_multiplicity
  _atom_site_fract_x
  _atom_site_fract_y
  _atom_site_fract_z
  _atom_site_occupancy
  As  As1       1.0  0.016868850216269493  0.8109517097473145  0.8810874819755554  1.0000
  P   P1        1.0  0.5897170305252075  0.3869633376598358  0.7829880118370056  1.0000
  P   P2        1.0  0.6167888045310974  0.2588684558868408  0.996810257434845  1.0000
  P   P3        1.0  0.1709311306476593  0.5016295909881592  0.06888338178396225  1.0000
  P   P4        1.0  0.07910885661840439  0.6045589447021484  0.6998150944709778  1.0000
  P   P5        1.0  0.07912429422140121  0.06845446676015854  0.9277843236923218  1.0000
  P   P6        1.0  0.5181468725204468  0.8212870359420776  0.7191405892372132  1.0000
  P   P7        1.0  0.564986526966095  0.8810960650444031  0.9060794711112976  1.0000
  Pb  Pb1       1.0  0.11285192519426346  0.04772520065307617  0.2430894821882248  1.0000
  Pd  Pd1       1.0  0.03187311440706253  0.7221031785011292  0.09687488526105881  1.0000
  Rb  Rb1       1.0  0.5290514826774597  0.7614445090293884  0.9836611747741699  1.0000
  S   S1        1.0  0.5347813963890076  0.16474832594394684  0.056541990488767624  1.0000
  Ti  Ti1       1.0  0.5260541439056396  0.3111826479434967  0.7602943181991577  1.0000
