data_image0
_chemical_formula_structural       AlFI3P6SV
_chemical_formula_sum              "Al1 F1 I3 P6 S1 V1"
_cell_length_a       6.210718299944451
_cell_length_b       7.623198929281253
_cell_length_c       9.801042556762695
_cell_angle_alpha    97.47674824913429
_cell_angle_beta     98.26542048942544
_cell_angle_gamma    109.18878413119602

_space_group_name_H-M_alt    "P 1"
_space_group_IT_number       1

loop_
  _space_group_symop_operation_xyz
  'x, y, z'

loop_
  _atom_site_type_symbol
  _atom_site_label
  _atom_site_symmetry_multiplicity
  _atom_site_fract_x
  _atom_site_fract_y
  _atom_site_fract_z
  _atom_site_occupancy
  Al  Al1       1.0  0.25361448526382446  0.4353198707103729  0.8553906679153442  1.0000
  F   F1        1.0  0.7128517031669616  0.36302608251571655  0.854353666305542  1.0000
  I   I1        1.0  0.6513760685920715  0.6756227016448975  0.5378377437591553  1.0000
  I   I2        1.0  0.19133603572845456  0.5875845551490784  0.5756083726882935  1.0000
  I   I3        1.0  0.7208923697471618  0.2680216431617737  0.7480485439300537  1.0000
  P   P1        1.0  0.5383012294769287  0.2564935088157654  0.1104452982544899  1.0000
  P   P2        1.0  0.8025198578834533  0.5711544752120972  0.34745290875434875  1.0000
  P   P3        1.0  0.2922770082950592  0.15467971563339233  0.16323086619377136  1.0000
  P   P4        1.0  0.7665320634841918  0.666778028011322  0.7036284804344177  1.0000
  P   P5        1.0  0.6368582844734192  0.8977929353713989  0.78126060962677  1.0000
  P   P6        1.0  0.27121761441230774  0.04854600876569748  0.5158752799034119  1.0000
  S   S1        1.0  0.5307992100715637  0.03961237892508507  0.9888710975646973  1.0000
  V   V1        1.0  0.16784749925136566  0.6750712990760803  0.3303343951702118  1.0000
