data_image0
_chemical_formula_structural       Br2ILi4PbSiZr
_chemical_formula_sum              "Br2 I1 Li4 Pb1 Si1 Zr1"
_cell_length_a       4.333697049912639
_cell_length_b       5.364461725535117
_cell_length_c       6.960474491119385
_cell_angle_alpha    115.4970360434416
_cell_angle_beta     91.64958111204321
_cell_angle_gamma    127.98479841411742

_space_group_name_H-M_alt    "P 1"
_space_group_IT_number       1

loop_
  _space_group_symop_operation_xyz
  'x, y, z'

loop_
  _atom_site_type_symbol
  _atom_site_label
  _atom_site_symmetry_multiplicity
  _atom_site_fract_x
  _atom_site_fract_y
  _atom_site_fract_z
  _atom_site_occupancy
  Br  Br1       1.0  0.14981743693351746  0.056829556822776794  0.5197961926460266  1.0000
  Br  Br2       1.0  0.3111058175563812  0.47101300954818726  0.7849947214126587  1.0000
  I   I1        1.0  0.609984815120697  0.3660905659198761  0.32275164127349854  1.0000
  Li  Li1       1.0  0.6169700026512146  0.9808153510093689  0.4694948196411132  1.0000
  Li  Li2       1.0  0.800995945930481  0.16499415040016174  0.8840417861938477  1.0000
  Li  Li3       1.0  0.0652695745229721  0.2785183787345886  0.10066913068294525  1.0000
  Li  Li4       1.0  0.1251293122768402  0.49962449073791504  0.8216698169708252  1.0000
  Pb  Pb1       1.0  0.7968381643295288  0.02539895288646221  0.8998233079910278  1.0000
  Si  Si1       1.0  0.35736286640167236  0.08262505382299423  0.027233470231294632  1.0000
  Zr  Zr1       1.0  0.08807060867547989  0.7373459339141846  0.4974540174007415  1.0000
