data_image0
_chemical_formula_structural       BrI2Li5Zr2
_chemical_formula_sum              "Br1 I2 Li5 Zr2"
_cell_length_a       5.3813574350928395
_cell_length_b       5.874961477974705
_cell_length_c       7.26025390625
_cell_angle_alpha    99.9411058052032
_cell_angle_beta     85.88621901307104
_cell_angle_gamma    90.94603004964863

_space_group_name_H-M_alt    "P 1"
_space_group_IT_number       1

loop_
  _space_group_symop_operation_xyz
  'x, y, z'

loop_
  _atom_site_type_symbol
  _atom_site_label
  _atom_site_symmetry_multiplicity
  _atom_site_fract_x
  _atom_site_fract_y
  _atom_site_fract_z
  _atom_site_occupancy
  Br  Br1       1.0  0.5798148512840271  0.8219753503799438  0.7493951320648194  1.0000
  I   I1        1.0  0.07779599726200104  0.33661165833473206  0.12604248523712158  1.0000
  I   I2        1.0  0.5579419136047363  0.8233619332313538  0.797528624534607  1.0000
  Li  Li1       1.0  0.0641808733344078  0.045819010585546494  0.6554166078567506  1.0000
  Li  Li2       1.0  0.5820446610450745  0.04000435397028923  0.3468597829341889  1.0000
  Li  Li3       1.0  0.08103474974632263  0.9670535326004028  0.9661203622817994  1.0000
  Li  Li4       1.0  0.5693275928497314  0.377371221780777  0.43077039718627935  1.0000
  Li  Li5       1.0  0.08246184885501862  0.39561834931373596  0.3590803742408753  1.0000
  Zr  Zr1       1.0  0.0863705426454544  0.8404465913772583  0.673381268978119  1.0000
  Zr  Zr2       1.0  0.07286465913057327  0.31655362248420715  0.8215512037277223  1.0000
