data_image0
_chemical_formula_structural       Br4Li5O
_chemical_formula_sum              "Br4 Li5 O1"
_cell_length_a       5.582854557874781
_cell_length_b       4.655941533927243
_cell_length_c       5.302377700805664
_cell_angle_alpha    109.59903014932692
_cell_angle_beta     120.55147532641668
_cell_angle_gamma    128.30423108193264

_space_group_name_H-M_alt    "P 1"
_space_group_IT_number       1

loop_
  _space_group_symop_operation_xyz
  'x, y, z'

loop_
  _atom_site_type_symbol
  _atom_site_label
  _atom_site_symmetry_multiplicity
  _atom_site_fract_x
  _atom_site_fract_y
  _atom_site_fract_z
  _atom_site_occupancy
  Br  Br1       1.0  0.3184016048908235  0.6719563007354737  0.3402239978313447  1.0000
  Br  Br2       1.0  0.667571783065796  0.2922288775444032  0.8861936926841738  1.0000
  Br  Br3       1.0  0.7590140104293821  0.9379901289939879  0.8467646241188049  1.0000
  Br  Br4       1.0  0.7714372277259827  0.05006059631705284  0.012342732399702022  1.0000
  Li  Li1       1.0  0.9845995903015137  0.3251388370990753  0.5258536338806152  1.0000
  Li  Li2       1.0  0.24445241689682007  0.10655246675014499  0.28183838725090027  1.0000
  Li  Li3       1.0  0.6096668243408203  0.28768041729927063  0.5312570929527283  1.0000
  Li  Li4       1.0  0.9911341071128845  0.44562584161758423  0.5504387617111206  1.0000
  Li  Li5       1.0  0.285737305879593  0.7387766838073732  0.1288276314735414  1.0000
  O   O1        1.0  0.9648704528808594  0.555238664150238  0.44430524110794073  1.0000
