data_image0
_chemical_formula_structural       Br2I2Li5Mg
_chemical_formula_sum              "Br2 I2 Li5 Mg1"
_cell_length_a       5.718702005881598
_cell_length_b       5.801308582759149
_cell_length_c       6.887445449829102
_cell_angle_alpha    92.12518592611013
_cell_angle_beta     90.2545403674837
_cell_angle_gamma    88.83504682889794

_space_group_name_H-M_alt    "P 1"
_space_group_IT_number       1

loop_
  _space_group_symop_operation_xyz
  'x, y, z'

loop_
  _atom_site_type_symbol
  _atom_site_label
  _atom_site_symmetry_multiplicity
  _atom_site_fract_x
  _atom_site_fract_y
  _atom_site_fract_z
  _atom_site_occupancy
  Br  Br1       1.0  0.46759507060050964  0.7588571310043335  0.7509182691574098  1.0000
  Br  Br2       1.0  0.5959017276763916  0.9685090780258179  0.9512529373168946  1.0000
  I   I1        1.0  0.47011563181877136  0.42912760376930237  0.6318479776382446  1.0000
  I   I2        1.0  0.4633525609970093  0.8603693246841431  0.4736199975013734  1.0000
  Li  Li1       1.0  0.4569832682609558  0.298808753490448  0.9576870799064637  1.0000
  Li  Li2       1.0  0.9781732559204102  0.9280362129211426  0.6056928634643555  1.0000
  Li  Li3       1.0  0.9806681275367737  0.2833087742328644  0.6474363207817078  1.0000
  Li  Li4       1.0  0.9625924229621887  0.2411489188671112  0.604487419128418  1.0000
  Li  Li5       1.0  0.9673565626144409  0.8827100992202759  0.9297625422477723  1.0000
  Mg  Mg1       1.0  0.4727959632873535  0.9347125887870789  0.7161654233932496  1.0000
