data_image0
_chemical_formula_structural       Br2Li6O2
_chemical_formula_sum              "Br2 Li6 O2"
_cell_length_a       6.4549338541352155
_cell_length_b       6.24902317025396
_cell_length_c       6.251492023468018
_cell_angle_alpha    111.67422222698602
_cell_angle_beta     111.62021884842174
_cell_angle_gamma    113.81320604409534

_space_group_name_H-M_alt    "P 1"
_space_group_IT_number       1

loop_
  _space_group_symop_operation_xyz
  'x, y, z'

loop_
  _atom_site_type_symbol
  _atom_site_label
  _atom_site_symmetry_multiplicity
  _atom_site_fract_x
  _atom_site_fract_y
  _atom_site_fract_z
  _atom_site_occupancy
  Br  Br1       1.0  0.12491939216852188  0.9251372814178467  0.14826610684394836  1.0000
  Br  Br2       1.0  0.9534416198730469  0.25964558124542236  0.5660334825515747  1.0000
  Li  Li1       1.0  0.4730638861656189  0.3812035918235779  0.28189003467559814  1.0000
  Li  Li2       1.0  0.5364037156105042  0.16695858538150787  0.8693296909332274  1.0000
  Li  Li3       1.0  0.19427898526191711  0.6655324101448059  0.24694460630416876  1.0000
  Li  Li4       1.0  0.14616034924983978  0.6592171788215637  0.26454830169677734  1.0000
  Li  Li5       1.0  0.0016391599783674251  0.9515191316604614  0.3379563987255097  1.0000
  Li  Li6       1.0  0.5456966757774353  0.9776951670646667  0.00037568938569164655  1.0000
  O   O1        1.0  0.6738412976264954  0.34066760540008545  0.9713273644447326  1.0000
  O   O2        1.0  0.71895831823349  0.9435316324234009  0.3895403146743775  1.0000
