data_image0
_chemical_formula_structural       BrI2IrLi6
_chemical_formula_sum              "Br1 I2 Ir1 Li6"
_cell_length_a       5.753656359551045
_cell_length_b       6.230679178139319
_cell_length_c       7.266421318054199
_cell_angle_alpha    101.92276480232495
_cell_angle_beta     101.0791582022688
_cell_angle_gamma    102.04663700099954

_space_group_name_H-M_alt    "P 1"
_space_group_IT_number       1

loop_
  _space_group_symop_operation_xyz
  'x, y, z'

loop_
  _atom_site_type_symbol
  _atom_site_label
  _atom_site_symmetry_multiplicity
  _atom_site_fract_x
  _atom_site_fract_y
  _atom_site_fract_z
  _atom_site_occupancy
  Br  Br1       1.0  0.31022101640701294  0.3537504971027374  0.4246631264686585  1.0000
  I   I1        1.0  0.2830013632774353  0.583055317401886  0.15849213302135468  1.0000
  I   I2        1.0  0.805769681930542  0.8994547724723816  0.6349193453788757  1.0000
  Ir  Ir1       1.0  0.8097215294837952  0.3824438452720642  0.21478876471519473  1.0000
  Li  Li1       1.0  0.9020629525184631  0.3200777769088745  0.11456356197595598  1.0000
  Li  Li2       1.0  0.0655827596783638  0.6934662461280823  0.6492326259613037  1.0000
  Li  Li3       1.0  0.21039845049381256  0.23790611326694489  0.9950938820838929  1.0000
  Li  Li4       1.0  0.8117729425430298  0.8256697058677673  0.7925217151641847  1.0000
  Li  Li5       1.0  0.4424666464328766  0.4721418023109436  0.7972570657730104  1.0000
  Li  Li6       1.0  0.4493649899959564  0.12067008763551712  0.8505238890647889  1.0000
