data_image0
_chemical_formula_structural       BrI2IrLiPPbPrSrZr2
_chemical_formula_sum              "Br1 I2 Ir1 Li1 P1 Pb1 Pr1 Sr1 Zr2"
_cell_length_a       5.95436680746155
_cell_length_b       7.727561299567727
_cell_length_c       8.964083671569824
_cell_angle_alpha    123.08898239081498
_cell_angle_beta     92.51208875255841
_cell_angle_gamma    89.59058839774166

_space_group_name_H-M_alt    "P 1"
_space_group_IT_number       1

loop_
  _space_group_symop_operation_xyz
  'x, y, z'

loop_
  _atom_site_type_symbol
  _atom_site_label
  _atom_site_symmetry_multiplicity
  _atom_site_fract_x
  _atom_site_fract_y
  _atom_site_fract_z
  _atom_site_occupancy
  Br  Br1       1.0  0.11243478208780289  0.028565974906086918  0.22761915624141693  1.0000
  I   I1        1.0  0.10151464492082596  0.5791479349136353  0.0007445215014740701  1.0000
  I   I2        1.0  0.10402248054742813  0.8580500483512877  0.05755158141255374  1.0000
  Ir  Ir1       1.0  0.6051817536354065  0.10479703545570374  0.7107837200164795  1.0000
  Li  Li1       1.0  0.11578872799873352  0.33882397413253784  0.27408793568611145  1.0000
  P   P1        1.0  0.1050010472536087  0.5138542056083679  0.8157675266265869  1.0000
  Pb  Pb1       1.0  0.6172599196434021  0.3692720830440521  0.25385305285453796  1.0000
  Pr  Pr1       1.0  0.11265930533409119  0.787071943283081  0.9096135497093201  1.0000
  Sr  Sr1       1.0  0.6066880226135254  0.9427532553672789  0.7261654734611511  1.0000
  Zr  Zr1       1.0  0.10503364354372025  0.06987122446298599  0.5105549693107605  1.0000
  Zr  Zr2       1.0  0.6122266054153442  0.44834658503532404  0.5733432769775391  1.0000
