data_image0
_chemical_formula_structural       I2LiPSbSr2TiTlZr2
_chemical_formula_sum              "I2 Li1 P1 Sb1 Sr2 Ti1 Tl1 Zr2"
_cell_length_a       5.466593005340455
_cell_length_b       7.07784983312996
_cell_length_c       7.730144500732422
_cell_angle_alpha    120.94866090399293
_cell_angle_beta     90.04447813711789
_cell_angle_gamma    89.50224646353973

_space_group_name_H-M_alt    "P 1"
_space_group_IT_number       1

loop_
  _space_group_symop_operation_xyz
  'x, y, z'

loop_
  _atom_site_type_symbol
  _atom_site_label
  _atom_site_symmetry_multiplicity
  _atom_site_fract_x
  _atom_site_fract_y
  _atom_site_fract_z
  _atom_site_occupancy
  I   I1        1.0  0.18812215328216553  0.592502772808075  0.13663525879383087  1.0000
  I   I2        1.0  0.6879075765609741  0.11381999403238297  0.9919388294219972  1.0000
  Li  Li1       1.0  0.7011072039604187  0.5065997838973999  0.9480978250503541  1.0000
  P   P1        1.0  0.6942686438560486  0.7770422697067261  0.04984420910477638  1.0000
  Sb  Sb1       1.0  0.19764694571495056  0.26151224970817566  0.6188539266586304  1.0000
  Sr  Sr1       1.0  0.19049526751041412  0.0910688117146492  0.06995560973882675  1.0000
  Sr  Sr2       1.0  0.6906393766403198  0.08654379844665527  0.5403018593788147  1.0000
  Ti  Ti1       1.0  0.20446686446666718  0.8780210614204407  0.8171176314353943  1.0000
  Tl  Tl1       1.0  0.6893178820610046  0.06878107786178589  0.43379297852516174  1.0000
  Zr  Zr1       1.0  0.7010732889175415  0.23994006216526031  0.02877246402204037  1.0000
  Zr  Zr2       1.0  0.1994154006242752  0.44559213519096375  0.7034838199615479  1.0000
