data_image0
_chemical_formula_structural       BrCaIIr2Sr3Zr3
_chemical_formula_sum              "Br1 Ca1 I1 Ir2 Sr3 Zr3"
_cell_length_a       7.316522586032345
_cell_length_b       7.090254888977109
_cell_length_c       7.893488883972168
_cell_angle_alpha    114.8438642033035
_cell_angle_beta     101.53966686473406
_cell_angle_gamma    92.05840469286757

_space_group_name_H-M_alt    "P 1"
_space_group_IT_number       1

loop_
  _space_group_symop_operation_xyz
  'x, y, z'

loop_
  _atom_site_type_symbol
  _atom_site_label
  _atom_site_symmetry_multiplicity
  _atom_site_fract_x
  _atom_site_fract_y
  _atom_site_fract_z
  _atom_site_occupancy
  Br  Br1       1.0  0.5459460616111755  0.05049767345190048  0.7231318354606628  1.0000
  Ca  Ca1       1.0  0.7678643465042113  0.30790138244628906  0.436375766992569  1.0000
  I   I1        1.0  0.5555471181869507  0.9417456984519958  0.8927536010742189  1.0000
  Ir  Ir1       1.0  0.539067804813385  0.5432330369949341  0.8799813389778138  1.0000
  Ir  Ir2       1.0  0.04449837282299995  0.9357632398605347  0.3043253719806671  1.0000
  Sr  Sr1       1.0  0.11072351783514021  0.845515251159668  0.31927412748336786  1.0000
  Sr  Sr2       1.0  0.03054428659379482  0.9064816832542419  0.8233416080474854  1.0000
  Sr  Sr3       1.0  0.5449157357215881  0.6943746209144592  0.2788764536380767  1.0000
  Zr  Zr1       1.0  0.5407742857933044  0.0021299838554114103  0.3162779211997986  1.0000
  Zr  Zr2       1.0  0.11906965821981429  0.5756134390830994  0.6922023296356201  1.0000
  Zr  Zr3       1.0  0.04093010723590851  0.041804827749729156  0.23646010458469394  1.0000
