data_image0
_chemical_formula_structural       Br2Sr7Th2
_chemical_formula_sum              "Br2 Sr7 Th2"
_cell_length_a       6.7383071484296
_cell_length_b       6.951030717071247
_cell_length_c       7.312422752380371
_cell_angle_alpha    120.43069663884387
_cell_angle_beta     90.78796111136187
_cell_angle_gamma    91.40524718890462

_space_group_name_H-M_alt    "P 1"
_space_group_IT_number       1

loop_
  _space_group_symop_operation_xyz
  'x, y, z'

loop_
  _atom_site_type_symbol
  _atom_site_label
  _atom_site_symmetry_multiplicity
  _atom_site_fract_x
  _atom_site_fract_y
  _atom_site_fract_z
  _atom_site_occupancy
  Br  Br1       1.0  0.049832940101623535  0.08753283321857452  0.021636268123984337  1.0000
  Br  Br2       1.0  0.5288399457931519  0.639970064163208  0.6986886858940125  1.0000
  Sr  Sr1       1.0  0.7020245790481567  0.6853525042533875  0.7157285809516907  1.0000
  Sr  Sr2       1.0  0.027889510616660118  0.2934824526309967  0.5747157335281372  1.0000
  Sr  Sr3       1.0  0.5362166166305542  0.5660749673843384  0.42189517617225647  1.0000
  Sr  Sr4       1.0  0.03161187842488289  0.09819427877664566  0.19968076050281525  1.0000
  Sr  Sr5       1.0  0.03755695000290871  0.30632081627845764  0.8395806550979614  1.0000
  Sr  Sr6       1.0  0.5350232124328613  0.41191068291664124  0.9838773012161255  1.0000
  Sr  Sr7       1.0  0.5364891290664673  0.43882983922958374  0.8080018758773804  1.0000
  Th  Th1       1.0  0.03172774240374565  0.8582382202148438  0.7019192576408386  1.0000
  Th  Th2       1.0  0.03444009646773338  0.5690265893936157  0.9266704320907593  1.0000
