data_image0
_chemical_formula_structural       Sr9Th2
_chemical_formula_sum              "Sr9 Th2"
_cell_length_a       7.040509089332763
_cell_length_b       7.1864497446633555
_cell_length_c       9.188944816589355
_cell_angle_alpha    111.83656499564026
_cell_angle_beta     91.66578294348955
_cell_angle_gamma    94.57604998291995

_space_group_name_H-M_alt    "P 1"
_space_group_IT_number       1

loop_
  _space_group_symop_operation_xyz
  'x, y, z'

loop_
  _atom_site_type_symbol
  _atom_site_label
  _atom_site_symmetry_multiplicity
  _atom_site_fract_x
  _atom_site_fract_y
  _atom_site_fract_z
  _atom_site_occupancy
  Sr  Sr1       1.0  0.5173047184944153  0.322875052690506  0.9605374932289124  1.0000
  Sr  Sr2       1.0  0.2128910422325134  0.9316232800483704  0.6292141675949097  1.0000
  Sr  Sr3       1.0  0.06006436794996261  0.8606201410293579  0.8610248565673828  1.0000
  Sr  Sr4       1.0  0.7143495082855223  0.5291702747344971  0.9336625337600708  1.0000
  Sr  Sr5       1.0  0.22169472277164456  0.3543686270713806  0.8266527652740479  1.0000
  Sr  Sr6       1.0  0.564538300037384  0.6558656692504883  0.11849410831928252  1.0000
  Sr  Sr7       1.0  0.21031607687473294  0.5682385563850403  0.6453608274459839  1.0000
  Sr  Sr8       1.0  0.9419995546340941  0.7407100796699524  0.5492481589317322  1.0000
  Sr  Sr9       1.0  0.2167224287986755  0.24974878132343292  0.7131901979446411  1.0000
  Th  Th1       1.0  0.7465634942054747  0.45300987362861633  0.17213501036167145  1.0000
  Th  Th2       1.0  0.708238661289215  0.5887911319732666  0.32525014877319336  1.0000
