data_image0
_chemical_formula_structural       CaI3LiPScSr2ThZr
_chemical_formula_sum              "Ca1 I3 Li1 P1 Sc1 Sr2 Th1 Zr1"
_cell_length_a       6.878457784147235
_cell_length_b       6.722632524798388
_cell_length_c       7.067476749420166
_cell_angle_alpha    109.10972207595333
_cell_angle_beta     108.48595451590411
_cell_angle_gamma    112.32901486676543

_space_group_name_H-M_alt    "P 1"
_space_group_IT_number       1

loop_
  _space_group_symop_operation_xyz
  'x, y, z'

loop_
  _atom_site_type_symbol
  _atom_site_label
  _atom_site_symmetry_multiplicity
  _atom_site_fract_x
  _atom_site_fract_y
  _atom_site_fract_z
  _atom_site_occupancy
  Ca  Ca1       1.0  0.4327894449234009  0.7051071524620056  0.09245739877223962  1.0000
  I   I1        1.0  0.1802014857530594  0.6591922044754028  0.7359417676925659  1.0000
  I   I2        1.0  0.3804762661457062  0.05837807804346084  0.3324602246284485  1.0000
  I   I3        1.0  0.633804440498352  0.5216957330703735  0.8425721526145935  1.0000
  Li  Li1       1.0  0.1763056516647339  0.004805405158549547  0.30863767862319946  1.0000
  P   P1        1.0  0.9159544110298157  0.6124170422554016  0.14660285413265228  1.0000
  Sc  Sc1       1.0  0.6799149513244629  0.4048484265804291  0.6679159998893738  1.0000
  Sr  Sr1       1.0  0.9388169646263123  0.7465168237686157  0.9431376457214355  1.0000
  Sr  Sr2       1.0  0.09656644612550729  0.9884610176086425  0.43799242377281183  1.0000
  Th  Th1       1.0  0.43747401237487793  0.3847513198852539  0.4014304280281067  1.0000
  Zr  Zr1       1.0  0.43381911516189575  0.564521074295044  0.15829816460609436  1.0000
