data_image0
_chemical_formula_structural       Cl3O3V3
_chemical_formula_sum              "Cl3 O3 V3"
_cell_length_a       4.058275641120048
_cell_length_b       6.343328744614139
_cell_length_c       6.751097679138184
_cell_angle_alpha    121.8266488494211
_cell_angle_beta     92.22644335241287
_cell_angle_gamma    89.30852565396182

_space_group_name_H-M_alt    "P 1"
_space_group_IT_number       1

loop_
  _space_group_symop_operation_xyz
  'x, y, z'

loop_
  _atom_site_type_symbol
  _atom_site_label
  _atom_site_symmetry_multiplicity
  _atom_site_fract_x
  _atom_site_fract_y
  _atom_site_fract_z
  _atom_site_occupancy
  Cl  Cl1       1.0  0.5295506715774536  0.9446655511856079  0.6283137798309326  1.0000
  Cl  Cl2       1.0  0.49520447850227356  0.15293316543102264  0.07001949846744537  1.0000
  Cl  Cl3       1.0  0.5149064064025879  0.7584658861160278  0.06068066135048866  1.0000
  O   O1        1.0  0.5158762335777283  0.41377943754196167  0.9899375438690186  1.0000
  O   O2        1.0  0.1341603845357895  0.03939168155193329  0.6878194212913513  1.0000
  O   O3        1.0  0.005641988944262266  0.5679473876953125  0.9616860747337341  1.0000
  V   V1        1.0  0.9844599366188049  0.056036289781332016  0.1252700239419937  1.0000
  V   V2        1.0  0.9739972352981567  0.09108401089906693  0.3070812523365021  1.0000
  V   V3        1.0  0.02783554047346115  0.8223897814750671  0.9337369203567505  1.0000
