data_image0
_chemical_formula_structural       BrCl2GaOV4
_chemical_formula_sum              "Br1 Cl2 Ga1 O1 V4"
_cell_length_a       4.834064763343273
_cell_length_b       5.277427737392837
_cell_length_c       5.855253219604492
_cell_angle_alpha    97.25610419893735
_cell_angle_beta     92.88922528194082
_cell_angle_gamma    89.78942359134767

_space_group_name_H-M_alt    "P 1"
_space_group_IT_number       1

loop_
  _space_group_symop_operation_xyz
  'x, y, z'

loop_
  _atom_site_type_symbol
  _atom_site_label
  _atom_site_symmetry_multiplicity
  _atom_site_fract_x
  _atom_site_fract_y
  _atom_site_fract_z
  _atom_site_occupancy
  Br  Br1       1.0  0.32619428634643555  0.4498830735683441  0.555135190486908  1.0000
  Cl  Cl1       1.0  0.09197341650724411  0.661999523639679  0.7488130331039428  1.0000
  Cl  Cl2       1.0  0.8342175483703613  0.9085971713066101  0.08997943252325058  1.0000
  Ga  Ga1       1.0  0.3291713297367096  0.1777368187904358  0.748782455921173  1.0000
  O   O1        1.0  0.6105647683143616  0.8924135565757751  0.2505212128162384  1.0000
  V   V1        1.0  0.8325386047363281  0.4342052638530731  0.8624793291091918  1.0000
  V   V2        1.0  0.3377312123775482  0.8937764167785645  0.27077716588974  1.0000
  V   V3        1.0  0.8427926898002625  0.14056478440761566  0.3841521739959716  1.0000
  V   V4        1.0  0.3351808786392212  0.4288017451763153  0.13576453924179077  1.0000
