data_image0
_chemical_formula_structural       CaGdPd3Sc2Zr4
_chemical_formula_sum              "Ca1 Gd1 Pd3 Sc2 Zr4"
_cell_length_a       6.056832474803219
_cell_length_b       6.52070199340986
_cell_length_c       7.110999584197998
_cell_angle_alpha    117.75595358825078
_cell_angle_beta     87.56349842323574
_cell_angle_gamma    87.75953067587429

_space_group_name_H-M_alt    "P 1"
_space_group_IT_number       1

loop_
  _space_group_symop_operation_xyz
  'x, y, z'

loop_
  _atom_site_type_symbol
  _atom_site_label
  _atom_site_symmetry_multiplicity
  _atom_site_fract_x
  _atom_site_fract_y
  _atom_site_fract_z
  _atom_site_occupancy
  Ca  Ca1       1.0  0.5390968322753906  0.12787377834320068  0.7683621644973755  1.0000
  Gd  Gd1       1.0  0.04319436475634575  0.46307256817817694  0.5681542158126831  1.0000
  Pd  Pd1       1.0  0.5369515419006348  0.029199548065662388  0.7006313800811768  1.0000
  Pd  Pd2       1.0  0.5463666319847107  0.9547799229621888  0.6411249041557312  1.0000
  Pd  Pd3       1.0  0.03632524237036705  0.04170621186494827  0.26332390308380127  1.0000
  Sc  Sc1       1.0  0.049130093306303024  0.4629387259483338  0.5003705620765686  1.0000
  Sc  Sc2       1.0  0.5435742735862732  0.6833696365356445  0.29714754223823553  1.0000
  Zr  Zr1       1.0  0.044584795832633965  0.8628728985786439  0.046128597110509935  1.0000
  Zr  Zr2       1.0  0.5359601378440857  0.20981024205684665  0.9590672254562377  1.0000
  Zr  Zr3       1.0  0.5381680130958557  0.5083703994750977  0.9164070487022399  1.0000
  Zr  Zr4       1.0  0.547275185585022  0.8441185355186464  0.9658161997795104  1.0000
