data_image0
_chemical_formula_structural       NbPPdSbSc6Zr
_chemical_formula_sum              "Nb1 P1 Pd1 Sb1 Sc6 Zr1"
_cell_length_a       6.81467590388812
_cell_length_b       6.376927192207766
_cell_length_c       6.960883617401123
_cell_angle_alpha    60.86522320195642
_cell_angle_beta     62.28167489118063
_cell_angle_gamma    59.91053535964368

_space_group_name_H-M_alt    "P 1"
_space_group_IT_number       1

loop_
  _space_group_symop_operation_xyz
  'x, y, z'

loop_
  _atom_site_type_symbol
  _atom_site_label
  _atom_site_symmetry_multiplicity
  _atom_site_fract_x
  _atom_site_fract_y
  _atom_site_fract_z
  _atom_site_occupancy
  Nb  Nb1       1.0  0.6932714581489563  0.6024239659309387  0.5211237072944641  1.0000
  P   P1        1.0  0.9359681010246277  0.9762581586837769  0.7478734254837036  1.0000
  Pd  Pd1       1.0  0.3224004805088043  0.3712885081768036  0.6513019800186157  1.0000
  Sb  Sb1       1.0  0.6890502572059631  0.6692306399345398  0.8980997800827026  1.0000
  Sc  Sc1       1.0  0.7135617733001709  0.9914505481719971  0.4452057480812073  1.0000
  Sc  Sc2       1.0  0.3902953863143921  0.3725775182247162  0.1710464060306549  1.0000
  Sc  Sc3       1.0  0.5511095523834229  0.7969813346862793  0.06190218776464462  1.0000
  Sc  Sc4       1.0  0.05600599944591522  0.25391119718551636  0.020855920389294638  1.0000
  Sc  Sc5       1.0  0.5757578611373901  0.7277660369873047  0.8281649351119995  1.0000
  Sc  Sc6       1.0  0.19309167563915253  0.016490645706653595  0.4046560823917389  1.0000
  Zr  Zr1       1.0  0.23149403929710388  0.28982460498809814  0.29678288102149963  1.0000
