data_image0
_chemical_formula_structural       GeHPd3Sc3Zr3
_chemical_formula_sum              "Ge1 H1 Pd3 Sc3 Zr3"
_cell_length_a       4.91974261158419
_cell_length_b       6.037651119826637
_cell_length_c       6.7889885902404785
_cell_angle_alpha    109.56042555916399
_cell_angle_beta     90.00604213120926
_cell_angle_gamma    86.41894312605237

_space_group_name_H-M_alt    "P 1"
_space_group_IT_number       1

loop_
  _space_group_symop_operation_xyz
  'x, y, z'

loop_
  _atom_site_type_symbol
  _atom_site_label
  _atom_site_symmetry_multiplicity
  _atom_site_fract_x
  _atom_site_fract_y
  _atom_site_fract_z
  _atom_site_occupancy
  Ge  Ge1       1.0  0.5431815385818481  0.9125828742980958  0.2884757518768311  1.0000
  H   H1        1.0  0.051000349223613725  0.8479920625686647  0.08067819476127625  1.0000
  Pd  Pd1       1.0  0.04056723043322562  0.812597155570984  0.4834368526935578  1.0000
  Pd  Pd2       1.0  0.04245603829622269  0.8039528727531433  0.924418330192566  1.0000
  Pd  Pd3       1.0  0.04982806742191313  0.9258989691734315  0.8515496850013733  1.0000
  Sc  Sc1       1.0  0.5413662195205688  0.4572531878948212  0.9908003211021424  1.0000
  Sc  Sc2       1.0  0.5383790731430054  0.24694509804248813  0.07599155604839325  1.0000
  Sc  Sc3       1.0  0.045541759580373764  0.7797360420227051  0.10671982914209366  1.0000
  Zr  Zr1       1.0  0.050002310425043106  0.6123365759849548  0.5935627222061157  1.0000
  Zr  Zr2       1.0  0.5493840575218201  0.40975010395050054  0.601466715335846  1.0000
  Zr  Zr3       1.0  0.5461606979370117  0.4688577353954316  0.5601685047149658  1.0000
