data_image0
_chemical_formula_structural       KPd4Zr6
_chemical_formula_sum              "K1 Pd4 Zr6"
_cell_length_a       6.31232951018625
_cell_length_b       6.023559930323035
_cell_length_c       6.642421722412109
_cell_angle_alpha    126.06940748581644
_cell_angle_beta     89.78014592957068
_cell_angle_gamma    83.3747165465067

_space_group_name_H-M_alt    "P 1"
_space_group_IT_number       1

loop_
  _space_group_symop_operation_xyz
  'x, y, z'

loop_
  _atom_site_type_symbol
  _atom_site_label
  _atom_site_symmetry_multiplicity
  _atom_site_fract_x
  _atom_site_fract_y
  _atom_site_fract_z
  _atom_site_occupancy
  K   K1        1.0  0.30999061465263367  0.8104990720748901  0.1031896322965622  1.0000
  Pd  Pd1       1.0  0.5640156865119934  0.8042176961898804  0.2304576188325882  1.0000
  Pd  Pd2       1.0  0.5633682608604431  0.18957819044589996  0.13483725488185883  1.0000
  Pd  Pd3       1.0  0.06590249389410019  0.8359983563423157  0.8959574103355408  1.0000
  Pd  Pd4       1.0  0.06605586409568787  0.4520314633846283  0.24165265262126923  1.0000
  Zr  Zr1       1.0  0.5631694197654724  0.9817448258399963  0.211940884590149  1.0000
  Zr  Zr2       1.0  0.06890467554330826  0.15666139125823975  0.9251744151115417  1.0000
  Zr  Zr3       1.0  0.061526600271463394  0.5033091306686401  0.22858178615570068  1.0000
  Zr  Zr4       1.0  0.06412114202976227  0.7857741117477417  0.3436530530452729  1.0000
  Zr  Zr5       1.0  0.812458872795105  0.2684096097946167  0.6675713658332825  1.0000
  Zr  Zr6       1.0  0.5700350999832153  0.8101120591163635  0.29555225372314453  1.0000
