data_image0
_chemical_formula_structural       CrCuHInPdZr6
_chemical_formula_sum              "Cr1 Cu1 H1 In1 Pd1 Zr6"
_cell_length_a       5.940425702537052
_cell_length_b       4.334562057925367
_cell_length_c       5.426729202270508
_cell_angle_alpha    37.954544934309794
_cell_angle_beta     64.1765475633944
_cell_angle_gamma    55.41734272237393

_space_group_name_H-M_alt    "P 1"
_space_group_IT_number       1

loop_
  _space_group_symop_operation_xyz
  'x, y, z'

loop_
  _atom_site_type_symbol
  _atom_site_label
  _atom_site_symmetry_multiplicity
  _atom_site_fract_x
  _atom_site_fract_y
  _atom_site_fract_z
  _atom_site_occupancy
  Cr  Cr1       1.0  0.8413008451461792  0.034467905759811415  0.18615113198757172  1.0000
  Cu  Cu1       1.0  0.9234583377838135  0.6637623310089111  0.5323472619056702  1.0000
  H   H1        1.0  0.7892200946807861  0.30510479211807245  0.5395463109016418  1.0000
  In  In1       1.0  0.16503928601741794  0.8287779092788695  0.5364033579826356  1.0000
  Pd  Pd1       1.0  0.394607812166214  0.5184391140937806  0.8865401744842529  1.0000
  Zr  Zr1       1.0  0.35935693979263306  0.052986424416303635  0.17520576715469358  1.0000
  Zr  Zr2       1.0  0.86613529920578  0.8783288598060608  0.33969652652740484  1.0000
  Zr  Zr3       1.0  0.9113037586212158  0.15459968149662032  0.9730581045150757  1.0000
  Zr  Zr4       1.0  0.22790084779262543  0.4488442838191986  0.3644680082798004  1.0000
  Zr  Zr5       1.0  0.9200664758682251  0.2713457345962523  0.45686534047126776  1.0000
  Zr  Zr6       1.0  0.8406224250793457  0.4382843673229217  0.24460685253143313  1.0000
