data_image0
_chemical_formula_structural       BrPd3SThZr5
_chemical_formula_sum              "Br1 Pd3 S1 Th1 Zr5"
_cell_length_a       5.57929038337314
_cell_length_b       4.492675864352517
_cell_length_c       5.8415913581848145
_cell_angle_alpha    135.97989858179665
_cell_angle_beta     89.07706358485261
_cell_angle_gamma    82.39809583367109

_space_group_name_H-M_alt    "P 1"
_space_group_IT_number       1

loop_
  _space_group_symop_operation_xyz
  'x, y, z'

loop_
  _atom_site_type_symbol
  _atom_site_label
  _atom_site_symmetry_multiplicity
  _atom_site_fract_x
  _atom_site_fract_y
  _atom_site_fract_z
  _atom_site_occupancy
  Br  Br1       1.0  0.40274369716644287  0.12065321207046499  0.8988069295883179  1.0000
  Pd  Pd1       1.0  0.8952996134757996  0.9469898939132688  0.7552393078804015  1.0000
  Pd  Pd2       1.0  0.9097334742546082  0.3253828287124633  0.22159086167812345  1.0000
  Pd  Pd3       1.0  0.8985446095466614  0.9709541797637938  0.17590902745723713  1.0000
  S   S1        1.0  0.4071333110332489  0.9596979022026063  0.5912725925445557  1.0000
  Th  Th1       1.0  0.41030415892601013  0.7539930939674376  0.21395757794380185  1.0000
  Zr  Zr1       1.0  0.8906189203262329  0.41191005706787104  0.03933244198560709  1.0000
  Zr  Zr2       1.0  0.4180627167224884  0.30521160364151007  0.8790097832679749  1.0000
  Zr  Zr3       1.0  0.3918783962726593  0.3014496266841888  0.5070488452911376  1.0000
  Zr  Zr4       1.0  0.8981810808181763  0.7939213514328001  0.6877945661544799  1.0000
  Zr  Zr5       1.0  0.8887796998023987  0.3671143651008606  0.1973723173141479  1.0000
