data_image0
_chemical_formula_structural       ClF4GaIrKOPrRe
_chemical_formula_sum              "Cl1 F4 Ga1 Ir1 K1 O1 Pr1 Re1"
_cell_length_a       6.060799475195957
_cell_length_b       6.0674718210487395
_cell_length_c       6.8178181648254395
_cell_angle_alpha    90.11726746576394
_cell_angle_beta     89.93676515674058
_cell_angle_gamma    119.60762980548652

_space_group_name_H-M_alt    "P 1"
_space_group_IT_number       1

loop_
  _space_group_symop_operation_xyz
  'x, y, z'

loop_
  _atom_site_type_symbol
  _atom_site_label
  _atom_site_symmetry_multiplicity
  _atom_site_fract_x
  _atom_site_fract_y
  _atom_site_fract_z
  _atom_site_occupancy
  Cl  Cl1       1.0  0.5225996375083923  0.2500571310520172  0.0644344761967659  1.0000
  F   F1        1.0  0.5158014297485352  0.75174480676651  0.24800421297550201  1.0000
  F   F2        1.0  0.03786202520132065  0.739407479763031  0.24688728153705597  1.0000
  F   F3        1.0  0.058158230036497116  0.265900194644928  0.26810675859451294  1.0000
  F   F4        1.0  0.2317562848329544  0.6642985939979553  0.7478727102279662  1.0000
  Ga  Ga1       1.0  0.9853774309158325  0.38341811299324036  0.545369029045105  1.0000
  Ir  Ir1       1.0  0.6884631514549255  0.5675479173660278  0.34074297547340393  1.0000
  K   K1        1.0  0.8449005484580994  0.8953709602355957  0.8894745111465455  1.0000
  O   O1        1.0  0.6775498390197754  0.4283556640148163  0.5750240087509155  1.0000
  Pr  Pr1       1.0  0.35854658484458923  0.01317321415990591  0.46849292516708374  1.0000
  Re  Re1       1.0  0.1879030466079712  0.5606497526168823  0.048591505736112595  1.0000
