data_image0
_chemical_formula_structural       Ga3Ir3K3Re2
_chemical_formula_sum              "Ga3 Ir3 K3 Re2"
_cell_length_a       4.952410719015438
_cell_length_b       7.646451502705088
_cell_length_c       7.668223857879639
_cell_angle_alpha    119.80230102214227
_cell_angle_beta     90.04386834823741
_cell_angle_gamma    90.0162773375403

_space_group_name_H-M_alt    "P 1"
_space_group_IT_number       1

loop_
  _space_group_symop_operation_xyz
  'x, y, z'

loop_
  _atom_site_type_symbol
  _atom_site_label
  _atom_site_symmetry_multiplicity
  _atom_site_fract_x
  _atom_site_fract_y
  _atom_site_fract_z
  _atom_site_occupancy
  Ga  Ga1       1.0  0.5107204914093018  0.2607671320438385  0.4525872468948364  1.0000
  Ga  Ga2       1.0  0.009275894612073898  0.4439293444156647  0.45568591356277466  1.0000
  Ga  Ga3       1.0  0.007569449488073587  0.06909698247909546  0.759405791759491  1.0000
  Ir  Ir1       1.0  0.008249986916780472  0.11084307730197906  0.45266419649124146  1.0000
  Ir  Ir2       1.0  0.007449389435350895  0.44845816493034363  0.12599039077758792  1.0000
  Ir  Ir3       1.0  0.00832242053002119  0.4371742904186249  0.774756908416748  1.0000
  K   K1        1.0  0.509289562702179  0.7626643776893616  0.8549041748046875  1.0000
  K   K2        1.0  0.5076992511749268  0.7842673659324646  0.41190001368522644  1.0000
  K   K3        1.0  0.5069813132286072  0.3116346299648285  0.9377556443214417  1.0000
  Re  Re1       1.0  0.007592678070068359  0.1046246811747551  0.12212450802326202  1.0000
  Re  Re2       1.0  0.00803575199097395  0.7702863216400146  0.12499392032623291  1.0000
