data_image0
_chemical_formula_structural       ClF4GaGeHKReZr
_chemical_formula_sum              "Cl1 F4 Ga1 Ge1 H1 K1 Re1 Zr1"
_cell_length_a       6.067308544521491
_cell_length_b       6.060147605171291
_cell_length_c       6.624661445617676
_cell_angle_alpha    90.03020970395526
_cell_angle_beta     89.93091775790298
_cell_angle_gamma    119.07039156328383

_space_group_name_H-M_alt    "P 1"
_space_group_IT_number       1

loop_
  _space_group_symop_operation_xyz
  'x, y, z'

loop_
  _atom_site_type_symbol
  _atom_site_label
  _atom_site_symmetry_multiplicity
  _atom_site_fract_x
  _atom_site_fract_y
  _atom_site_fract_z
  _atom_site_occupancy
  Cl  Cl1       1.0  0.2089003175497055  0.34849488735198975  0.018076248466968536  1.0000
  F   F1        1.0  0.21622668206691742  0.3537188470363617  0.5204310417175293  1.0000
  F   F2        1.0  0.7119525074958801  0.35957425832748413  0.8148943781852721  1.0000
  F   F3        1.0  0.20882876217365265  0.8613424301147461  0.3660413324832916  1.0000
  F   F4        1.0  0.7154911756515503  0.3567541241645813  0.35627031326293945  1.0000
  Ga  Ga1       1.0  0.05323406308889389  0.036293089389801025  0.6013243794441223  1.0000
  Ge  Ge1       1.0  0.6837776899337769  0.8386097550392151  0.5839311480522155  1.0000
  H   H1        1.0  0.2075815349817276  0.8692277669906616  0.7871850728988647  1.0000
  K   K1        1.0  0.7101497054100037  0.853308916091919  0.09862804412841798  1.0000
  Re  Re1       1.0  0.4911979138851166  0.13183394074440002  0.5965539216995239  1.0000
  Zr  Zr1       1.0  0.010881935246288776  0.5603418350219727  0.5978410243988037  1.0000
