data_image0
_chemical_formula_structural       Ga3Ir2K2Re4
_chemical_formula_sum              "Ga3 Ir2 K2 Re4"
_cell_length_a       5.453254989057398
_cell_length_b       6.934126283910652
_cell_length_c       6.899250507354736
_cell_angle_alpha    119.40873986007601
_cell_angle_beta     89.96131437549818
_cell_angle_gamma    90.03538814398013

_space_group_name_H-M_alt    "P 1"
_space_group_IT_number       1

loop_
  _space_group_symop_operation_xyz
  'x, y, z'

loop_
  _atom_site_type_symbol
  _atom_site_label
  _atom_site_symmetry_multiplicity
  _atom_site_fract_x
  _atom_site_fract_y
  _atom_site_fract_z
  _atom_site_occupancy
  Ga  Ga1       1.0  0.6567916870117188  0.18055550754070282  0.5262222290039062  1.0000
  Ga  Ga2       1.0  0.4004935026168823  0.19154462218284607  0.8852747678756714  1.0000
  Ga  Ga3       1.0  0.15325181186199188  0.8586406111717224  0.853538453578949  1.0000
  Ir  Ir1       1.0  0.6491036415100098  0.32752174139022827  0.2305467277765274  1.0000
  Ir  Ir2       1.0  0.650431215763092  0.8592819571495056  0.6478706002235413  1.0000
  K   K1        1.0  0.15736058354377747  0.8616006374359131  0.370022714138031  1.0000
  K   K2        1.0  0.6503831744194031  0.7160450220108032  0.027406331151723928  1.0000
  Re  Re1       1.0  0.9043858647346497  0.5168681740760803  0.5636059045791626  1.0000
  Re  Re2       1.0  0.9000281095504761  0.19300785660743713  0.8833853006362915  1.0000
  Re  Re3       1.0  0.1477598249912262  0.27945369482040405  0.22916632890701294  1.0000
  Re  Re4       1.0  0.3938152492046356  0.5165205597877502  0.5609154105186462  1.0000
