data_image0
_chemical_formula_structural       AlAsCsGa4HOPtZr
_chemical_formula_sum              "Al1 As1 Cs1 Ga4 H1 O1 Pt1 Zr1"
_cell_length_a       7.042847540853579
_cell_length_b       6.779222629790508
_cell_length_c       6.76234769821167
_cell_angle_alpha    108.24092452696776
_cell_angle_beta     108.25251236707766
_cell_angle_gamma    112.87610268518195

_space_group_name_H-M_alt    "P 1"
_space_group_IT_number       1

loop_
  _space_group_symop_operation_xyz
  'x, y, z'

loop_
  _atom_site_type_symbol
  _atom_site_label
  _atom_site_symmetry_multiplicity
  _atom_site_fract_x
  _atom_site_fract_y
  _atom_site_fract_z
  _atom_site_occupancy
  Al  Al1       1.0  0.9030888080596924  0.19804129004478455  0.30444473028182983  1.0000
  As  As1       1.0  0.6704983711242676  0.7006500959396362  0.542709231376648  1.0000
  Cs  Cs1       1.0  0.4019489884376526  0.19887779653072357  0.02800596132874489  1.0000
  Ga  Ga1       1.0  0.013688533566892147  0.7079567313194275  0.8383402824401855  1.0000
  Ga  Ga2       1.0  0.6934782862663269  0.8332302570343018  0.7757239937782288  1.0000
  Ga  Ga3       1.0  0.928549587726593  0.21679189801216125  0.04556881636381149  1.0000
  Ga  Ga4       1.0  0.8901697993278503  0.6826336979866028  0.4491652548313141  1.0000
  H   H1        1.0  0.17009615898132324  0.772620439529419  0.5172426104545593  1.0000
  O   O1        1.0  0.9158697128295898  0.20174247026443481  0.03869418799877167  1.0000
  Pt  Pt1       1.0  0.4347818195819855  0.8493460416793823  0.19942393898963923  1.0000
  Zr  Zr1       1.0  0.4352596402168274  0.1826629340648651  0.6464903354644775  1.0000
