data_image0
_chemical_formula_structural       AsClCsGa3Hg2NiOZn
_chemical_formula_sum              "As1 Cl1 Cs1 Ga3 Hg2 Ni1 O1 Zn1"
_cell_length_a       6.78324789774315
_cell_length_b       7.030038771575071
_cell_length_c       7.166800498962402
_cell_angle_alpha    107.21960791153475
_cell_angle_beta     109.8207162404597
_cell_angle_gamma    111.63716957786096

_space_group_name_H-M_alt    "P 1"
_space_group_IT_number       1

loop_
  _space_group_symop_operation_xyz
  'x, y, z'

loop_
  _atom_site_type_symbol
  _atom_site_label
  _atom_site_symmetry_multiplicity
  _atom_site_fract_x
  _atom_site_fract_y
  _atom_site_fract_z
  _atom_site_occupancy
  As  As1       1.0  0.33542731404304504  0.5620930194854736  0.12623904645442965  1.0000
  Cl  Cl1       1.0  0.9872561693191529  0.25381505489349365  0.3025974333286285  1.0000
  Cs  Cs1       1.0  0.2749166488647461  0.1222945973277092  0.46029683947563166  1.0000
  Ga  Ga1       1.0  0.27582550048828125  0.3417727053165436  0.07668292522430423  1.0000
  Ga  Ga2       1.0  0.6717548966407776  0.6702973246574402  0.5806013345718384  1.0000
  Ga  Ga3       1.0  0.021841201931238174  0.6622738838195801  0.572466254234314  1.0000
  Hg  Hg1       1.0  0.6569274663925171  0.9016757011413574  0.8897370100021361  1.0000
  Hg  Hg2       1.0  0.666836678981781  0.30294927954673767  0.5710812211036682  1.0000
  Ni  Ni1       1.0  0.033898431807756424  0.5646372437477112  0.8356604576110839  1.0000
  O   O1        1.0  0.9974201321601869  0.5817382335662842  0.8451766967773436  1.0000
  Zn  Zn1       1.0  0.41705611348152166  0.03342488035559654  0.32475790381431574  1.0000
