data_image0
_chemical_formula_structural       Al2As2Ga4HgRuZn
_chemical_formula_sum              "Al2 As2 Ga4 Hg1 Ru1 Zn1"
_cell_length_a       6.660671681198195
_cell_length_b       6.690157331446614
_cell_length_c       6.824680328369141
_cell_angle_alpha    107.46361554833821
_cell_angle_beta     109.02706125709695
_cell_angle_gamma    111.71050780703742

_space_group_name_H-M_alt    "P 1"
_space_group_IT_number       1

loop_
  _space_group_symop_operation_xyz
  'x, y, z'

loop_
  _atom_site_type_symbol
  _atom_site_label
  _atom_site_symmetry_multiplicity
  _atom_site_fract_x
  _atom_site_fract_y
  _atom_site_fract_z
  _atom_site_occupancy
  Al  Al1       1.0  0.23150368034839633  0.14407797157764435  0.43796637654304504  1.0000
  Al  Al2       1.0  0.27411577105522156  0.14992910623550415  0.45067664980888367  1.0000
  As  As1       1.0  0.9919721484184266  0.6621696352958679  0.00047709941281951705  1.0000
  As  As2       1.0  0.2675364315509796  0.7828220129013062  0.451477974653244  1.0000
  Ga  Ga1       1.0  0.7656802535057068  0.19689643383026123  0.6835890412330627  1.0000
  Ga  Ga2       1.0  0.3217569589614868  0.44438624382019043  0.8870233297348022  1.0000
  Ga  Ga3       1.0  0.06953597813844681  0.6838058233261108  0.13991872966289529  1.0000
  Ga  Ga4       1.0  0.5717206001281738  0.6762047410011292  0.16724561154842385  1.0000
  Hg  Hg1       1.0  0.5329075455665588  0.32412222027778625  0.3000470101833344  1.0000
  Ru  Ru1       1.0  0.26958709955215454  0.18255962431430817  0.481841504573822  1.0000
  Zn  Zn1       1.0  0.9964954257011415  0.6563799381256104  0.76204913854599  1.0000
