data_image0
_chemical_formula_structural       Al2As3CsGa4O
_chemical_formula_sum              "Al2 As3 Cs1 Ga4 O1"
_cell_length_a       7.3463699036734615
_cell_length_b       7.5100683381748565
_cell_length_c       7.467033386230469
_cell_angle_alpha    108.67703459637144
_cell_angle_beta     109.28373723537197
_cell_angle_gamma    109.78467588105902

_space_group_name_H-M_alt    "P 1"
_space_group_IT_number       1

loop_
  _space_group_symop_operation_xyz
  'x, y, z'

loop_
  _atom_site_type_symbol
  _atom_site_label
  _atom_site_symmetry_multiplicity
  _atom_site_fract_x
  _atom_site_fract_y
  _atom_site_fract_z
  _atom_site_occupancy
  Al  Al1       1.0  0.5394414663314819  0.8456452488899232  0.7296106815338135  1.0000
  Al  Al2       1.0  0.5925222039222717  0.09014607220888138  0.22492812573909757  1.0000
  As  As1       1.0  0.999228298664093  0.875939428806305  0.4062002599239349  1.0000
  As  As2       1.0  0.9719715118408203  0.8668278455734254  0.7136368751525879  1.0000
  As  As3       1.0  0.4961252808570862  0.7530445456504822  0.30916279554367065  1.0000
  Cs  Cs1       1.0  0.9905275106430054  0.27543094754219055  0.9164411425590514  1.0000
  Ga  Ga1       1.0  0.37111711502075195  0.16128602623939514  0.9577267765998839  1.0000
  Ga  Ga2       1.0  0.7091313600540161  0.361621230840683  0.8148455619812011  1.0000
  Ga  Ga3       1.0  0.3291403651237488  0.6720265746116638  0.019717181101441442  1.0000
  Ga  Ga4       1.0  0.5906642079353333  0.5767926573753357  0.6736301183700562  1.0000
  O   O1        1.0  0.20844195783138275  0.3782934844493866  0.25376272201538086  1.0000
