data_image0
_chemical_formula_structural       AsAu5Ga5
_chemical_formula_sum              "As1 Au5 Ga5"
_cell_length_a       6.3197760533169856
_cell_length_b       7.4901536442421275
_cell_length_c       7.057115077972412
_cell_angle_alpha    124.37402624681916
_cell_angle_beta     89.2043189607334
_cell_angle_gamma    90.0646106716782

_space_group_name_H-M_alt    "P 1"
_space_group_IT_number       1

loop_
  _space_group_symop_operation_xyz
  'x, y, z'

loop_
  _atom_site_type_symbol
  _atom_site_label
  _atom_site_symmetry_multiplicity
  _atom_site_fract_x
  _atom_site_fract_y
  _atom_site_fract_z
  _atom_site_occupancy
  As  As1       1.0  0.22444066405296326  0.8056179285049438  0.47647309303283686  1.0000
  Au  Au1       1.0  0.4178873896598816  0.31102651357650757  0.9945966601371764  1.0000
  Au  Au2       1.0  0.24456195533275607  0.850900411605835  0.26300978660583496  1.0000
  Au  Au3       1.0  0.7400023937225342  0.7843349575996399  0.3879576921463012  1.0000
  Au  Au4       1.0  0.7225054502487183  0.0005615949630737305  0.5050445199012756  1.0000
  Au  Au5       1.0  0.7684946656227112  0.17631766200065613  0.10161401331424712  1.0000
  Ga  Ga1       1.0  0.23464046418666842  0.5390834808349609  0.6397580504417418  1.0000
  Ga  Ga2       1.0  0.22303423285484314  0.3567766547203064  0.7947788834571837  1.0000
  Ga  Ga3       1.0  0.7376644015312195  0.9816883206367493  0.25752508640289307  1.0000
  Ga  Ga4       1.0  0.22775086760520935  0.8058610558509827  0.5020638108253479  1.0000
  Ga  Ga5       1.0  0.5004099011421204  0.48626530170440674  0.22872367501258847  1.0000
