data_image0
_chemical_formula_structural       AlAsAu4ClGa4
_chemical_formula_sum              "Al1 As1 Au4 Cl1 Ga4"
_cell_length_a       6.280397014772223
_cell_length_b       5.858557376340028
_cell_length_c       5.8450822830200195
_cell_angle_alpha    117.95180242425744
_cell_angle_beta     112.89808044209977
_cell_angle_gamma    94.88150698792354

_space_group_name_H-M_alt    "P 1"
_space_group_IT_number       1

loop_
  _space_group_symop_operation_xyz
  'x, y, z'

loop_
  _atom_site_type_symbol
  _atom_site_label
  _atom_site_symmetry_multiplicity
  _atom_site_fract_x
  _atom_site_fract_y
  _atom_site_fract_z
  _atom_site_occupancy
  Al  Al1       1.0  0.9080394506454468  0.6334015130996704  0.9810875654220581  1.0000
  As  As1       1.0  0.6296958923339844  0.9210197329521178  0.692075788974762  1.0000
  Au  Au1       1.0  0.12718847393989563  0.44717133045196533  0.6608766913414  1.0000
  Au  Au2       1.0  0.40017980337142944  0.33586230874061584  0.39294111728668213  1.0000
  Au  Au3       1.0  0.6202790141105652  0.891277015209198  0.00688075181096777  1.0000
  Au  Au4       1.0  0.9138398170471191  0.867546558380127  0.3094089925289154  1.0000
  Cl  Cl1       1.0  0.3523189425468445  0.6396772265434265  0.9798396229743958  1.0000
  Ga  Ga1       1.0  0.6631256341934204  0.47167342901229853  0.06459387391805649  1.0000
  Ga  Ga2       1.0  0.7512831687927246  0.3690652847290039  0.2935296297073364  1.0000
  Ga  Ga3       1.0  0.40423092246055603  0.2078043818473816  0.372043251991272  1.0000
  Ga  Ga4       1.0  0.39463910460472107  0.3849007487297058  0.5625333786010742  1.0000
