data_image0
_chemical_formula_structural       IrSiTi5ZnZr2
_chemical_formula_sum              "Ir1 Si1 Ti5 Zn1 Zr2"
_cell_length_a       4.931676764503092
_cell_length_b       5.160166278918168
_cell_length_c       5.198477268218994
_cell_angle_alpha    105.14225401530629
_cell_angle_beta     92.58922269892388
_cell_angle_gamma    104.23718337795995

_space_group_name_H-M_alt    "P 1"
_space_group_IT_number       1

loop_
  _space_group_symop_operation_xyz
  'x, y, z'

loop_
  _atom_site_type_symbol
  _atom_site_label
  _atom_site_symmetry_multiplicity
  _atom_site_fract_x
  _atom_site_fract_y
  _atom_site_fract_z
  _atom_site_occupancy
  Ir  Ir1       1.0  0.39481595158576965  0.7264180779457092  0.20185354351997375  1.0000
  Si  Si1       1.0  0.37270253896713257  0.6782267093658447  0.1355189085006714  1.0000
  Ti  Ti1       1.0  0.9022300839424133  0.2980390787124634  0.24098993837833405  1.0000
  Ti  Ti2       1.0  0.39730966091156006  0.6202519536018372  0.6768769025802612  1.0000
  Ti  Ti3       1.0  0.8923002481460571  0.10939247161149979  0.6086981892585754  1.0000
  Ti  Ti4       1.0  0.3976302742958069  0.4620203375816345  0.5259809494018555  1.0000
  Ti  Ti5       1.0  0.8894221782684326  0.20733095705509186  0.5096807479858398  1.0000
  Zn  Zn1       1.0  0.8861647248268127  0.5095863342285156  0.061219196766614914  1.0000
  Zr  Zr1       1.0  0.41172096133232117  0.8724908232688904  0.4791340231895447  1.0000
  Zr  Zr2       1.0  0.385395348072052  0.6584485769271851  0.4728238880634308  1.0000
