data_image0
_chemical_formula_structural       IIrScTi5Zr2
_chemical_formula_sum              "I1 Ir1 Sc1 Ti5 Zr2"
_cell_length_a       6.042282695546196
_cell_length_b       6.0939138491363884
_cell_length_c       6.413773536682129
_cell_angle_alpha    68.36705583688824
_cell_angle_beta     65.65707034029852
_cell_angle_gamma    67.92249783543419

_space_group_name_H-M_alt    "P 1"
_space_group_IT_number       1

loop_
  _space_group_symop_operation_xyz
  'x, y, z'

loop_
  _atom_site_type_symbol
  _atom_site_label
  _atom_site_symmetry_multiplicity
  _atom_site_fract_x
  _atom_site_fract_y
  _atom_site_fract_z
  _atom_site_occupancy
  I   I1        1.0  0.6341028809547424  0.6402422189712524  0.27685341238975525  1.0000
  Ir  Ir1       1.0  0.6370301246643066  0.2536546587944031  0.8215651512145996  1.0000
  Sc  Sc1       1.0  0.1307920217514038  0.4591697156429291  0.6854696869850159  1.0000
  Ti  Ti1       1.0  0.6345113515853882  0.4756571650505066  0.14224694669246674  1.0000
  Ti  Ti2       1.0  0.12517639994621277  0.6384040117263794  0.4185943007469177  1.0000
  Ti  Ti3       1.0  0.6259907484054565  0.576758861541748  0.21801024675369263  1.0000
  Ti  Ti4       1.0  0.13518072664737701  0.6460248827934265  0.37025120854377747  1.0000
  Ti  Ti5       1.0  0.1423654854297638  0.6597887873649597  0.9496167302131653  1.0000
  Zr  Zr1       1.0  0.14247742295265198  0.4983985126018524  0.647476315498352  1.0000
  Zr  Zr2       1.0  0.6432772278785706  0.9898380637168884  0.1310051679611206  1.0000
