data_image0
_chemical_formula_structural       Ti10
_chemical_formula_sum              "Ti10"
_cell_length_a       5.535632348838729
_cell_length_b       5.60672269157713
_cell_length_c       6.989664554595947
_cell_angle_alpha    73.39925682397681
_cell_angle_beta     68.02360484919369
_cell_angle_gamma    63.056263205080285

_space_group_name_H-M_alt    "P 1"
_space_group_IT_number       1

loop_
  _space_group_symop_operation_xyz
  'x, y, z'

loop_
  _atom_site_type_symbol
  _atom_site_label
  _atom_site_symmetry_multiplicity
  _atom_site_fract_x
  _atom_site_fract_y
  _atom_site_fract_z
  _atom_site_occupancy
  Ti  Ti1       1.0  0.7035596966743469  0.8825096487998962  0.7816537022590637  1.0000
  Ti  Ti2       1.0  0.9545012712478638  0.4412669539451599  0.3120296895503997  1.0000
  Ti  Ti3       1.0  0.13467353582382202  0.2507898211479187  0.4964020550251007  1.0000
  Ti  Ti4       1.0  0.7251521944999695  0.2027146965265274  0.8811343908309937  1.0000
  Ti  Ti5       1.0  0.7412286400794983  0.13490571081638336  0.5696650147438049  1.0000
  Ti  Ti6       1.0  0.9824826121330261  0.5595906972885132  0.4352627098560333  1.0000
  Ti  Ti7       1.0  0.3680112361907959  0.24427387118339539  0.7009885907173157  1.0000
  Ti  Ti8       1.0  0.4078591763973236  0.8732070326805115  0.23598316311836243  1.0000
  Ti  Ti9       1.0  0.38420045375823975  0.16729258000850677  0.19035443663597107  1.0000
  Ti  Ti10      1.0  0.9819334745407104  0.5386089086532593  0.985910952091217  1.0000
