data_image0
_chemical_formula_structural       Ti10
_chemical_formula_sum              "Ti10"
_cell_length_a       4.684014041837974
_cell_length_b       5.222862748952023
_cell_length_c       5.4876813888549805
_cell_angle_alpha    73.99098266547571
_cell_angle_beta     69.9565300193848
_cell_angle_gamma    71.31937280015327

_space_group_name_H-M_alt    "P 1"
_space_group_IT_number       1

loop_
  _space_group_symop_operation_xyz
  'x, y, z'

loop_
  _atom_site_type_symbol
  _atom_site_label
  _atom_site_symmetry_multiplicity
  _atom_site_fract_x
  _atom_site_fract_y
  _atom_site_fract_z
  _atom_site_occupancy
  Ti  Ti1       1.0  0.8522228598594666  0.931828498840332  0.004236322827637196  1.0000
  Ti  Ti2       1.0  0.641312301158905  0.5778456926345825  0.12900838255882263  1.0000
  Ti  Ti3       1.0  0.15082640945911407  0.05107497051358223  0.7919015884399413  1.0000
  Ti  Ti4       1.0  0.1419154405593872  0.5623570680618286  0.07263155281543732  1.0000
  Ti  Ti5       1.0  0.1673354059457779  0.5929722785949707  0.6709096431732178  1.0000
  Ti  Ti6       1.0  0.5602827668190002  0.32758623361587524  0.3909191787242889  1.0000
  Ti  Ti7       1.0  0.8751329779624939  0.7912484407424927  0.9803377389907836  1.0000
  Ti  Ti8       1.0  0.13289348781108856  0.9219352602958679  0.8362784385681151  1.0000
  Ti  Ti9       1.0  0.8334439992904663  0.10663668066263199  0.8813036084175109  1.0000
  Ti  Ti10      1.0  0.37389254570007324  0.6470110416412354  0.9373652338981627  1.0000
