data_image0
_chemical_formula_structural       AlTi3ZnZr5
_chemical_formula_sum              "Al1 Ti3 Zn1 Zr5"
_cell_length_a       5.7264848591448425
_cell_length_b       5.630343917816388
_cell_length_c       6.0107831954956055
_cell_angle_alpha    92.59903020276295
_cell_angle_beta     90.67653356795849
_cell_angle_gamma    89.71236478188118

_space_group_name_H-M_alt    "P 1"
_space_group_IT_number       1

loop_
  _space_group_symop_operation_xyz
  'x, y, z'

loop_
  _atom_site_type_symbol
  _atom_site_label
  _atom_site_symmetry_multiplicity
  _atom_site_fract_x
  _atom_site_fract_y
  _atom_site_fract_z
  _atom_site_occupancy
  Al  Al1       1.0  0.39695435762405396  0.02688106708228588  0.6783828139305115  1.0000
  Ti  Ti1       1.0  0.9205837249755859  0.06857478618621826  0.04234994575381279  1.0000
  Ti  Ti2       1.0  0.9029985666275024  0.1831262856721878  0.6464593410491943  1.0000
  Ti  Ti3       1.0  0.4017840623855591  0.5067613124847412  0.9199416041374207  1.0000
  Zn  Zn1       1.0  0.39940547943115234  0.5117800831794739  0.16120627522468567  1.0000
  Zr  Zr1       1.0  0.857886016368866  0.9406195282936096  0.5662170648574829  1.0000
  Zr  Zr2       1.0  0.3929952383041382  0.26225897669792175  0.25093215703964233  1.0000
  Zr  Zr3       1.0  0.39760199189186096  0.7680719494819641  0.15940606594085693  1.0000
  Zr  Zr4       1.0  0.8915026783943176  0.7246280312538147  0.5684924125671387  1.0000
  Zr  Zr5       1.0  0.8941014409065247  0.3675243854522705  0.11144647747278214  1.0000
