data_image0
_chemical_formula_structural       GaHIIr2NPTiZr2
_chemical_formula_sum              "Ga1 H1 I1 Ir2 N1 P1 Ti1 Zr2"
_cell_length_a       4.461578118002423
_cell_length_b       5.82362188818442
_cell_length_c       5.900051116943359
_cell_angle_alpha    58.34026789279591
_cell_angle_beta     21.62172449272887
_cell_angle_gamma    48.571621975082124

_space_group_name_H-M_alt    "P 1"
_space_group_IT_number       1

loop_
  _space_group_symop_operation_xyz
  'x, y, z'

loop_
  _atom_site_type_symbol
  _atom_site_label
  _atom_site_symmetry_multiplicity
  _atom_site_fract_x
  _atom_site_fract_y
  _atom_site_fract_z
  _atom_site_occupancy
  Ga  Ga1       1.0  0.008748366497457135  0.9847291707992554  0.055866904556751154  1.0000
  H   H1        1.0  0.31579941511154175  0.3327055275440216  0.037739902734756484  1.0000
  I   I1        1.0  0.2591356635093689  0.5595747828483582  0.688782274723053  1.0000
  Ir  Ir1       1.0  0.7901105284690857  0.4677238166332245  0.4201856255531311  1.0000
  Ir  Ir2       1.0  0.7801538705825807  0.008277880027890205  0.20580883324146276  1.0000
  N   N1        1.0  0.5353822708129885  0.31003084778785706  0.6892778277397155  1.0000
  P   P1        1.0  0.2720213532447815  0.15322625637054443  0.2724435329437256  1.0000
  Ti  Ti1       1.0  0.3023843467235565  0.11935465782880783  0.9869346618652344  1.0000
  Zr  Zr1       1.0  0.033603608608245954  0.6175411343574524  0.6540650725364684  1.0000
  Zr  Zr2       1.0  0.3107532858848572  0.007077465765178204  0.1079079732298851  1.0000
