data_image0
_chemical_formula_structural       La2Si5
_chemical_formula_sum              "La2 Si5"
_cell_length_a       5.399223843436693
_cell_length_b       5.529299758147863
_cell_length_c       6.528340816497803
_cell_angle_alpha    115.09431162676587
_cell_angle_beta     111.44272232504093
_cell_angle_gamma    91.86942847494889

_space_group_name_H-M_alt    "P 1"
_space_group_IT_number       1

loop_
  _space_group_symop_operation_xyz
  'x, y, z'

loop_
  _atom_site_type_symbol
  _atom_site_label
  _atom_site_symmetry_multiplicity
  _atom_site_fract_x
  _atom_site_fract_y
  _atom_site_fract_z
  _atom_site_occupancy
  La  La1       1.0  0.44016411900520325  0.7218212485313416  0.4756621718406678  1.0000
  La  La2       1.0  0.0689784437417984  0.7953234910964966  0.9505271315574646  1.0000
  Si  Si1       1.0  0.6618845462799072  0.9699425101280214  0.5027734041213989  1.0000
  Si  Si2       1.0  0.3191009759902954  0.22761042416095736  0.25821179151535034  1.0000
  Si  Si3       1.0  0.8895368576049805  0.7463259696960449  0.6044784784317017  1.0000
  Si  Si4       1.0  0.0751583427190781  0.9496947526931764  0.8752946257591248  1.0000
  Si  Si5       1.0  0.16933459043502808  0.44574639201164246  0.25816306471824646  1.0000
