data_image0
_chemical_formula_structural       Nd5Pt2
_chemical_formula_sum              "Nd5 Pt2"
_cell_length_a       4.581908656535082
_cell_length_b       4.895230932414526
_cell_length_c       8.248143196105957
_cell_angle_alpha    108.16623335071493
_cell_angle_beta     91.41614389151619
_cell_angle_gamma    91.2143537588773

_space_group_name_H-M_alt    "P 1"
_space_group_IT_number       1

loop_
  _space_group_symop_operation_xyz
  'x, y, z'

loop_
  _atom_site_type_symbol
  _atom_site_label
  _atom_site_symmetry_multiplicity
  _atom_site_fract_x
  _atom_site_fract_y
  _atom_site_fract_z
  _atom_site_occupancy
  Nd  Nd1       1.0  0.6037114858627319  0.9473288655281067  0.5617229342460632  1.0000
  Nd  Nd2       1.0  0.11784375458955765  0.8179957270622253  0.5626683831214905  1.0000
  Nd  Nd3       1.0  0.11440183222293854  0.36392876505851746  0.6290585398674011  1.0000
  Nd  Nd4       1.0  0.11129481345415115  0.9695449471473694  0.9737883806228638  1.0000
  Nd  Nd5       1.0  0.6137730479240417  0.8308850526809692  0.7814054489135742  1.0000
  Pt  Pt1       1.0  0.6183279752731323  0.17438799142837524  0.5060441493988037  1.0000
  Pt  Pt2       1.0  0.11874377727508545  0.3040582239627838  0.45791658759117126  1.0000
