data_image0
_chemical_formula_structural       Nd3Pt3Te
_chemical_formula_sum              "Nd3 Pt3 Te1"
_cell_length_a       5.588023118439655
_cell_length_b       5.98978982986332
_cell_length_c       6.823426723480225
_cell_angle_alpha    77.7068840814013
_cell_angle_beta     70.22503560457379
_cell_angle_gamma    70.77922340454771

_space_group_name_H-M_alt    "P 1"
_space_group_IT_number       1

loop_
  _space_group_symop_operation_xyz
  'x, y, z'

loop_
  _atom_site_type_symbol
  _atom_site_label
  _atom_site_symmetry_multiplicity
  _atom_site_fract_x
  _atom_site_fract_y
  _atom_site_fract_z
  _atom_site_occupancy
  Nd  Nd1       1.0  0.6414096355438232  0.5826941132545471  0.13870887458324432  1.0000
  Nd  Nd2       1.0  0.17413891851902008  0.5178241729736328  0.6017290949821472  1.0000
  Nd  Nd3       1.0  0.640801727771759  0.01522853132337332  0.21013712882995608  1.0000
  Pt  Pt1       1.0  0.20610806345939636  0.7960711717605591  0.8173618912696838  1.0000
  Pt  Pt2       1.0  0.3504548668861389  0.04434715956449509  0.8523463010787964  1.0000
  Pt  Pt3       1.0  0.6597192287445068  0.7029511332511902  0.05788647383451462  1.0000
  Te  Te1       1.0  0.6460638642311096  0.024276411160826683  0.4613562226295472  1.0000
