data_image0
_chemical_formula_structural       CaHMo3Pt4
_chemical_formula_sum              "Ca1 H1 Mo3 Pt4"
_cell_length_a       4.720197496109305
_cell_length_b       4.697063332143757
_cell_length_c       9.226183891296387
_cell_angle_alpha    77.7059941975689
_cell_angle_beta     71.96195102547532
_cell_angle_gamma    61.11085630481256

_space_group_name_H-M_alt    "P 1"
_space_group_IT_number       1

loop_
  _space_group_symop_operation_xyz
  'x, y, z'

loop_
  _atom_site_type_symbol
  _atom_site_label
  _atom_site_symmetry_multiplicity
  _atom_site_fract_x
  _atom_site_fract_y
  _atom_site_fract_z
  _atom_site_occupancy
  Ca  Ca1       1.0  0.7894443273544312  0.7590271830558777  0.5350385308265686  1.0000
  H   H1        1.0  0.1409311145544052  0.7828983664512634  0.12373559921979904  1.0000
  Mo  Mo1       1.0  0.23882755637168884  0.4774247407913208  0.8930835127830505  1.0000
  Mo  Mo2       1.0  0.35687506198883057  0.4997923672199249  0.3437844216823578  1.0000
  Mo  Mo3       1.0  0.840409517288208  0.21350370347499847  0.1412249654531479  1.0000
  Pt  Pt1       1.0  0.6661232113838196  0.33004090189933777  0.7207304835319519  1.0000
  Pt  Pt2       1.0  0.5181007981300354  0.9282451868057251  0.19008423388004303  1.0000
  Pt  Pt3       1.0  0.10000582784414291  0.2021690458059311  0.40156954526901245  1.0000
  Pt  Pt4       1.0  0.6505860686302185  0.2437463253736496  0.040834054350852966  1.0000
