data_image0
_chemical_formula_structural       MoO3Pt4Rh
_chemical_formula_sum              "Mo1 O3 Pt4 Rh1"
_cell_length_a       3.8705298311081546
_cell_length_b       4.0492722872132365
_cell_length_c       11.50174617767334
_cell_angle_alpha    99.57234139353774
_cell_angle_beta     97.39914811661897
_cell_angle_gamma    92.42824302767916

_space_group_name_H-M_alt    "P 1"
_space_group_IT_number       1

loop_
  _space_group_symop_operation_xyz
  'x, y, z'

loop_
  _atom_site_type_symbol
  _atom_site_label
  _atom_site_symmetry_multiplicity
  _atom_site_fract_x
  _atom_site_fract_y
  _atom_site_fract_z
  _atom_site_occupancy
  Mo  Mo1       1.0  0.04759512469172478  0.6517094969749451  0.47134697437286377  1.0000
  O   O1        1.0  0.6232141256332397  0.28894972801208496  0.7623599171638489  1.0000
  O   O2        1.0  0.29237425327301025  0.7498088479042052  0.5924186110496521  1.0000
  O   O3        1.0  0.26987212896347046  0.24855622649192807  0.8891674876213074  1.0000
  Pt  Pt1       1.0  0.5762096643447876  0.04233500361442565  0.5070517063140869  1.0000
  Pt  Pt2       1.0  0.9462251663208008  0.18285802006721494  0.6366294026374817  1.0000
  Pt  Pt3       1.0  0.6098273992538452  0.0894671007990837  0.9748173356056213  1.0000
  Pt  Pt4       1.0  0.3300037384033203  0.6597039103507996  0.11834528297185898  1.0000
  Rh  Rh1       1.0  0.12276865541934967  0.14850638806819916  0.9734886288642883  1.0000
