data_image0
_chemical_formula_structural       CrMo3Pt3Te2
_chemical_formula_sum              "Cr1 Mo3 Pt3 Te2"
_cell_length_a       4.428737246740639
_cell_length_b       5.798841613873303
_cell_length_c       10.959692001342773
_cell_angle_alpha    105.04638780579334
_cell_angle_beta     92.87229904062742
_cell_angle_gamma    90.65727435904894

_space_group_name_H-M_alt    "P 1"
_space_group_IT_number       1

loop_
  _space_group_symop_operation_xyz
  'x, y, z'

loop_
  _atom_site_type_symbol
  _atom_site_label
  _atom_site_symmetry_multiplicity
  _atom_site_fract_x
  _atom_site_fract_y
  _atom_site_fract_z
  _atom_site_occupancy
  Cr  Cr1       1.0  0.5959542393684387  0.760514795780182  0.23204655945301056  1.0000
  Mo  Mo1       1.0  0.5571928024291992  0.23769095540046695  0.8875138759613037  1.0000
  Mo  Mo2       1.0  0.062342759221792214  0.8144308924674989  0.3890810012817383  1.0000
  Mo  Mo3       1.0  0.06413319706916809  0.06428258866071701  0.3707726001739502  1.0000
  Pt  Pt1       1.0  0.5779520273208619  0.026719970628619198  0.3808112144470215  1.0000
  Pt  Pt2       1.0  0.5801318883895874  0.07836520671844482  0.6895479559898376  1.0000
  Pt  Pt3       1.0  0.05214463546872139  0.30928149819374084  0.8966343998908997  1.0000
  Te  Te1       1.0  0.567143440246582  0.08935310691595078  0.0045561655424535275  1.0000
  Te  Te2       1.0  0.08010958135128021  0.7800539135932923  0.8784964084625244  1.0000
