data_image0
_chemical_formula_structural       HMo3Pt4Te
_chemical_formula_sum              "H1 Mo3 Pt4 Te1"
_cell_length_a       4.073340811574733
_cell_length_b       5.079732873886672
_cell_length_c       10.248133659362793
_cell_angle_alpha    106.79681521361132
_cell_angle_beta     89.91762039366051
_cell_angle_gamma    91.0125562960354

_space_group_name_H-M_alt    "P 1"
_space_group_IT_number       1

loop_
  _space_group_symop_operation_xyz
  'x, y, z'

loop_
  _atom_site_type_symbol
  _atom_site_label
  _atom_site_symmetry_multiplicity
  _atom_site_fract_x
  _atom_site_fract_y
  _atom_site_fract_z
  _atom_site_occupancy
  H   H1        1.0  0.6788756847381592  0.6096081137657166  0.23467527329921722  1.0000
  Mo  Mo1       1.0  0.1561095267534256  0.5268833637237549  0.725653350353241  1.0000
  Mo  Mo2       1.0  0.16925136744976044  0.3658328056335449  0.5678337216377258  1.0000
  Mo  Mo3       1.0  0.16616351902484894  0.6437777876853943  0.3343561291694641  1.0000
  Pt  Pt1       1.0  0.184540793299675  0.17753350734710693  0.052546240389347076  1.0000
  Pt  Pt2       1.0  0.6777259707450867  0.6474660038948059  0.7277860045433044  1.0000
  Pt  Pt3       1.0  0.6830503940582275  0.036533746868371964  0.10759399086236954  1.0000
  Pt  Pt4       1.0  0.6667556762695312  0.9523171186447144  0.3510235548019409  1.0000
  Te  Te1       1.0  0.6729915738105774  0.7446757555007935  0.5857967138290405  1.0000
