data_image0
_chemical_formula_structural       Au3Li3Nb3
_chemical_formula_sum              "Au3 Li3 Nb3"
_cell_length_a       4.133141872438013
_cell_length_b       5.692077179018191
_cell_length_c       7.166155815124512
_cell_angle_alpha    90.17061287233147
_cell_angle_beta     106.18137368648739
_cell_angle_gamma    90.18116923053931

_space_group_name_H-M_alt    "P 1"
_space_group_IT_number       1

loop_
  _space_group_symop_operation_xyz
  'x, y, z'

loop_
  _atom_site_type_symbol
  _atom_site_label
  _atom_site_symmetry_multiplicity
  _atom_site_fract_x
  _atom_site_fract_y
  _atom_site_fract_z
  _atom_site_occupancy
  Au  Au1       1.0  0.038151949644088745  0.27411437034606934  0.7256272435188293  1.0000
  Au  Au2       1.0  0.43206876516342163  0.5335075259208679  0.5229669213294983  1.0000
  Au  Au3       1.0  0.6451132893562317  0.014369942247867584  0.9307569861412048  1.0000
  Li  Li1       1.0  0.2433144599199295  0.7538135051727295  0.13322895765304565  1.0000
  Li  Li2       1.0  0.24991963803768158  0.2510777711868286  0.14284330606460569  1.0000
  Li  Li3       1.0  0.8269361257553101  0.7425785064697266  0.3299809992313385  1.0000
  Nb  Nb1       1.0  0.04318450391292572  0.7721614837646484  0.7265008091926575  1.0000
  Nb  Nb2       1.0  0.43799489736557007  0.03852904587984085  0.52217698097229  1.0000
  Nb  Nb3       1.0  0.6483266949653625  0.5059270262718201  0.9313477873802185  1.0000
