data_image0
_chemical_formula_structural       AuBiErInLiMoNaNbTe
_chemical_formula_sum              "Au1 Bi1 Er1 In1 Li1 Mo1 Na1 Nb1 Te1"
_cell_length_a       6.383866798284304
_cell_length_b       6.384417480094756
_cell_length_c       7.182582378387451
_cell_angle_alpha    63.63834838355616
_cell_angle_beta     63.565520423413716
_cell_angle_gamma    59.85362906322548

_space_group_name_H-M_alt    "P 1"
_space_group_IT_number       1

loop_
  _space_group_symop_operation_xyz
  'x, y, z'

loop_
  _atom_site_type_symbol
  _atom_site_label
  _atom_site_symmetry_multiplicity
  _atom_site_fract_x
  _atom_site_fract_y
  _atom_site_fract_z
  _atom_site_occupancy
  Au  Au1       1.0  0.5884180068969727  0.6146103143692017  0.7215803861618042  1.0000
  Bi  Bi1       1.0  0.5662248134613037  0.6007153391838074  0.3243640661239624  1.0000
  Er  Er1       1.0  0.9007753729820251  0.8395077586174011  0.32739028334617615  1.0000
  In  In1       1.0  0.5986058115959167  0.13483837246894836  0.7380658984184265  1.0000
  Li  Li1       1.0  0.8373162150382996  0.32694941759109497  0.02661559730768207  1.0000
  Mo  Mo1       1.0  0.3193380534648895  0.35493090748786926  0.0852591171860695  1.0000
  Na  Na1       1.0  0.15744948387145996  0.15316814184188843  0.5520840287208558  1.0000
  Nb  Nb1       1.0  0.3212119936943054  0.8930720090866089  0.023585706949233978  1.0000
  Te  Te1       1.0  0.07275769859552383  0.6370521783828735  0.7851974964141846  1.0000
