data_image0
_chemical_formula_structural       AsGe2HK5O4
_chemical_formula_sum              "As1 Ge2 H1 K5 O4"
_cell_length_a       6.297975382380552
_cell_length_b       6.430027549838315
_cell_length_c       9.331005096435547
_cell_angle_alpha    90.46449055038684
_cell_angle_beta     89.88062060282698
_cell_angle_gamma    111.98372518331654

_space_group_name_H-M_alt    "P 1"
_space_group_IT_number       1

loop_
  _space_group_symop_operation_xyz
  'x, y, z'

loop_
  _atom_site_type_symbol
  _atom_site_label
  _atom_site_symmetry_multiplicity
  _atom_site_fract_x
  _atom_site_fract_y
  _atom_site_fract_z
  _atom_site_occupancy
  As  As1       1.0  0.8406413197517395  0.5203781127929688  0.2737097442150116  1.0000
  Ge  Ge1       1.0  0.3550707697868347  0.6807541847229004  0.7867662906646729  1.0000
  Ge  Ge2       1.0  0.8474302291870117  0.4099901914596557  0.20968683063983917  1.0000
  H   H1        1.0  0.3417443633079529  0.7408744096755981  0.7431866526603699  1.0000
  K   K1        1.0  0.8619744777679443  7.343292236328125e-05  0.39731329679489136  1.0000
  K   K2        1.0  0.8821536302566527  0.9414148926734923  0.2921272814273834  1.0000
  K   K3        1.0  0.8468775749206543  0.011164898984134197  0.22384873032569885  1.0000
  K   K4        1.0  0.8597014546394348  0.2765553593635559  0.009201988577842712  1.0000
  K   K5        1.0  0.3628873825073242  0.21827864646911618  0.03363955765962601  1.0000
  O   O1        1.0  0.3448143005371094  0.16510650515556335  0.11173613369464874  1.0000
  O   O2        1.0  0.2990262806415558  0.7080546617507935  0.43138912320137024  1.0000
  O   O3        1.0  0.34881094098091125  0.7518304586410522  0.3627212643623352  1.0000
  O   O4        1.0  0.8558474779129028  0.8046677708625792  0.752407968044281  1.0000
