data_image0
_chemical_formula_structural       Ca2CsHIK2O3VZnZr
_chemical_formula_sum              "Ca2 Cs1 H1 I1 K2 O3 V1 Zn1 Zr1"
_cell_length_a       6.415681630081042
_cell_length_b       4.771684084639114
_cell_length_c       7.929656505584717
_cell_angle_alpha    87.02446406815376
_cell_angle_beta     72.66411385084159
_cell_angle_gamma    49.18079980007738

_space_group_name_H-M_alt    "P 1"
_space_group_IT_number       1

loop_
  _space_group_symop_operation_xyz
  'x, y, z'

loop_
  _atom_site_type_symbol
  _atom_site_label
  _atom_site_symmetry_multiplicity
  _atom_site_fract_x
  _atom_site_fract_y
  _atom_site_fract_z
  _atom_site_occupancy
  Ca  Ca1       1.0  0.9968819618225097  0.9526875615119934  0.9125507473945618  1.0000
  Ca  Ca2       1.0  0.23986595869064328  0.8391358852386475  0.2921786308288574  1.0000
  Cs  Cs1       1.0  0.6418111324310303  0.9360857009887695  0.8581069707870483  1.0000
  H   H1        1.0  0.8058910369873046  0.9781377911567688  0.2841944098472595  1.0000
  I   I1        1.0  0.5522397756576538  0.2823604345321655  0.011530507355928421  1.0000
  K   K1        1.0  0.41953480243682856  0.041230976581573486  0.14318273961544037  1.0000
  K   K2        1.0  0.4014491438865661  0.21996130049228668  0.8768374919891357  1.0000
  O   O1        1.0  0.9806365966796874  0.6196776032447815  0.5734511017799377  1.0000
  O   O2        1.0  0.43104216456413263  0.6192297339439392  0.1719677448272705  1.0000
  O   O3        1.0  0.4773397743701934  0.6810771822929382  0.7800731062889099  1.0000
  V   V1        1.0  0.06849139928817749  0.7561758756637573  0.07687907665967941  1.0000
  Zn  Zn1       1.0  0.86794775724411  0.7443670630455017  0.02357008121907711  1.0000
  Zr  Zr1       1.0  0.40767583250999445  0.5851324796676636  0.4034588634967804  1.0000
