data_image0
_chemical_formula_structural       Cr2K4NaO6
_chemical_formula_sum              "Cr2 K4 Na1 O6"
_cell_length_a       6.411353678580494
_cell_length_b       7.262311652459859
_cell_length_c       8.5184907913208
_cell_angle_alpha    98.85755380863424
_cell_angle_beta     89.18023254867468
_cell_angle_gamma    90.36291625551415

_space_group_name_H-M_alt    "P 1"
_space_group_IT_number       1

loop_
  _space_group_symop_operation_xyz
  'x, y, z'

loop_
  _atom_site_type_symbol
  _atom_site_label
  _atom_site_symmetry_multiplicity
  _atom_site_fract_x
  _atom_site_fract_y
  _atom_site_fract_z
  _atom_site_occupancy
  Cr  Cr1       1.0  0.9222245812416077  0.8451714515686035  0.2603536546230316  1.0000
  Cr  Cr2       1.0  0.9198268055915833  0.006438099313527346  0.834984540939331  1.0000
  K   K1        1.0  0.4797928035259247  0.1367454081773758  0.39360907673835754  1.0000
  K   K2        1.0  0.9284747838973999  0.6999132037162781  0.2844226062297821  1.0000
  K   K3        1.0  0.45326927304267883  0.10509774088859558  0.6328407526016235  1.0000
  K   K4        1.0  0.635062575340271  0.059148721396923065  0.11628064513206482  1.0000
  Na  Na1       1.0  0.12276467680931091  0.06374531239271164  0.7381752729415894  1.0000
  O   O1        1.0  0.6148788332939148  0.6816456317901611  0.8901692032814026  1.0000
  O   O2        1.0  0.14584681391716003  0.020570173859596252  0.16135087609291077  1.0000
  O   O3        1.0  0.11467404663562775  0.8553463816642761  0.7801980376243591  1.0000
  O   O4        1.0  0.7703251242637634  0.6561042070388794  0.8250205516815186  1.0000
  O   O5        1.0  0.4041766822338104  0.19943712651729584  0.5310973525047302  1.0000
  O   O6        1.0  0.12073574960231781  0.3368701934814453  0.0860741138458252  1.0000
