data_image0
_chemical_formula_structural       CaCs3FKO4RbSrV
_chemical_formula_sum              "Ca1 Cs3 F1 K1 O4 Rb1 Sr1 V1"
_cell_length_a       6.471678038798339
_cell_length_b       6.787636429722172
_cell_length_c       6.887401580810547
_cell_angle_alpha    119.32510018499254
_cell_angle_beta     106.70456149923314
_cell_angle_gamma    107.12541393898863

_space_group_name_H-M_alt    "P 1"
_space_group_IT_number       1

loop_
  _space_group_symop_operation_xyz
  'x, y, z'

loop_
  _atom_site_type_symbol
  _atom_site_label
  _atom_site_symmetry_multiplicity
  _atom_site_fract_x
  _atom_site_fract_y
  _atom_site_fract_z
  _atom_site_occupancy
  Ca  Ca1       1.0  0.47887185215950007  0.24062788486480713  0.2769882082939148  1.0000
  Cs  Cs1       1.0  0.3340301513671875  0.23103784024715424  0.4865202009677887  1.0000
  Cs  Cs2       1.0  0.9932431578636168  0.2794063985347748  0.06189264357089996  1.0000
  Cs  Cs3       1.0  0.46582028269767756  0.5781355500221252  0.23241990804672247  1.0000
  F   F1        1.0  0.6831350326538086  0.051369477063417435  0.6378942728042603  1.0000
  K   K1        1.0  0.45660516619682306  0.6602011919021606  0.37263342738151556  1.0000
  O   O1        1.0  0.35512015223503113  0.1668783575296402  0.9478906393051147  1.0000
  O   O2        1.0  0.4742660224437713  0.1371944546699524  0.9299900531768799  1.0000
  O   O3        1.0  0.610878050327301  0.30121612548828125  0.4487248659133911  1.0000
  O   O4        1.0  0.8764216899871825  0.13240672647953033  0.4733330011367798  1.0000
  Rb  Rb1       1.0  0.3211449086666107  0.8196569085121155  0.3907511234283448  1.0000
  Sr  Sr1       1.0  0.016160381957888603  0.7957245111465454  0.39607602357864385  1.0000
  V   V1        1.0  0.6760926246643066  0.35750284790992737  0.8095822930335999  1.0000
