data_image0
_chemical_formula_structural       Cr3KNa3O6
_chemical_formula_sum              "Cr3 K1 Na3 O6"
_cell_length_a       5.8633843322853245
_cell_length_b       7.349598738924503
_cell_length_c       7.878579139709473
_cell_angle_alpha    119.00725919745688
_cell_angle_beta     89.10112741932969
_cell_angle_gamma    98.01345806443038

_space_group_name_H-M_alt    "P 1"
_space_group_IT_number       1

loop_
  _space_group_symop_operation_xyz
  'x, y, z'

loop_
  _atom_site_type_symbol
  _atom_site_label
  _atom_site_symmetry_multiplicity
  _atom_site_fract_x
  _atom_site_fract_y
  _atom_site_fract_z
  _atom_site_occupancy
  Cr  Cr1       1.0  0.31343773007392883  0.3669976592063904  0.10961662977933884  1.0000
  Cr  Cr2       1.0  0.8211355805397034  0.827671706676483  0.5408494472503662  1.0000
  Cr  Cr3       1.0  0.3285752832889557  0.010405413806438446  0.990176796913147  1.0000
  K   K1        1.0  0.304829478263855  0.21897003054618833  0.7235322594642639  1.0000
  Na  Na1       1.0  0.8047223687171936  0.721865713596344  0.6831667423248291  1.0000
  Na  Na2       1.0  0.821405827999115  0.4501605927944183  0.6132311224937439  1.0000
  Na  Na3       1.0  0.5774595141410828  0.7781676054000854  0.2240370810031891  1.0000
  O   O1        1.0  0.5882561802864075  0.5090996026992798  0.5557805299758911  1.0000
  O   O2        1.0  0.2898464798927307  0.916005253791809  0.5994153022766113  1.0000
  O   O3        1.0  0.28497418761253357  0.2660488486289978  0.6874370574951172  1.0000
  O   O4        1.0  0.8740504384040833  0.10744296014308928  0.4896761476993561  1.0000
  O   O5        1.0  0.3099863827228546  0.45436531305313105  0.9026596546173096  1.0000
  O   O6        1.0  0.8114858269691467  0.6764383912086487  0.8447340130805969  1.0000
