data_image0
_chemical_formula_structural       AsCrCs2FGaKO2PbPtRbSe
_chemical_formula_sum              "As1 Cr1 Cs2 F1 Ga1 K1 O2 Pb1 Pt1 Rb1 Se1"
_cell_length_a       7.508572615214905
_cell_length_b       7.500864975883218
_cell_length_c       7.78247594833374
_cell_angle_alpha    63.82720711410308
_cell_angle_beta     60.95367777900141
_cell_angle_gamma    59.8944215761341

_space_group_name_H-M_alt    "P 1"
_space_group_IT_number       1

loop_
  _space_group_symop_operation_xyz
  'x, y, z'

loop_
  _atom_site_type_symbol
  _atom_site_label
  _atom_site_symmetry_multiplicity
  _atom_site_fract_x
  _atom_site_fract_y
  _atom_site_fract_z
  _atom_site_occupancy
  As  As1       1.0  0.024835675954818726  0.8000564575195312  0.9357308745384217  1.0000
  Cr  Cr1       1.0  0.9035696387290955  0.9265159368515015  0.8529027104377747  1.0000
  Cs  Cs1       1.0  0.8553519248962402  0.5417770147323608  0.23584216833114627  1.0000
  Cs  Cs2       1.0  0.016290104016661644  0.6512713432312012  0.8587375879287721  1.0000
  F   F1        1.0  0.2727976143360138  0.10625050961971283  0.9078342318534852  1.0000
  Ga  Ga1       1.0  0.9228289127349854  0.3795120120048523  0.07884985953569412  1.0000
  K   K1        1.0  0.7977309823036194  0.12234202027320862  0.9530561566352845  1.0000
  O   O1        1.0  0.38074296712875366  0.8571046590805054  0.3045658767223358  1.0000
  O   O2        1.0  0.8505938053131104  0.4750927984714508  0.5907490849494934  1.0000
  Pb  Pb1       1.0  0.9787733554840088  0.7105022072792053  0.6320638656616211  1.0000
  Pt  Pt1       1.0  0.47714707255363464  0.7185337543487549  0.730503261089325  1.0000
  Rb  Rb1       1.0  0.7504798173904419  0.008800353854894638  0.1274155229330063  1.0000
  Se  Se1       1.0  0.4940774142742157  0.3744552433490753  0.22176778316497806  1.0000
