data_image0
_chemical_formula_structural       LaSe3U5
_chemical_formula_sum              "La1 Se3 U5"
_cell_length_a       5.273609419881473
_cell_length_b       6.237140266101674
_cell_length_c       7.087555408477783
_cell_angle_alpha    116.1211637006589
_cell_angle_beta     104.29171586175067
_cell_angle_gamma    86.25973106789694

_space_group_name_H-M_alt    "P 1"
_space_group_IT_number       1

loop_
  _space_group_symop_operation_xyz
  'x, y, z'

loop_
  _atom_site_type_symbol
  _atom_site_label
  _atom_site_symmetry_multiplicity
  _atom_site_fract_x
  _atom_site_fract_y
  _atom_site_fract_z
  _atom_site_occupancy
  La  La1       1.0  0.371008038520813  0.9802295565605164  0.4076003432273865  1.0000
  Se  Se1       1.0  0.17715179920196533  0.9714727401733398  0.4873098731040955  1.0000
  Se  Se2       1.0  0.529961347579956  0.2116822749376297  0.7822961807250977  1.0000
  Se  Se3       1.0  0.08479596674442291  0.8279308676719666  0.27467837929725647  1.0000
  U   U1        1.0  0.3604449927806854  0.28871145844459534  0.10091474652290344  1.0000
  U   U2        1.0  0.8070739507675171  0.7379601001739502  0.3933407664299011  1.0000
  U   U3        1.0  0.8285045623779297  0.9804869890213013  0.41121187806129456  1.0000
  U   U4        1.0  0.8290178775787354  0.4748811721801758  0.4182652533054352  1.0000
  U   U5        1.0  0.8442121148109436  0.26453086733818054  0.9289425015449524  1.0000
