data_image0
_chemical_formula_structural       Se2U7
_chemical_formula_sum              "Se2 U7"
_cell_length_a       5.907774253382789
_cell_length_b       7.5208601967598145
_cell_length_c       8.021028518676758
_cell_angle_alpha    117.36724432185386
_cell_angle_beta     99.80911777725082
_cell_angle_gamma    86.76619645417162

_space_group_name_H-M_alt    "P 1"
_space_group_IT_number       1

loop_
  _space_group_symop_operation_xyz
  'x, y, z'

loop_
  _atom_site_type_symbol
  _atom_site_label
  _atom_site_symmetry_multiplicity
  _atom_site_fract_x
  _atom_site_fract_y
  _atom_site_fract_z
  _atom_site_occupancy
  Se  Se1       1.0  0.6431744694709778  0.712676763534546  0.4281403422355653  1.0000
  Se  Se2       1.0  0.13964439928531647  0.3540025651454926  0.5463520884513855  1.0000
  U   U1        1.0  0.35945361852645874  0.8800597786903382  0.761072039604187  1.0000
  U   U2        1.0  0.8345935940742493  0.18828463554382327  0.8973069190979004  1.0000
  U   U3        1.0  0.31598010659217834  0.904723346233368  0.6993054747581483  1.0000
  U   U4        1.0  0.3333911895751953  0.6851552724838258  0.06899064779281622  1.0000
  U   U5        1.0  0.8250777125358582  0.1938869655132294  0.7588324546813965  1.0000
  U   U6        1.0  0.3116372525691986  0.6840088963508607  0.17361332476139074  1.0000
  U   U7        1.0  0.835045576095581  0.707874357700348  0.17775347828865057  1.0000
