data_image0
_chemical_formula_structural       OsSeU7
_chemical_formula_sum              "Os1 Se1 U7"
_cell_length_a       4.454267614611271
_cell_length_b       6.116986813242061
_cell_length_c       6.811695098876953
_cell_angle_alpha    117.91790371840041
_cell_angle_beta     98.82455469353187
_cell_angle_gamma    88.82691592687999

_space_group_name_H-M_alt    "P 1"
_space_group_IT_number       1

loop_
  _space_group_symop_operation_xyz
  'x, y, z'

loop_
  _atom_site_type_symbol
  _atom_site_label
  _atom_site_symmetry_multiplicity
  _atom_site_fract_x
  _atom_site_fract_y
  _atom_site_fract_z
  _atom_site_occupancy
  Os  Os1       1.0  0.13026611506938934  0.6929611563682556  0.6873100996017456  1.0000
  Se  Se1       1.0  0.66620934009552  0.19888028502464294  0.34334975481033325  1.0000
  U   U1        1.0  0.6382125020027161  0.1978379338979721  0.544361412525177  1.0000
  U   U2        1.0  0.6543031930923462  0.6892921924591064  0.5521436929702759  1.0000
  U   U3        1.0  0.13992883265018463  0.7109000086784363  0.5183010697364807  1.0000
  U   U4        1.0  0.1641564518213272  0.9532609581947328  0.021966345608234468  1.0000
  U   U5        1.0  0.1306656152009964  0.20445044338703156  0.5475688576698303  1.0000
  U   U6        1.0  0.15097717940807343  0.9266896843910218  0.7319020628929139  1.0000
  U   U7        1.0  0.6634060740470886  0.35946351289749146  0.3054226338863373  1.0000
