data_image0
_chemical_formula_structural       O2Se4U3
_chemical_formula_sum              "O2 Se4 U3"
_cell_length_a       5.188360837999312
_cell_length_b       5.797604980703388
_cell_length_c       6.402608394622803
_cell_angle_alpha    114.00924287212678
_cell_angle_beta     114.16733188357554
_cell_angle_gamma    89.43326587887329

_space_group_name_H-M_alt    "P 1"
_space_group_IT_number       1

loop_
  _space_group_symop_operation_xyz
  'x, y, z'

loop_
  _atom_site_type_symbol
  _atom_site_label
  _atom_site_symmetry_multiplicity
  _atom_site_fract_x
  _atom_site_fract_y
  _atom_site_fract_z
  _atom_site_occupancy
  O   O1        1.0  0.4942721426486969  0.8482920527458191  0.1391838639974594  1.0000
  O   O2        1.0  0.6455026865005493  0.29668208956718445  0.3487838804721832  1.0000
  Se  Se1       1.0  0.15269708633422852  0.5253193378448486  0.3475887179374695  1.0000
  Se  Se2       1.0  0.4812665283679962  0.98277747631073  0.5745549201965332  1.0000
  Se  Se3       1.0  0.8133831024169922  0.608068585395813  0.1514662355184555  1.0000
  Se  Se4       1.0  0.2846719026565552  0.4110308289527893  0.11290942132472992  1.0000
  U   U1        1.0  0.39670199155807495  0.2855827808380127  0.880210816860199  1.0000
  U   U2        1.0  0.9317848086357117  0.7708914875984192  0.6252110600471497  1.0000
  U   U3        1.0  0.4764731526374817  0.8561183214187622  0.17239034175872803  1.0000
