data_image0
_chemical_formula_structural       As3CdCsLu4Zn
_chemical_formula_sum              "As3 Cd1 Cs1 Lu4 Zn1"
_cell_length_a       4.626140535283079
_cell_length_b       5.201716927684964
_cell_length_c       6.2616047859191895
_cell_angle_alpha    81.66976535525538
_cell_angle_beta     83.55223114246564
_cell_angle_gamma    92.5358274682128

_space_group_name_H-M_alt    "P 1"
_space_group_IT_number       1

loop_
  _space_group_symop_operation_xyz
  'x, y, z'

loop_
  _atom_site_type_symbol
  _atom_site_label
  _atom_site_symmetry_multiplicity
  _atom_site_fract_x
  _atom_site_fract_y
  _atom_site_fract_z
  _atom_site_occupancy
  As  As1       1.0  0.35248154401779175  0.34594354033470154  0.2957112789154053  1.0000
  As  As2       1.0  0.08123984187841415  0.15663330256938934  0.7974022626876831  1.0000
  As  As3       1.0  0.4771009683609009  0.25374317169189453  0.21587678790092468  1.0000
  Cd  Cd1       1.0  0.8373469114303589  0.6730760335922241  0.31456002593040466  1.0000
  Cs  Cs1       1.0  0.7699309587478638  0.4206443130970002  0.07680373638868332  1.0000
  Lu  Lu1       1.0  0.0987662822008133  0.6344465613365173  0.5045956969261169  1.0000
  Lu  Lu2       1.0  0.6964486241340637  0.2585749328136444  0.19765298068523407  1.0000
  Lu  Lu3       1.0  0.9130986928939819  0.6053418517112732  0.1760048121213913  1.0000
  Lu  Lu4       1.0  0.4276100993156433  0.6561791896820068  0.8630526661872864  1.0000
  Zn  Zn1       1.0  0.7890644073486328  0.5365641117095947  0.13647408783435822  1.0000
