data_image0
_chemical_formula_structural       AsKLu4TiUVZn
_chemical_formula_sum              "As1 K1 Lu4 Ti1 U1 V1 Zn1"
_cell_length_a       1.0058150044341552
_cell_length_b       5.7225228107767085
_cell_length_c       6.67691707611084
_cell_angle_alpha    113.0990667768382
_cell_angle_beta     107.4311446231612
_cell_angle_gamma    90.16301367243243

_space_group_name_H-M_alt    "P 1"
_space_group_IT_number       1

loop_
  _space_group_symop_operation_xyz
  'x, y, z'

loop_
  _atom_site_type_symbol
  _atom_site_label
  _atom_site_symmetry_multiplicity
  _atom_site_fract_x
  _atom_site_fract_y
  _atom_site_fract_z
  _atom_site_occupancy
  As  As1       1.0  0.7841468453407289  0.17706166207790375  0.1297486126422882  1.0000
  K   K1        1.0  0.7733632922172547  0.6942759156227112  0.6046106219291687  1.0000
  Lu  Lu1       1.0  0.7857171297073365  0.4127129018306732  0.9565893411636353  1.0000
  Lu  Lu2       1.0  0.2891479432582857  0.9148188829421998  0.29872700572013855  1.0000
  Lu  Lu3       1.0  0.28616380691528326  0.5770997405052185  0.18694515526294708  1.0000
  Lu  Lu4       1.0  0.289189636707306  0.4784000217914582  0.17112675309181213  1.0000
  Ti  Ti1       1.0  0.2732768654823305  0.9722551703453065  0.614122211933136  1.0000
  U   U1        1.0  0.28514218330383306  0.11547583341598512  0.008214427158236512  1.0000
  V   V1        1.0  0.78300279378891  0.26249584555625916  0.34337812662124634  1.0000
  Zn  Zn1       1.0  0.7708896398544313  0.06178513169288636  0.920551061630249  1.0000
