data_image0
_chemical_formula_structural       As2B3Lu2Os3
_chemical_formula_sum              "As2 B3 Lu2 Os3"
_cell_length_a       4.844220530562471
_cell_length_b       6.311975698795162
_cell_length_c       7.769620418548584
_cell_angle_alpha    117.96989213470304
_cell_angle_beta     90.04938761133393
_cell_angle_gamma    96.18888767608163

_space_group_name_H-M_alt    "P 1"
_space_group_IT_number       1

loop_
  _space_group_symop_operation_xyz
  'x, y, z'

loop_
  _atom_site_type_symbol
  _atom_site_label
  _atom_site_symmetry_multiplicity
  _atom_site_fract_x
  _atom_site_fract_y
  _atom_site_fract_z
  _atom_site_occupancy
  As  As1       1.0  0.8791252374649048  0.5711237192153931  0.5150794982910156  1.0000
  As  As2       1.0  0.3946475088596344  0.27503085136413574  0.16233989596366882  1.0000
  B   B1        1.0  0.4005667269229889  0.11969425529241562  0.07398885488510132  1.0000
  B   B2        1.0  0.89653480052948  0.6317464709281921  0.8132625222206117  1.0000
  B   B3        1.0  0.8822548389434814  0.2714114487171173  0.7839525341987611  1.0000
  Lu  Lu1       1.0  0.8802741169929504  0.4949769973754883  0.8305472135543824  1.0000
  Lu  Lu2       1.0  0.38429558277130127  0.8290278315544128  0.5415583252906799  1.0000
  Os  Os1       1.0  0.3830350339412689  0.7750070095062256  0.4888238608837128  1.0000
  Os  Os2       1.0  0.8926268815994263  0.4293585419654846  0.06326004862785337  1.0000
  Os  Os3       1.0  0.3832486867904663  0.003610102226957679  0.7961414456367494  1.0000
