data_image0
_chemical_formula_structural       As2BLu5ZnZr
_chemical_formula_sum              "As2 B1 Lu5 Zn1 Zr1"
_cell_length_a       4.663189429023398
_cell_length_b       5.653748608846859
_cell_length_c       6.439169883728027
_cell_angle_alpha    117.33311780035551
_cell_angle_beta     94.24307296366152
_cell_angle_gamma    94.92137311585137

_space_group_name_H-M_alt    "P 1"
_space_group_IT_number       1

loop_
  _space_group_symop_operation_xyz
  'x, y, z'

loop_
  _atom_site_type_symbol
  _atom_site_label
  _atom_site_symmetry_multiplicity
  _atom_site_fract_x
  _atom_site_fract_y
  _atom_site_fract_z
  _atom_site_occupancy
  As  As1       1.0  0.6307961344718933  0.22893396019935605  0.5319646596908569  1.0000
  As  As2       1.0  0.14837141335010529  0.7612227201461792  0.32101666927337646  1.0000
  B   B1        1.0  0.14511020481586456  0.04709244146943092  0.5579233169555664  1.0000
  Lu  Lu1       1.0  0.643459141254425  0.4729719460010528  0.597379744052887  1.0000
  Lu  Lu2       1.0  0.14133021235466003  0.1748647540807724  0.6771414875984192  1.0000
  Lu  Lu3       1.0  0.6454853415489197  0.7322887182235718  0.47037050127983093  1.0000
  Lu  Lu4       1.0  0.6599265336990356  0.16163858771324158  0.8477783799171448  1.0000
  Lu  Lu5       1.0  0.1702882796525955  0.9684292674064635  0.9658643007278442  1.0000
  Zn  Zn1       1.0  0.15107819437980652  0.016829056665301323  0.49223822355270386  1.0000
  Zr  Zr1       1.0  0.6587966680526733  0.29045620560646057  0.6355882287025452  1.0000
