data_image0
_chemical_formula_structural       As2Lu7Zn
_chemical_formula_sum              "As2 Lu7 Zn1"
_cell_length_a       4.266240919223351
_cell_length_b       4.038295455878359
_cell_length_c       9.135300636291504
_cell_angle_alpha    100.7642211656991
_cell_angle_beta     90.96489603335105
_cell_angle_gamma    95.89413601655829

_space_group_name_H-M_alt    "P 1"
_space_group_IT_number       1

loop_
  _space_group_symop_operation_xyz
  'x, y, z'

loop_
  _atom_site_type_symbol
  _atom_site_label
  _atom_site_symmetry_multiplicity
  _atom_site_fract_x
  _atom_site_fract_y
  _atom_site_fract_z
  _atom_site_occupancy
  As  As1       1.0  0.24474933743476868  0.09769015014171599  0.22225038707256317  1.0000
  As  As2       1.0  0.2322571575641632  0.16548629105091095  0.3458744287490845  1.0000
  Lu  Lu1       1.0  0.48215773701667786  0.25835120677948  0.6371347904205322  1.0000
  Lu  Lu2       1.0  0.34690165519714355  0.07234373688697815  0.6830827593803406  1.0000
  Lu  Lu3       1.0  0.7096405625343323  0.06615238636732101  0.9172918796539307  1.0000
  Lu  Lu4       1.0  0.10924884676933289  0.20908984541893003  0.7031192779541016  1.0000
  Lu  Lu5       1.0  0.4094526469707489  0.7235984802246093  0.05795887112617491  1.0000
  Lu  Lu6       1.0  0.8834815621376038  0.36885702610015864  0.7022276520729065  1.0000
  Lu  Lu7       1.0  0.785775899887085  0.4587382078170776  0.8203204274177551  1.0000
  Zn  Zn1       1.0  0.886293888092041  0.8729998469352721  0.7076090574264526  1.0000
