data_image0
_chemical_formula_structural       As4B2Lu4
_chemical_formula_sum              "As4 B2 Lu4"
_cell_length_a       4.975794786692648
_cell_length_b       5.358190138507798
_cell_length_c       7.40362548828125
_cell_angle_alpha    99.55872904122118
_cell_angle_beta     101.16126449077434
_cell_angle_gamma    108.85161163046762

_space_group_name_H-M_alt    "P 1"
_space_group_IT_number       1

loop_
  _space_group_symop_operation_xyz
  'x, y, z'

loop_
  _atom_site_type_symbol
  _atom_site_label
  _atom_site_symmetry_multiplicity
  _atom_site_fract_x
  _atom_site_fract_y
  _atom_site_fract_z
  _atom_site_occupancy
  As  As1       1.0  0.8459856510162354  0.2062285840511322  0.6705024242401122  1.0000
  As  As2       1.0  0.34634748101234436  0.08587419241666794  0.989511728286743  1.0000
  As  As3       1.0  0.8316396474838257  0.5119020342826843  0.23365165293216703  1.0000
  As  As4       1.0  0.32208406925201416  0.016221554949879646  0.32190084457397455  1.0000
  B   B1        1.0  0.3442886471748352  0.8715453743934631  0.59080970287323  1.0000
  B   B2        1.0  0.33927294611930847  0.2575743794441223  0.34862482547760004  1.0000
  Lu  Lu1       1.0  0.3220517039299011  0.3026908040046692  0.7927500009536742  1.0000
  Lu  Lu2       1.0  0.5566090941429138  0.725558340549469  0.8585259318351744  1.0000
  Lu  Lu3       1.0  0.8493971228599548  0.17095687985420227  0.49953669309616083  1.0000
  Lu  Lu4       1.0  0.862061619758606  0.6455937623977661  0.042762532830238335  1.0000
