data_image0
_chemical_formula_structural       Co4F2I2OSb4
_chemical_formula_sum              "Co4 F2 I2 O1 Sb4"
_cell_length_a       5.54947388909023
_cell_length_b       5.692906535294156
_cell_length_c       9.031164169311523
_cell_angle_alpha    90.23627733222433
_cell_angle_beta     89.7598063279716
_cell_angle_gamma    90.66336319416918

_space_group_name_H-M_alt    "P 1"
_space_group_IT_number       1

loop_
  _space_group_symop_operation_xyz
  'x, y, z'

loop_
  _atom_site_type_symbol
  _atom_site_label
  _atom_site_symmetry_multiplicity
  _atom_site_fract_x
  _atom_site_fract_y
  _atom_site_fract_z
  _atom_site_occupancy
  Co  Co1       1.0  0.6340640187263489  0.22494952380657196  0.43294966220855713  1.0000
  Co  Co2       1.0  0.14207279682159424  0.7930554747581482  0.3055762052536011  1.0000
  Co  Co3       1.0  0.6386883854866028  0.9837265610694885  0.525898814201355  1.0000
  Co  Co4       1.0  0.13754311203956604  0.4641314744949341  0.7689030170440674  1.0000
  F   F1        1.0  0.6089347004890442  0.259691059589386  0.8143270611763  1.0000
  F   F2        1.0  0.6321476101875305  0.5171522498130798  0.049490999430418015  1.0000
  I   I1        1.0  0.13949649035930634  0.46442538499832153  0.15409933030605316  1.0000
  I   I2        1.0  0.641914963722229  0.3821662366390228  0.029209846630692482  1.0000
  O   O1        1.0  0.4072498381137848  0.6471383571624756  0.6748106479644775  1.0000
  Sb  Sb1       1.0  0.14389263093471527  0.4593726396560669  0.1724572479724884  1.0000
  Sb  Sb2       1.0  0.15382510423660278  0.9599975347518921  0.048337504267692566  1.0000
  Sb  Sb3       1.0  0.6502634882926941  0.40265417098999023  0.009126030839979649  1.0000
  Sb  Sb4       1.0  0.640099048614502  0.7615564465522766  0.9876898527145386  1.0000
