data_image0
_chemical_formula_structural       Co4FSb6V2
_chemical_formula_sum              "Co4 F1 Sb6 V2"
_cell_length_a       6.152605843671947
_cell_length_b       6.727171610974679
_cell_length_c       9.8951997756958
_cell_angle_alpha    90.10072681265612
_cell_angle_beta     90.3917832215456
_cell_angle_gamma    98.18110892730596

_space_group_name_H-M_alt    "P 1"
_space_group_IT_number       1

loop_
  _space_group_symop_operation_xyz
  'x, y, z'

loop_
  _atom_site_type_symbol
  _atom_site_label
  _atom_site_symmetry_multiplicity
  _atom_site_fract_x
  _atom_site_fract_y
  _atom_site_fract_z
  _atom_site_occupancy
  Co  Co1       1.0  0.265032559633255  0.31708863377571106  0.12828610837459564  1.0000
  Co  Co2       1.0  0.6649433970451355  0.29482316970825195  0.1000342071056366  1.0000
  Co  Co3       1.0  0.7558039426803589  0.15611404180526733  0.6218293309211731  1.0000
  Co  Co4       1.0  0.2477098107337952  0.21519845724105835  0.18501554429531097  1.0000
  F   F1        1.0  0.9047775268554689  0.8943012952804565  0.1704467087984085  1.0000
  Sb  Sb1       1.0  0.7464850544929504  0.4122786819934845  0.45147016644477844  1.0000
  Sb  Sb2       1.0  0.7301632761955261  0.543446958065033  0.6348059177398682  1.0000
  Sb  Sb3       1.0  0.25662943720817566  0.16723747551441193  0.9060944318771362  1.0000
  Sb  Sb4       1.0  0.25536927580833435  0.8226284980773926  0.04338435083627701  1.0000
  Sb  Sb5       1.0  0.7499486804008484  0.38955074548721313  0.34320172667503357  1.0000
  Sb  Sb6       1.0  0.4891809225082398  0.28095343708992004  0.10938891768455505  1.0000
  V   V1        1.0  0.7516464591026306  0.7180426716804504  0.31808361411094666  1.0000
  V   V2        1.0  0.2471124976873398  0.4216674864292145  0.04694857820868492  1.0000
