data_image0
_chemical_formula_structural       F3ILuOSb3V3Zn
_chemical_formula_sum              "F3 I1 Lu1 O1 Sb3 V3 Zn1"
_cell_length_a       6.0018623764140635
_cell_length_b       4.839102155277847
_cell_length_c       6.528170585632324
_cell_angle_alpha    119.76295009900865
_cell_angle_beta     111.1934623435641
_cell_angle_gamma    124.51748060047127

_space_group_name_H-M_alt    "P 1"
_space_group_IT_number       1

loop_
  _space_group_symop_operation_xyz
  'x, y, z'

loop_
  _atom_site_type_symbol
  _atom_site_label
  _atom_site_symmetry_multiplicity
  _atom_site_fract_x
  _atom_site_fract_y
  _atom_site_fract_z
  _atom_site_occupancy
  F   F1        1.0  0.39872616529464733  0.4038487970829011  0.9530920386314392  1.0000
  F   F2        1.0  0.12920539081096652  0.20000480115413669  0.6492568850517273  1.0000
  F   F3        1.0  0.796883761882782  0.42988851666450506  0.4119059443473816  1.0000
  I   I1        1.0  0.09725237637758259  0.0397926010191441  0.4152717590332031  1.0000
  Lu  Lu1       1.0  0.990500807762146  0.19501863420009616  0.7039697170257568  1.0000
  O   O1        1.0  0.5860540270805361  0.3632217645645144  0.7751748561859132  1.0000
  Sb  Sb1       1.0  0.5408901572227478  0.31371420621871954  0.14004144072532657  1.0000
  Sb  Sb2       1.0  0.9272834062576296  0.8398726582527163  0.9784148335456849  1.0000
  Sb  Sb3       1.0  0.5889415740966798  0.6415643692016603  0.08097494393587115  1.0000
  V   V1        1.0  0.18409159779548645  0.9971010684967041  0.25767961144447327  1.0000
  V   V2        1.0  0.5931016206741334  0.6324808597564698  0.37292295694351196  1.0000
  V   V3        1.0  0.708156168460846  0.01751001179218284  0.6518355011940002  1.0000
  Zn  Zn1       1.0  0.21717043220996873  0.15108348429203053  0.8761652112007142  1.0000
