data_image0
_chemical_formula_structural       CoF3O8Sb
_chemical_formula_sum              "Co1 F3 O8 Sb1"
_cell_length_a       6.153728919848207
_cell_length_b       5.899404386597923
_cell_length_c       6.1139726638793945
_cell_angle_alpha    110.96879358664037
_cell_angle_beta     115.66063535918754
_cell_angle_gamma    108.71552398676361

_space_group_name_H-M_alt    "P 1"
_space_group_IT_number       1

loop_
  _space_group_symop_operation_xyz
  'x, y, z'

loop_
  _atom_site_type_symbol
  _atom_site_label
  _atom_site_symmetry_multiplicity
  _atom_site_fract_x
  _atom_site_fract_y
  _atom_site_fract_z
  _atom_site_occupancy
  Co  Co1       1.0  0.37110674381256104  0.4673212766647339  0.0602176375687122  1.0000
  F   F1        1.0  0.8879446983337402  0.5084998607635498  0.07058128714561462  1.0000
  F   F2        1.0  0.8606585264205933  0.18806537985801697  0.17887304723262787  1.0000
  F   F3        1.0  0.3955135643482208  0.3479463756084442  0.20605412125587463  1.0000
  O   O1        1.0  0.3738393187522888  0.9073015451431274  0.542875349521637  1.0000
  O   O2        1.0  0.135066419839859  0.3353155851364136  0.981791615486145  1.0000
  O   O3        1.0  0.36958152055740356  0.22825171053409576  0.7226428985595703  1.0000
  O   O4        1.0  0.5449830889701843  0.7110793590545654  0.3674106001853943  1.0000
  O   O5        1.0  0.217876136302948  0.6875908374786377  0.8757936954498291  1.0000
  O   O6        1.0  0.18014934659004211  0.5353935956954956  0.5750846862792969  1.0000
  O   O7        1.0  0.7921392917633057  0.45720428228378296  0.7654675245285034  1.0000
  O   O8        1.0  0.8669858574867249  0.9707397818565369  0.49300333857536316  1.0000
  Sb  Sb1       1.0  0.8671630024909973  0.18915589153766632  0.8496963381767273  1.0000
