data_image0
_chemical_formula_structural       CaCoF2GeILuO2Sb3V
_chemical_formula_sum              "Ca1 Co1 F2 Ge1 I1 Lu1 O2 Sb3 V1"
_cell_length_a       5.540937579540636
_cell_length_b       7.071008531599743
_cell_length_c       7.885593891143799
_cell_angle_alpha    113.05540103748908
_cell_angle_beta     92.66983955621565
_cell_angle_gamma    95.74395243750729

_space_group_name_H-M_alt    "P 1"
_space_group_IT_number       1

loop_
  _space_group_symop_operation_xyz
  'x, y, z'

loop_
  _atom_site_type_symbol
  _atom_site_label
  _atom_site_symmetry_multiplicity
  _atom_site_fract_x
  _atom_site_fract_y
  _atom_site_fract_z
  _atom_site_occupancy
  Ca  Ca1       1.0  0.06490348279476164  0.39871412515640253  0.28978797793388367  1.0000
  Co  Co1       1.0  0.5672888159751892  0.6641005873680115  0.04020499810576439  1.0000
  F   F1        1.0  0.06508886814117432  0.6621800065040588  0.039852764457464246  1.0000
  F   F2        1.0  0.4872976243495941  0.7603216171264647  0.08114004135131836  1.0000
  Ge  Ge1       1.0  0.07281845062971115  0.22234219312667844  0.7202922105789185  1.0000
  I   I1        1.0  0.06720411032438275  0.972077965736389  0.5079860091209412  1.0000
  Lu  Lu1       1.0  0.07197614759206769  0.9783068299293517  0.20466305315494543  1.0000
  O   O1        1.0  0.5767180919647217  0.9588276743888854  0.871421754360199  1.0000
  O   O2        1.0  0.06246547028422354  0.4308289289474487  0.2584953010082245  1.0000
  Sb  Sb1       1.0  0.5621965527534485  0.26335349678993225  0.5408939123153687  1.0000
  Sb  Sb2       1.0  0.5627703070640564  0.0594872273504734  0.41978609561920166  1.0000
  Sb  Sb3       1.0  0.5628092885017395  0.4420271813869476  0.4557039141654968  1.0000
  V   V1        1.0  0.06728538125753403  0.2038949280977249  0.739497184753418  1.0000
