data_image0
_chemical_formula_structural       F6O7
_chemical_formula_sum              "F6 O7"
_cell_length_a       4.89044897269133
_cell_length_b       5.041502215448529
_cell_length_c       5.450859069824219
_cell_angle_alpha    115.6238753588895
_cell_angle_beta     102.47365411579787
_cell_angle_gamma    90.22750178387336

_space_group_name_H-M_alt    "P 1"
_space_group_IT_number       1

loop_
  _space_group_symop_operation_xyz
  'x, y, z'

loop_
  _atom_site_type_symbol
  _atom_site_label
  _atom_site_symmetry_multiplicity
  _atom_site_fract_x
  _atom_site_fract_y
  _atom_site_fract_z
  _atom_site_occupancy
  F   F1        1.0  0.820443868637085  0.09340303391218185  0.56411212682724  1.0000
  F   F2        1.0  0.30790770053863525  0.9139092564582825  0.6572772264480591  1.0000
  F   F3        1.0  0.4641875624656677  0.15442244708538055  0.3207721412181854  1.0000
  F   F4        1.0  0.25219666957855225  0.785585343837738  0.2154543399810791  1.0000
  F   F5        1.0  0.4901840388774872  0.09944885224103928  0.053622230887413025  1.0000
  F   F6        1.0  0.955252468585968  0.044976841658353806  0.8426017165184021  1.0000
  O   O1        1.0  0.7470201253890991  0.7352674007415771  0.7892624735832214  1.0000
  O   O2        1.0  0.826179563999176  0.9076329469680786  0.8548850417137146  1.0000
  O   O3        1.0  0.23661398887634277  0.389539897441864  0.22726130485534668  1.0000
  O   O4        1.0  0.4065195322036743  0.22843605279922485  0.33625364303588867  1.0000
  O   O5        1.0  0.6256170868873596  0.42846864461898804  0.5607560873031616  1.0000
  O   O6        1.0  0.3211480975151062  0.7738481760025024  0.841576337814331  1.0000
  O   O7        1.0  0.6594848036766052  0.9539152383804321  0.13555167615413666  1.0000
