data_image0
_chemical_formula_structural       AsCe2Cs2P4Tl
_chemical_formula_sum              "As1 Ce2 Cs2 P4 Tl1"
_cell_length_a       4.588485035624192
_cell_length_b       7.02223314488423
_cell_length_c       10.159132957458496
_cell_angle_alpha    90.62519408956356
_cell_angle_beta     90.94238112935128
_cell_angle_gamma    91.08864742025429

_space_group_name_H-M_alt    "P 1"
_space_group_IT_number       1

loop_
  _space_group_symop_operation_xyz
  'x, y, z'

loop_
  _atom_site_type_symbol
  _atom_site_label
  _atom_site_symmetry_multiplicity
  _atom_site_fract_x
  _atom_site_fract_y
  _atom_site_fract_z
  _atom_site_occupancy
  As  As1       1.0  0.4061613082885742  0.4015829265117646  0.887741208076477  1.0000
  Ce  Ce1       1.0  0.4044322073459625  0.2905237078666687  0.5712702870368958  1.0000
  Ce  Ce2       1.0  0.37752285599708557  0.8063240051269532  0.18110498785972595  1.0000
  Cs  Cs1       1.0  0.9041536450386047  0.8326789736747743  0.7003327012062073  1.0000
  Cs  Cs2       1.0  0.9144120812416077  0.13622812926769257  0.39190903306007385  1.0000
  P   P1        1.0  0.41123127937316895  0.8614586591720582  0.901788055896759  1.0000
  P   P2        1.0  0.907818615436554  0.3150359988212586  0.7005904316902161  1.0000
  P   P3        1.0  0.9009069204330444  0.4409003555774689  0.5150546431541443  1.0000
  P   P4        1.0  0.9105230569839478  0.4363346099853516  0.5676252841949463  1.0000
  Tl  Tl1       1.0  0.3995232880115509  0.439206212759018  0.39584019780158997  1.0000
