data_image0
_chemical_formula_structural       Ce2Cs2P3Pb2V
_chemical_formula_sum              "Ce2 Cs2 P3 Pb2 V1"
_cell_length_a       4.216893677440631
_cell_length_b       7.900235699292508
_cell_length_c       8.964071273803711
_cell_angle_alpha    94.63383431857798
_cell_angle_beta     92.1242037845611
_cell_angle_gamma    88.52660216579716

_space_group_name_H-M_alt    "P 1"
_space_group_IT_number       1

loop_
  _space_group_symop_operation_xyz
  'x, y, z'

loop_
  _atom_site_type_symbol
  _atom_site_label
  _atom_site_symmetry_multiplicity
  _atom_site_fract_x
  _atom_site_fract_y
  _atom_site_fract_z
  _atom_site_occupancy
  Ce  Ce1       1.0  0.40962350368499756  0.6400012969970703  0.07675628364086151  1.0000
  Ce  Ce2       1.0  0.9019730687141418  0.026315346360206604  0.2578299343585968  1.0000
  Cs  Cs1       1.0  0.907992959022522  0.3211303651332855  0.2663993239402771  1.0000
  Cs  Cs2       1.0  0.41167041659355164  0.8201861381530762  0.06608054041862488  1.0000
  P   P1        1.0  0.9105691313743591  0.8904746770858765  0.7618162035942078  1.0000
  P   P2        1.0  0.9105163812637329  0.4753333330154419  0.3397520184516907  1.0000
  P   P3        1.0  0.4082365334033966  0.051562368869781494  0.8345713019371033  1.0000
  Pb  Pb1       1.0  0.9155306816101074  0.1890522539615631  0.7189491391181946  1.0000
  Pb  Pb2       1.0  0.4059962332248688  0.4143446385860443  0.8259162902832031  1.0000
  V   V1        1.0  0.4098750650882721  0.6179614067077637  0.3472726345062256  1.0000
