data_image0
_chemical_formula_structural       Au2Ce5PPb2
_chemical_formula_sum              "Au2 Ce5 P1 Pb2"
_cell_length_a       5.100286720209898
_cell_length_b       7.10063739964563
_cell_length_c       7.017951488494873
_cell_angle_alpha    118.37737867881317
_cell_angle_beta     111.25448465134676
_cell_angle_gamma    88.9866100749136

_space_group_name_H-M_alt    "P 1"
_space_group_IT_number       1

loop_
  _space_group_symop_operation_xyz
  'x, y, z'

loop_
  _atom_site_type_symbol
  _atom_site_label
  _atom_site_symmetry_multiplicity
  _atom_site_fract_x
  _atom_site_fract_y
  _atom_site_fract_z
  _atom_site_occupancy
  Au  Au1       1.0  0.2746036648750305  0.49835687875747686  0.22854207456111908  1.0000
  Au  Au2       1.0  0.5549944043159485  0.16524069011211395  0.8946620225906372  1.0000
  Ce  Ce1       1.0  0.932891845703125  0.5815759301185608  0.8545575737953186  1.0000
  Ce  Ce2       1.0  0.173638254404068  0.6114908456802368  0.36533078551292425  1.0000
  Ce  Ce3       1.0  0.6751919984817505  0.11089043319225313  0.6199652552604675  1.0000
  Ce  Ce4       1.0  0.3157525360584259  0.3504186272621155  0.7643290758132935  1.0000
  Ce  Ce5       1.0  0.7921486496925354  0.011760418303310871  0.07026321440935132  1.0000
  P   P1        1.0  0.531639039516449  0.6146367788314819  0.6409546136856079  1.0000
  Pb  Pb1       1.0  0.9752931594848633  0.6194536089897156  0.6063281297683716  1.0000
  Pb  Pb2       1.0  0.30695724487304693  0.9658371210098268  0.4594002962112427  1.0000
