data_image0
_chemical_formula_structural       Ce3NiOP4Tl
_chemical_formula_sum              "Ce3 Ni1 O1 P4 Tl1"
_cell_length_a       4.281698969567666
_cell_length_b       6.334295037360875
_cell_length_c       8.860292434692383
_cell_angle_alpha    92.86614252605118
_cell_angle_beta     100.1164265705662
_cell_angle_gamma    90.4023573380962

_space_group_name_H-M_alt    "P 1"
_space_group_IT_number       1

loop_
  _space_group_symop_operation_xyz
  'x, y, z'

loop_
  _atom_site_type_symbol
  _atom_site_label
  _atom_site_symmetry_multiplicity
  _atom_site_fract_x
  _atom_site_fract_y
  _atom_site_fract_z
  _atom_site_occupancy
  Ce  Ce1       1.0  0.673137903213501  0.7302754521369934  0.5419202446937561  1.0000
  Ce  Ce2       1.0  0.7029670476913452  0.4514217972755432  0.16309720277786255  1.0000
  Ce  Ce3       1.0  0.3730262517929077  0.6754299998283386  0.06848052889108658  1.0000
  Ni  Ni1       1.0  0.1703074723482132  0.11032789200544357  0.9862500429153442  1.0000
  O   O1        1.0  0.669022798538208  0.16074910759925842  0.19271913170814514  1.0000
  P   P1        1.0  0.7698640823364258  0.41317078471183777  0.7809788584709167  1.0000
  P   P2        1.0  0.16629961133003235  0.16295269131660461  0.523443877696991  1.0000
  P   P3        1.0  0.16609418392181396  0.2269265055656433  0.38281238079071045  1.0000
  P   P4        1.0  0.15342538058757782  0.6566880345344543  0.6860875487327576  1.0000
  Tl  Tl1       1.0  0.6557559967041016  0.15084348618984222  0.5034647583961487  1.0000
