data_image0
_chemical_formula_structural       Ce2Cs2P5Ti
_chemical_formula_sum              "Ce2 Cs2 P5 Ti1"
_cell_length_a       4.036166103743389
_cell_length_b       6.4940832126393655
_cell_length_c       8.968454360961914
_cell_angle_alpha    93.52568409200627
_cell_angle_beta     94.61994187403498
_cell_angle_gamma    89.62819861692377

_space_group_name_H-M_alt    "P 1"
_space_group_IT_number       1

loop_
  _space_group_symop_operation_xyz
  'x, y, z'

loop_
  _atom_site_type_symbol
  _atom_site_label
  _atom_site_symmetry_multiplicity
  _atom_site_fract_x
  _atom_site_fract_y
  _atom_site_fract_z
  _atom_site_occupancy
  Ce  Ce1       1.0  0.5679588913917542  0.9198608994483948  0.1680075079202652  1.0000
  Ce  Ce2       1.0  0.5914701223373413  0.9206749200820923  0.9310645461082458  1.0000
  Cs  Cs1       1.0  0.08700735121965408  0.40395572781562805  0.859477162361145  1.0000
  Cs  Cs2       1.0  0.08542201668024063  0.8753647804260254  0.35115236043930054  1.0000
  P   P1        1.0  0.58175128698349  0.9165211915969849  0.05141938477754593  1.0000
  P   P2        1.0  0.09109720587730408  0.3910350799560547  0.5564183592796326  1.0000
  P   P3        1.0  0.08856923133134842  0.27720555663108826  0.37050333619117737  1.0000
  P   P4        1.0  0.5930356979370117  0.4271692633628845  0.17425429821014404  1.0000
  P   P5        1.0  0.5899683833122253  0.41541796922683716  0.6828152537345886  1.0000
  Ti  Ti1       1.0  0.08737111836671829  0.9070473909378052  0.31041285395622253  1.0000
