data_image0
_chemical_formula_structural       AlClCsPPr7
_chemical_formula_sum              "Al1 Cl1 Cs1 P1 Pr7"
_cell_length_a       5.258530228301224
_cell_length_b       9.81242016365992
_cell_length_c       10.380859375
_cell_angle_alpha    89.88141941643534
_cell_angle_beta     88.3627426471325
_cell_angle_gamma    89.46260298140301

_space_group_name_H-M_alt    "P 1"
_space_group_IT_number       1

loop_
  _space_group_symop_operation_xyz
  'x, y, z'

loop_
  _atom_site_type_symbol
  _atom_site_label
  _atom_site_symmetry_multiplicity
  _atom_site_fract_x
  _atom_site_fract_y
  _atom_site_fract_z
  _atom_site_occupancy
  Al  Al1       1.0  0.2343437522649765  0.16569185256958008  0.16492778062820435  1.0000
  Cl  Cl1       1.0  0.22839602828025818  0.011696340516209602  0.4541941285133362  1.0000
  Cs  Cs1       1.0  0.24504998326301575  0.1560196727514267  0.1873921900987625  1.0000
  P   P1        1.0  0.7342932820320129  0.32291820645332336  0.8746592402458191  1.0000
  Pr  Pr1       1.0  0.25171494483947754  0.43656510114669794  0.9394029378890991  1.0000
  Pr  Pr2       1.0  0.24926190078258514  0.5019055604934692  0.17012162506580353  1.0000
  Pr  Pr3       1.0  0.7297565340995789  0.6684851050376892  0.061564840376377106  1.0000
  Pr  Pr4       1.0  0.7372163534164429  0.17146064341068268  0.45598992705345154  1.0000
  Pr  Pr5       1.0  0.7310717701911926  0.5054476261138916  0.9478921890258789  1.0000
  Pr  Pr6       1.0  0.22833307087421417  0.13020749390125275  0.2924081087112427  1.0000
  Pr  Pr7       1.0  0.7393383979797363  0.8410093188285828  0.6433681845664978  1.0000
