data_image0
_chemical_formula_structural       CrCsGdPPr7
_chemical_formula_sum              "Cr1 Cs1 Gd1 P1 Pr7"
_cell_length_a       4.771053988423364
_cell_length_b       6.466008510488338
_cell_length_c       9.798563957214355
_cell_angle_alpha    89.31613058961068
_cell_angle_beta     87.72426614480327
_cell_angle_gamma    117.31669054290694

_space_group_name_H-M_alt    "P 1"
_space_group_IT_number       1

loop_
  _space_group_symop_operation_xyz
  'x, y, z'

loop_
  _atom_site_type_symbol
  _atom_site_label
  _atom_site_symmetry_multiplicity
  _atom_site_fract_x
  _atom_site_fract_y
  _atom_site_fract_z
  _atom_site_occupancy
  Cr  Cr1       1.0  0.6330230236053467  0.6945418119430542  0.16691941022872925  1.0000
  Cs  Cs1       1.0  0.18881560862064362  0.888853132724762  0.33258798718452454  1.0000
  Gd  Gd1       1.0  0.6511168479919434  0.5185572504997253  0.49830296635627747  1.0000
  P   P1        1.0  0.14425191283226013  0.19095179438591003  0.6885218024253845  1.0000
  Pr  Pr1       1.0  0.6402170658111572  0.015895836055278778  0.5251649022102356  1.0000
  Pr  Pr2       1.0  0.13813237845897675  0.8437241911888123  0.9972956180572511  1.0000
  Pr  Pr3       1.0  0.11673394590616226  0.17839668691158295  0.07347085326910019  1.0000
  Pr  Pr4       1.0  0.14851196110248566  0.19146853685379028  0.9139943718910217  1.0000
  Pr  Pr5       1.0  0.10874676704406738  0.26442036032676697  0.12330131977796555  1.0000
  Pr  Pr6       1.0  0.6262242197990417  0.6912631988525391  0.6619138121604919  1.0000
  Pr  Pr7       1.0  0.6501989364624023  0.3893638849258423  0.9401266574859619  1.0000
