data_image0
_chemical_formula_structural       Ag3IPr5PtRu
_chemical_formula_sum              "Ag3 I1 Pr5 Pt1 Ru1"
_cell_length_a       5.189127224217044
_cell_length_b       6.9459073157916995
_cell_length_c       8.560826301574707
_cell_angle_alpha    103.86166529089373
_cell_angle_beta     89.50719001381064
_cell_angle_gamma    89.79634576696554

_space_group_name_H-M_alt    "P 1"
_space_group_IT_number       1

loop_
  _space_group_symop_operation_xyz
  'x, y, z'

loop_
  _atom_site_type_symbol
  _atom_site_label
  _atom_site_symmetry_multiplicity
  _atom_site_fract_x
  _atom_site_fract_y
  _atom_site_fract_z
  _atom_site_occupancy
  Ag  Ag1       1.0  0.008812463842332363  0.3846299350261689  0.9743453860282898  1.0000
  Ag  Ag2       1.0  0.555155873298645  0.5386310815811157  0.9072025418281555  1.0000
  Ag  Ag3       1.0  0.7329196929931641  0.3739381134510041  0.9109838604927063  1.0000
  I   I1        1.0  0.20178736746311188  0.15045933425426483  0.9878686666488647  1.0000
  Pr  Pr1       1.0  0.2224292159080505  0.19363474845886233  0.3561901152133942  1.0000
  Pr  Pr2       1.0  0.7466844320297241  0.864663600921631  0.3734768331050873  1.0000
  Pr  Pr3       1.0  0.16511863470077515  0.6122563481330872  0.3973166346549988  1.0000
  Pr  Pr4       1.0  0.7005476355552673  0.904419779777527  0.02826445363461974  1.0000
  Pr  Pr5       1.0  0.2081259191036224  0.6467503905296326  0.5008201599121094  1.0000
  Pt  Pt1       1.0  0.649867296218872  0.10385083407163621  0.12407321482896805  1.0000
  Ru  Ru1       1.0  0.6781279444694519  0.7456634640693666  0.4035886228084564  1.0000
