data_image0
_chemical_formula_structural       Ag2CeIPr5PtRu
_chemical_formula_sum              "Ag2 Ce1 I1 Pr5 Pt1 Ru1"
_cell_length_a       5.334440912617053
_cell_length_b       8.317691205113306
_cell_length_c       8.411274909973145
_cell_angle_alpha    120.23975835953121
_cell_angle_beta     89.90797771271667
_cell_angle_gamma    89.76698857520984

_space_group_name_H-M_alt    "P 1"
_space_group_IT_number       1

loop_
  _space_group_symop_operation_xyz
  'x, y, z'

loop_
  _atom_site_type_symbol
  _atom_site_label
  _atom_site_symmetry_multiplicity
  _atom_site_fract_x
  _atom_site_fract_y
  _atom_site_fract_z
  _atom_site_occupancy
  Ag  Ag1       1.0  0.5391942858695984  0.3943943977355957  0.22344005107879644  1.0000
  Ag  Ag2       1.0  0.06367167830467224  0.5765365362167358  0.40795210003852844  1.0000
  Ce  Ce1       1.0  0.5543767213821411  0.5356500744819641  0.05335550755262375  1.0000
  I   I1        1.0  0.04790978133678436  0.4417611956596375  0.762143075466156  1.0000
  Pr  Pr1       1.0  0.04528248682618141  0.9516146183013917  0.6411750912666321  1.0000
  Pr  Pr2       1.0  0.5349411964416504  0.5740883350372314  0.07741366326808935  1.0000
  Pr  Pr3       1.0  0.5541412234306335  0.3380031883716583  0.2134127169847489  1.0000
  Pr  Pr4       1.0  0.05145511403679848  0.9673941731452943  0.13448631763458263  1.0000
  Pr  Pr5       1.0  0.05041366443037987  0.06422886252403259  0.7035351991653442  1.0000
  Pt  Pt1       1.0  0.5517168045043945  0.9845476746559144  0.48580250144004833  1.0000
  Ru  Ru1       1.0  0.06276240944862366  0.6925991177558899  0.562852144241333  1.0000
