data_image0
_chemical_formula_structural       Cl2Pr9
_chemical_formula_sum              "Cl2 Pr9"
_cell_length_a       4.427073492979832
_cell_length_b       8.707427996026336
_cell_length_c       9.846770286560059
_cell_angle_alpha    89.67264386595114
_cell_angle_beta     89.23616002484877
_cell_angle_gamma    90.43129768327155

_space_group_name_H-M_alt    "P 1"
_space_group_IT_number       1

loop_
  _space_group_symop_operation_xyz
  'x, y, z'

loop_
  _atom_site_type_symbol
  _atom_site_label
  _atom_site_symmetry_multiplicity
  _atom_site_fract_x
  _atom_site_fract_y
  _atom_site_fract_z
  _atom_site_occupancy
  Cl  Cl1       1.0  0.6980351209640503  0.5489351749420166  0.08704186230897903  1.0000
  Cl  Cl2       1.0  0.2009821981191635  0.26659080386161804  0.5799950361251831  1.0000
  Pr  Pr1       1.0  0.7042680978775024  0.7827121615409851  0.976723849773407  1.0000
  Pr  Pr2       1.0  0.6840110421180725  0.9192867279052734  0.35185861587524414  1.0000
  Pr  Pr3       1.0  0.20831142365932465  0.4904475808143616  0.1983378380537033  1.0000
  Pr  Pr4       1.0  0.196435809135437  0.8867577910423279  0.04731619358062744  1.0000
  Pr  Pr5       1.0  0.7024389505386353  0.18347914516925812  0.06691604107618332  1.0000
  Pr  Pr6       1.0  0.19712544977664948  0.032438941299915314  0.8650243282318115  1.0000
  Pr  Pr7       1.0  0.18233837187290192  0.968385636806488  0.708392858505249  1.0000
  Pr  Pr8       1.0  0.6979171633720398  0.048854582011699677  0.558772623538971  1.0000
  Pr  Pr9       1.0  0.7200329303741455  0.27463048696517944  0.08022086322307587  1.0000
