data_image0
_chemical_formula_structural       ClKPr8Pt
_chemical_formula_sum              "Cl1 K1 Pr8 Pt1"
_cell_length_a       5.24014948247028
_cell_length_b       9.010538943043015
_cell_length_c       9.060823440551758
_cell_angle_alpha    117.09564525282494
_cell_angle_beta     91.71541317458501
_cell_angle_gamma    89.91167160581865

_space_group_name_H-M_alt    "P 1"
_space_group_IT_number       1

loop_
  _space_group_symop_operation_xyz
  'x, y, z'

loop_
  _atom_site_type_symbol
  _atom_site_label
  _atom_site_symmetry_multiplicity
  _atom_site_fract_x
  _atom_site_fract_y
  _atom_site_fract_z
  _atom_site_occupancy
  Cl  Cl1       1.0  0.26568636298179626  0.10526946932077408  0.2474343329668045  1.0000
  K   K1        1.0  0.26208868622779846  0.11747308820486069  0.3481752276420593  1.0000
  Pr  Pr1       1.0  0.7590600848197937  0.21899132430553436  0.3434276580810547  1.0000
  Pr  Pr2       1.0  0.2585226595401764  0.42146918177604675  0.6068202257156372  1.0000
  Pr  Pr3       1.0  0.26159998774528503  0.6147631406784058  0.07787321507930756  1.0000
  Pr  Pr4       1.0  0.7597988247871399  0.8913437128067017  0.5779274106025696  1.0000
  Pr  Pr5       1.0  0.7630411982536316  0.6207873821258545  0.572845458984375  1.0000
  Pr  Pr6       1.0  0.2597675621509552  0.34335991740226746  0.4884277880191803  1.0000
  Pr  Pr7       1.0  0.7613844275474548  0.8778846263885498  0.28818678855895996  1.0000
  Pr  Pr8       1.0  0.7625991106033325  0.16198359429836273  0.8515549898147583  1.0000
  Pt  Pt1       1.0  0.263292133808136  0.6998938322067261  0.288787841796875  1.0000
