data_image0
_chemical_formula_structural       AlDyGeI3LiP3Sc
_chemical_formula_sum              "Al1 Dy1 Ge1 I3 Li1 P3 Sc1"
_cell_length_a       4.292001043374259
_cell_length_b       5.976353300967752
_cell_length_c       7.820246696472168
_cell_angle_alpha    90.82703690101833
_cell_angle_beta     91.57129692994725
_cell_angle_gamma    90.2997396266345

_space_group_name_H-M_alt    "P 1"
_space_group_IT_number       1

loop_
  _space_group_symop_operation_xyz
  'x, y, z'

loop_
  _atom_site_type_symbol
  _atom_site_label
  _atom_site_symmetry_multiplicity
  _atom_site_fract_x
  _atom_site_fract_y
  _atom_site_fract_z
  _atom_site_occupancy
  Al  Al1       1.0  0.3086686432361603  0.6090059876441956  0.9247582554817201  1.0000
  Dy  Dy1       1.0  0.07667078077793121  0.9446004033088683  0.49820581078529363  1.0000
  Ge  Ge1       1.0  0.5742372870445251  0.03724979609251022  0.4011551439762116  1.0000
  I   I1        1.0  0.41785308718681335  0.5153835415840149  0.027423836290836338  1.0000
  I   I2        1.0  0.8021225333213806  0.5116274952888489  0.569915771484375  1.0000
  I   I3        1.0  0.6004685759544373  0.8180993795394896  0.7725144028663636  1.0000
  Li  Li1       1.0  0.05819793418049812  0.682293176651001  0.373691737651825  1.0000
  P   P1        1.0  0.568306028842926  0.6913762092590332  0.7434886693954469  1.0000
  P   P2        1.0  0.05709925293922424  0.7376310229301453  0.3410203158855439  1.0000
  P   P3        1.0  0.07175481319427489  0.0037758871912956233  0.13913878798484802  1.0000
  Sc  Sc1       1.0  0.07956206798553467  0.48340928554534907  0.9748910665512086  1.0000
