data_image0
_chemical_formula_structural       Al2I4LiLuPSc2
_chemical_formula_sum              "Al2 I4 Li1 Lu1 P1 Sc2"
_cell_length_a       5.706903481378144
_cell_length_b       6.0619182699926375
_cell_length_c       6.616385459899902
_cell_angle_alpha    121.19045230521462
_cell_angle_beta     90.69798124434973
_cell_angle_gamma    90.94125655623242

_space_group_name_H-M_alt    "P 1"
_space_group_IT_number       1

loop_
  _space_group_symop_operation_xyz
  'x, y, z'

loop_
  _atom_site_type_symbol
  _atom_site_label
  _atom_site_symmetry_multiplicity
  _atom_site_fract_x
  _atom_site_fract_y
  _atom_site_fract_z
  _atom_site_occupancy
  Al  Al1       1.0  0.4828112423419953  0.8657962679862976  0.5485118627548218  1.0000
  Al  Al2       1.0  0.9972262382507325  0.2746122181415558  0.3783565163612366  1.0000
  I   I1        1.0  0.5005854964256287  0.9580573439598083  0.27046582102775585  1.0000
  I   I2        1.0  0.7376187443733215  0.7130864262580872  0.692236602306366  1.0000
  I   I3        1.0  0.9923312067985536  0.10253332555294037  0.3748639225959778  1.0000
  I   I4        1.0  0.24084155261516574  0.9825268387794495  0.6770683526992798  1.0000
  Li  Li1       1.0  0.2581600248813629  0.5317539572715759  0.7200096249580383  1.0000
  Lu  Lu1       1.0  0.7404435276985168  0.48544254899024963  0.6724761128425598  1.0000
  P   P1        1.0  0.7431809902191162  0.6639560461044312  0.08747408539056784  1.0000
  Sc  Sc1       1.0  0.06066477298736573  0.27024391293525696  0.9108062982559203  1.0000
  Sc  Sc2       1.0  0.3765896260738373  0.36640220880508423  0.41128295660018915  1.0000
