data_image0
_chemical_formula_structural       Al7Ge4
_chemical_formula_sum              "Al7 Ge4"
_cell_length_a       5.283261255662756
_cell_length_b       6.53311379498609
_cell_length_c       6.556579113006592
_cell_angle_alpha    120.30532319402865
_cell_angle_beta     89.72041812919205
_cell_angle_gamma    94.84948133536263

_space_group_name_H-M_alt    "P 1"
_space_group_IT_number       1

loop_
  _space_group_symop_operation_xyz
  'x, y, z'

loop_
  _atom_site_type_symbol
  _atom_site_label
  _atom_site_symmetry_multiplicity
  _atom_site_fract_x
  _atom_site_fract_y
  _atom_site_fract_z
  _atom_site_occupancy
  Al  Al1       1.0  0.9639800190925598  0.7322524785995483  0.22347320616245275  1.0000
  Al  Al2       1.0  0.4130368232727051  0.9647531509399414  0.024789419025182724  1.0000
  Al  Al3       1.0  0.9719130992889404  0.1157895177602768  0.3521983325481415  1.0000
  Al  Al4       1.0  0.4621596932411194  0.20567521452903748  0.41057384014129644  1.0000
  Al  Al5       1.0  0.7333758473396301  0.7516442537307739  0.3365372717380524  1.0000
  Al  Al6       1.0  0.2103421688079834  0.7108246088027954  0.12446768581867225  1.0000
  Al  Al7       1.0  0.9706385731697083  0.11400328576564789  0.7456321120262146  1.0000
  Ge  Ge1       1.0  0.4672451615333557  0.6933711767196655  0.6950186491012573  1.0000
  Ge  Ge2       1.0  0.4675344228744507  0.7220079898834229  0.3933819532394409  1.0000
  Ge  Ge3       1.0  0.9689334034919739  0.7001162171363831  0.3165342211723328  1.0000
  Ge  Ge4       1.0  0.4718683660030365  0.596943736076355  0.2544008493423462  1.0000
