data_image0
_chemical_formula_structural       Al7Ge4
_chemical_formula_sum              "Al7 Ge4"
_cell_length_a       4.4825429962752015
_cell_length_b       7.082618164679076
_cell_length_c       7.3485026359558105
_cell_angle_alpha    118.11007812451656
_cell_angle_beta     88.11889534187002
_cell_angle_gamma    91.2527461598018

_space_group_name_H-M_alt    "P 1"
_space_group_IT_number       1

loop_
  _space_group_symop_operation_xyz
  'x, y, z'

loop_
  _atom_site_type_symbol
  _atom_site_label
  _atom_site_symmetry_multiplicity
  _atom_site_fract_x
  _atom_site_fract_y
  _atom_site_fract_z
  _atom_site_occupancy
  Al  Al1       1.0  0.5163803696632385  0.9015488028526305  0.7965553402900696  1.0000
  Al  Al2       1.0  0.01636088639497757  0.09336779266595839  0.432248055934906  1.0000
  Al  Al3       1.0  0.513292670249939  0.06487095355987549  0.8244731426239014  1.0000
  Al  Al4       1.0  0.5189749002456665  0.6259069442749023  0.32278385758399963  1.0000
  Al  Al5       1.0  0.757880687713623  0.33787870407104487  0.26010826230049133  1.0000
  Al  Al6       1.0  0.5205323696136475  0.7845537066459655  0.4655138552188873  1.0000
  Al  Al7       1.0  0.02056957595050335  0.8421291112899779  0.051848743110895094  1.0000
  Ge  Ge1       1.0  0.019022949039936066  0.8278109431266784  0.37948825955390925  1.0000
  Ge  Ge2       1.0  0.022026490420103073  0.325562059879303  0.26381376385688776  1.0000
  Ge  Ge3       1.0  0.5135729908943176  0.0574272871017456  0.01694870740175247  1.0000
  Ge  Ge4       1.0  0.5192946791648865  0.7066414356231688  0.7695022225379944  1.0000
