data_image0
_chemical_formula_structural       AlDyFGe4I2PSc
_chemical_formula_sum              "Al1 Dy1 F1 Ge4 I2 P1 Sc1"
_cell_length_a       5.228140899546559
_cell_length_b       5.355006293208417
_cell_length_c       8.27133560180664
_cell_angle_alpha    91.81560288571772
_cell_angle_beta     91.30942329581383
_cell_angle_gamma    121.6881201516913

_space_group_name_H-M_alt    "P 1"
_space_group_IT_number       1

loop_
  _space_group_symop_operation_xyz
  'x, y, z'

loop_
  _atom_site_type_symbol
  _atom_site_label
  _atom_site_symmetry_multiplicity
  _atom_site_fract_x
  _atom_site_fract_y
  _atom_site_fract_z
  _atom_site_occupancy
  Al  Al1       1.0  0.61054527759552  0.6310948133468628  0.07615873217582703  1.0000
  Dy  Dy1       1.0  0.611131489276886  0.4388546049594879  0.673468291759491  1.0000
  F   F1        1.0  0.7098791599273682  0.07354161888360977  0.8350316882133484  1.0000
  Ge  Ge1       1.0  0.13582459092140198  0.4721825122833252  0.11987852305173874  1.0000
  Ge  Ge2       1.0  0.2629298269748688  0.8631647825241089  0.8840099573135376  1.0000
  Ge  Ge3       1.0  0.25911805033683777  0.837393045425415  0.9756439328193665  1.0000
  Ge  Ge4       1.0  0.8332219123840332  0.3688007593154907  0.4007434844970703  1.0000
  I   I1        1.0  0.10155987739562988  0.83088618516922  0.5026914477348328  1.0000
  I   I2        1.0  0.5834176540374756  0.4400727152824402  0.16798384487628937  1.0000
  P   P1        1.0  0.8579491376876831  0.4637075364589691  0.6482762694358826  1.0000
  Sc  Sc1       1.0  0.07484623789787292  0.29890504479408264  0.4650484323501587  1.0000
