data_image0
_chemical_formula_structural       Al2Ge4I2PSc2
_chemical_formula_sum              "Al2 Ge4 I2 P1 Sc2"
_cell_length_a       6.022388142845667
_cell_length_b       5.701061756081357
_cell_length_c       6.725910663604736
_cell_angle_alpha    89.99844226954656
_cell_angle_beta     90.05740280493772
_cell_angle_gamma    100.62290264247599

_space_group_name_H-M_alt    "P 1"
_space_group_IT_number       1

loop_
  _space_group_symop_operation_xyz
  'x, y, z'

loop_
  _atom_site_type_symbol
  _atom_site_label
  _atom_site_symmetry_multiplicity
  _atom_site_fract_x
  _atom_site_fract_y
  _atom_site_fract_z
  _atom_site_occupancy
  Al  Al1       1.0  0.20671297609806058  0.7733218669891357  0.6822987794876099  1.0000
  Al  Al2       1.0  0.6573320627212524  0.38703030347824097  0.12136147171258926  1.0000
  Ge  Ge1       1.0  0.18761783838272092  0.4156851768493653  0.46465545892715454  1.0000
  Ge  Ge2       1.0  0.17139264941215515  0.3798913061618805  0.14006057381629944  1.0000
  Ge  Ge3       1.0  0.9120687842369078  0.17235957086086273  0.702825129032135  1.0000
  Ge  Ge4       1.0  0.6871198415756226  0.7157654762268066  0.06929492205381393  1.0000
  I   I1        1.0  0.1815650165081024  0.0693521574139595  0.49593666195869446  1.0000
  I   I2        1.0  0.3811028599739074  0.2750513553619385  0.6265243291854858  1.0000
  P   P1        1.0  0.6900091767311096  0.651202380657196  0.36640506982803345  1.0000
  Sc  Sc1       1.0  0.4303449988365173  0.8660436272621156  0.44672417640686035  1.0000
  Sc  Sc2       1.0  0.9325331449508666  0.3887677788734436  0.7466776967048645  1.0000
