data_image0
_chemical_formula_structural       Ge2Ta5
_chemical_formula_sum              "Ge2 Ta5"
_cell_length_a       4.102468253178188
_cell_length_b       5.529107482555948
_cell_length_c       7.763715744018555
_cell_angle_alpha    117.87819139895794
_cell_angle_beta     99.03404185518609
_cell_angle_gamma    87.39649495213705

_space_group_name_H-M_alt    "P 1"
_space_group_IT_number       1

loop_
  _space_group_symop_operation_xyz
  'x, y, z'

loop_
  _atom_site_type_symbol
  _atom_site_label
  _atom_site_symmetry_multiplicity
  _atom_site_fract_x
  _atom_site_fract_y
  _atom_site_fract_z
  _atom_site_occupancy
  Ge  Ge1       1.0  0.2727292478084564  0.6947760581970215  0.04080440104007718  1.0000
  Ge  Ge2       1.0  0.348145067691803  0.435666561126709  0.653283953666687  1.0000
  Ta  Ta1       1.0  0.6147951483726501  0.37850135564804077  0.09990895539522171  1.0000
  Ta  Ta2       1.0  0.03926311805844307  0.2999626100063324  0.931041419506073  1.0000
  Ta  Ta3       1.0  0.827989935874939  0.7635018825531006  0.06485681980848312  1.0000
  Ta  Ta4       1.0  0.32514137029647827  0.0929601788520813  0.10374423116445541  1.0000
  Ta  Ta5       1.0  0.8422128558158875  0.06761381030082703  0.7377345561981201  1.0000
