data_image0
_chemical_formula_structural       Ge3Ta4
_chemical_formula_sum              "Ge3 Ta4"
_cell_length_a       4.263622446903505
_cell_length_b       5.753131257015702
_cell_length_c       6.11292839050293
_cell_angle_alpha    122.45242647039782
_cell_angle_beta     92.13110614625201
_cell_angle_gamma    90.7444303035537

_space_group_name_H-M_alt    "P 1"
_space_group_IT_number       1

loop_
  _space_group_symop_operation_xyz
  'x, y, z'

loop_
  _atom_site_type_symbol
  _atom_site_label
  _atom_site_symmetry_multiplicity
  _atom_site_fract_x
  _atom_site_fract_y
  _atom_site_fract_z
  _atom_site_occupancy
  Ge  Ge1       1.0  0.34198737144470215  0.5862048268318176  0.5861632823944092  1.0000
  Ge  Ge2       1.0  0.8209944367408752  0.7072815299034119  0.6585214734077454  1.0000
  Ge  Ge3       1.0  0.06557850539684296  0.8581455945968628  0.1779444962739945  1.0000
  Ta  Ta1       1.0  0.5707470774650574  0.27414271235466003  0.665467619895935  1.0000
  Ta  Ta2       1.0  0.016341369599103928  0.16231289505958557  0.9089068174362182  1.0000
  Ta  Ta3       1.0  0.05395064875483513  0.10374956578016281  0.16653004288673398  1.0000
  Ta  Ta4       1.0  0.5074012279510498  0.5769687294960022  0.18114651739597318  1.0000
