data_image0
_chemical_formula_structural       GeTa6
_chemical_formula_sum              "Ge1 Ta6"
_cell_length_a       4.747338255219976
_cell_length_b       4.945910738927406
_cell_length_c       6.310035228729248
_cell_angle_alpha    116.13363780685958
_cell_angle_beta     117.61265858276887
_cell_angle_gamma    86.37600940847283

_space_group_name_H-M_alt    "P 1"
_space_group_IT_number       1

loop_
  _space_group_symop_operation_xyz
  'x, y, z'

loop_
  _atom_site_type_symbol
  _atom_site_label
  _atom_site_symmetry_multiplicity
  _atom_site_fract_x
  _atom_site_fract_y
  _atom_site_fract_z
  _atom_site_occupancy
  Ge  Ge1       1.0  0.3339978754520416  0.13143450021743774  0.3944244086742401  1.0000
  Ta  Ta1       1.0  0.9461840987205505  0.13362140953540802  0.6557235717773438  1.0000
  Ta  Ta2       1.0  0.2532445192337036  0.12038342654705048  0.38518327474594116  1.0000
  Ta  Ta3       1.0  0.5137571692466736  0.08331885188817978  0.30878710746765137  1.0000
  Ta  Ta4       1.0  0.6400007605552673  0.3915936350822449  0.018035251647233963  1.0000
  Ta  Ta5       1.0  0.9463081955909729  0.6321726441383362  0.6471852660179138  1.0000
  Ta  Ta6       1.0  0.2917889952659607  0.38913044333457947  0.8849133849143982  1.0000
