data_image0
_chemical_formula_structural       Ba2I2S2TiZn2Zr
_chemical_formula_sum              "Ba2 I2 S2 Ti1 Zn2 Zr1"
_cell_length_a       5.615867556130179
_cell_length_b       7.014937035409567
_cell_length_c       8.72020149230957
_cell_angle_alpha    123.5949128688722
_cell_angle_beta     88.23132976220354
_cell_angle_gamma    90.28062386122559

_space_group_name_H-M_alt    "P 1"
_space_group_IT_number       1

loop_
  _space_group_symop_operation_xyz
  'x, y, z'

loop_
  _atom_site_type_symbol
  _atom_site_label
  _atom_site_symmetry_multiplicity
  _atom_site_fract_x
  _atom_site_fract_y
  _atom_site_fract_z
  _atom_site_occupancy
  Ba  Ba1       1.0  0.1784995049238205  0.6934183239936829  0.3553205132484436  1.0000
  Ba  Ba2       1.0  0.6760970950126648  0.67151939868927  0.6453014612197876  1.0000
  I   I1        1.0  0.16299930214881897  0.3975767493247986  0.5173779726028442  1.0000
  I   I2        1.0  0.6623175144195557  0.575259268283844  0.6399776935577393  1.0000
  S   S1        1.0  0.6870258450508118  0.9425716400146485  0.15424680709838867  1.0000
  S   S2        1.0  0.6821355223655701  0.9778497219085694  0.925348699092865  1.0000
  Ti  Ti1       1.0  0.16988307237625122  0.3811531662940979  0.27113568782806396  1.0000
  Zn  Zn1       1.0  0.6627293825149536  0.3179715573787689  0.11257516592741013  1.0000
  Zn  Zn2       1.0  0.16938704252243042  0.8083375096321106  0.39991050958633423  1.0000
  Zr  Zr1       1.0  0.6686777472496033  0.6918601989746094  0.7687668204307556  1.0000
