data_image0
_chemical_formula_structural       Ba3FS3UZnZr
_chemical_formula_sum              "Ba3 F1 S3 U1 Zn1 Zr1"
_cell_length_a       5.530468527491806
_cell_length_b       7.235191556963512
_cell_length_c       8.38455867767334
_cell_angle_alpha    122.36650951732672
_cell_angle_beta     90.00868890567675
_cell_angle_gamma    89.53493028186773

_space_group_name_H-M_alt    "P 1"
_space_group_IT_number       1

loop_
  _space_group_symop_operation_xyz
  'x, y, z'

loop_
  _atom_site_type_symbol
  _atom_site_label
  _atom_site_symmetry_multiplicity
  _atom_site_fract_x
  _atom_site_fract_y
  _atom_site_fract_z
  _atom_site_occupancy
  Ba  Ba1       1.0  0.1748502403497696  0.9060912132263185  0.12921316921710974  1.0000
  Ba  Ba2       1.0  0.6753515005111694  0.694880485534668  0.8411000967025757  1.0000
  Ba  Ba3       1.0  0.675581693649292  0.854443907737732  0.5441063642501831  1.0000
  F   F1        1.0  0.623435616493225  0.8055275082588197  0.4183820188045502  1.0000
  S   S1        1.0  0.1742001324892044  0.11802732199430467  0.43233695626258856  1.0000
  S   S2        1.0  0.17215625941753387  0.19943448901176455  0.09291090071201326  1.0000
  S   S3        1.0  0.1732863187789917  0.23269477486610415  0.14889569580554965  1.0000
  U   U1        1.0  0.8325632810592651  0.29012584686279297  0.680955708026886  1.0000
  Zn  Zn1       1.0  0.3797116279602051  0.2981521487236023  0.0457526966929436  1.0000
  Zr  Zr1       1.0  0.6744235157966614  0.9752690792083741  0.7241252064704896  1.0000
