data_image0
_chemical_formula_structural       Ba3CdMoS2SiZn2
_chemical_formula_sum              "Ba3 Cd1 Mo1 S2 Si1 Zn2"
_cell_length_a       7.068230564985064
_cell_length_b       6.659710466736045
_cell_length_c       8.369576454162598
_cell_angle_alpha    108.8454408325406
_cell_angle_beta     107.43169428806104
_cell_angle_gamma    115.62754179610943

_space_group_name_H-M_alt    "P 1"
_space_group_IT_number       1

loop_
  _space_group_symop_operation_xyz
  'x, y, z'

loop_
  _atom_site_type_symbol
  _atom_site_label
  _atom_site_symmetry_multiplicity
  _atom_site_fract_x
  _atom_site_fract_y
  _atom_site_fract_z
  _atom_site_occupancy
  Ba  Ba1       1.0  0.9081613421440125  0.47721245884895325  0.0313919372856617  1.0000
  Ba  Ba2       1.0  0.8773462176322937  0.728025496006012  0.6706065535545349  1.0000
  Ba  Ba3       1.0  0.9018120169639587  0.7449696063995361  0.7444468140602112  1.0000
  Cd  Cd1       1.0  0.32171177864074707  0.8730769157409668  0.7571053504943848  1.0000
  Mo  Mo1       1.0  0.8858869671821594  0.4333277940750122  0.6560019850730896  1.0000
  S   S1        1.0  0.4411024749279022  0.9948348999023438  0.9511619806289673  1.0000
  S   S2        1.0  0.22708487510681152  0.3120591938495636  0.6570860743522644  1.0000
  Si  Si1       1.0  0.8671892285346985  0.4296688437461853  0.40334436297416687  1.0000
  Zn  Zn1       1.0  0.9527989029884338  0.8384169340133667  0.09373103827238083  1.0000
  Zn  Zn2       1.0  0.41708260774612427  0.1551334261894226  0.7569807767868042  1.0000
