data_image0
_chemical_formula_structural       Ba5CuS4
_chemical_formula_sum              "Ba5 Cu1 S4"
_cell_length_a       5.677741533043024
_cell_length_b       5.835865508401661
_cell_length_c       11.177431106567383
_cell_angle_alpha    109.660239383456
_cell_angle_beta     107.96297571275356
_cell_angle_gamma    94.02496623207702

_space_group_name_H-M_alt    "P 1"
_space_group_IT_number       1

loop_
  _space_group_symop_operation_xyz
  'x, y, z'

loop_
  _atom_site_type_symbol
  _atom_site_label
  _atom_site_symmetry_multiplicity
  _atom_site_fract_x
  _atom_site_fract_y
  _atom_site_fract_z
  _atom_site_occupancy
  Ba  Ba1       1.0  0.9109139442443848  0.018370836973190308  0.623716413974762  1.0000
  Ba  Ba2       1.0  0.40607699751853943  0.5211946368217468  0.4982497990131378  1.0000
  Ba  Ba3       1.0  0.3891322612762451  0.8212294578552246  0.29108425974845886  1.0000
  Ba  Ba4       1.0  0.8582389950752258  0.7982672452926636  0.5005438327789307  1.0000
  Ba  Ba5       1.0  0.9074455499649048  0.4991155862808227  0.6253976821899414  1.0000
  Cu  Cu1       1.0  0.1269267201423645  0.3019877076148987  0.3001609444618225  1.0000
  S   S1        1.0  0.47604668140411377  0.7060441970825195  0.11455043405294418  1.0000
  S   S2        1.0  0.4659666419029236  0.2786230146884918  0.2548885643482208  1.0000
  S   S3        1.0  0.4093405604362488  0.5689472556114197  0.7686182260513306  1.0000
  S   S4        1.0  0.9683743715286255  0.7273952960968018  0.6602126955986023  1.0000
