data_image0
_chemical_formula_structural       Ba5CuS4
_chemical_formula_sum              "Ba5 Cu1 S4"
_cell_length_a       6.621136022899463
_cell_length_b       6.204902758641639
_cell_length_c       8.742352485656738
_cell_angle_alpha    111.74075764475083
_cell_angle_beta     111.66619364298415
_cell_angle_gamma    90.06810560410575

_space_group_name_H-M_alt    "P 1"
_space_group_IT_number       1

loop_
  _space_group_symop_operation_xyz
  'x, y, z'

loop_
  _atom_site_type_symbol
  _atom_site_label
  _atom_site_symmetry_multiplicity
  _atom_site_fract_x
  _atom_site_fract_y
  _atom_site_fract_z
  _atom_site_occupancy
  Ba  Ba1       1.0  0.23669765889644626  0.3544173240661621  0.7287452816963196  1.0000
  Ba  Ba2       1.0  0.26029741764068604  0.03716205805540085  0.06564412266016006  1.0000
  Ba  Ba3       1.0  0.22968760132789615  0.8847578167915343  0.5218119621276855  1.0000
  Ba  Ba4       1.0  0.4913840293884278  0.6123594045639038  0.5722349882125854  1.0000
  Ba  Ba5       1.0  0.19846306741237643  0.17499913275241852  0.23133927583694458  1.0000
  Cu  Cu1       1.0  0.77974671125412  0.17525933682918549  0.40218695998191833  1.0000
  S   S1        1.0  0.794947922229767  0.484486699104309  0.5250490307807922  1.0000
  S   S2        1.0  0.7635070085525514  0.2702087163925171  0.9512348771095276  1.0000
  S   S3        1.0  0.2430498003959656  0.07899694889783859  0.3014340102672577  1.0000
  S   S4        1.0  0.27102214097976685  0.7306867241859436  0.3928178548812866  1.0000
