data_image0
_chemical_formula_structural       Ba7PS2
_chemical_formula_sum              "Ba7 P1 S2"
_cell_length_a       6.230088190724937
_cell_length_b       6.8165327390627555
_cell_length_c       10.93105697631836
_cell_angle_alpha    90.27826139113903
_cell_angle_beta     90.31456420304062
_cell_angle_gamma    115.2820254692575

_space_group_name_H-M_alt    "P 1"
_space_group_IT_number       1

loop_
  _space_group_symop_operation_xyz
  'x, y, z'

loop_
  _atom_site_type_symbol
  _atom_site_label
  _atom_site_symmetry_multiplicity
  _atom_site_fract_x
  _atom_site_fract_y
  _atom_site_fract_z
  _atom_site_occupancy
  Ba  Ba1       1.0  0.2761218249797821  0.6723884344100952  0.8109281659126282  1.0000
  Ba  Ba2       1.0  0.7936574220657349  0.8909472227096557  0.6510394215583801  1.0000
  Ba  Ba3       1.0  0.9212169051170349  0.189410462975502  0.14277857542037964  1.0000
  Ba  Ba4       1.0  0.42640963196754456  0.6576364040374756  0.1517389416694641  1.0000
  Ba  Ba5       1.0  0.6507228016853333  0.38476729393005366  0.4006429612636566  1.0000
  Ba  Ba6       1.0  0.27280437946319575  0.9171522855758666  0.5269367694854736  1.0000
  Ba  Ba7       1.0  0.9101645350456238  0.8732901215553283  0.642576277256012  1.0000
  P   P1        1.0  0.28028953075408936  0.1904342472553253  0.15357446670532227  1.0000
  S   S1        1.0  0.9041742086410522  0.5756365656852722  0.14405786991119385  1.0000
  S   S2        1.0  0.1494922935962677  0.35915446281433105  0.3885197937488556  1.0000
