data_image0
_chemical_formula_structural       Ba8S2
_chemical_formula_sum              "Ba8 S2"
_cell_length_a       6.537624686374624
_cell_length_b       7.10846316510557
_cell_length_c       11.509062767028809
_cell_angle_alpha    89.73393571588527
_cell_angle_beta     89.35353642276748
_cell_angle_gamma    112.16546832609981

_space_group_name_H-M_alt    "P 1"
_space_group_IT_number       1

loop_
  _space_group_symop_operation_xyz
  'x, y, z'

loop_
  _atom_site_type_symbol
  _atom_site_label
  _atom_site_symmetry_multiplicity
  _atom_site_fract_x
  _atom_site_fract_y
  _atom_site_fract_z
  _atom_site_occupancy
  Ba  Ba1       1.0  0.1233716234564781  0.28130167722702026  0.11837852001190186  1.0000
  Ba  Ba2       1.0  0.018665369600057602  0.5702310800552368  0.3479878902435303  1.0000
  Ba  Ba3       1.0  0.49034017324447626  0.2661423087120056  0.6799376606941223  1.0000
  Ba  Ba4       1.0  0.23281548917293546  0.258724182844162  0.8577439188957214  1.0000
  Ba  Ba5       1.0  0.46347114443778986  0.7781322598457336  0.025096552446484566  1.0000
  Ba  Ba6       1.0  0.8852607607841491  0.7847287654876709  0.7540585994720459  1.0000
  Ba  Ba7       1.0  0.6631566286087036  0.7537135481834412  0.4109000563621521  1.0000
  Ba  Ba8       1.0  0.7582659721374512  0.5492558479309082  0.6230526566505432  1.0000
  S   S1        1.0  0.4758641421794891  0.75412917137146  0.8083302974700928  1.0000
  S   S2        1.0  0.0693134218454361  0.06809202581644058  0.7647272944450378  1.0000
