data_image0
_chemical_formula_structural       Ba5S2Sn3
_chemical_formula_sum              "Ba5 S2 Sn3"
_cell_length_a       6.011667837882812
_cell_length_b       6.961929308179361
_cell_length_c       8.54675006866455
_cell_angle_alpha    114.1566752521058
_cell_angle_beta     89.66057221339126
_cell_angle_gamma    89.17324931410681

_space_group_name_H-M_alt    "P 1"
_space_group_IT_number       1

loop_
  _space_group_symop_operation_xyz
  'x, y, z'

loop_
  _atom_site_type_symbol
  _atom_site_label
  _atom_site_symmetry_multiplicity
  _atom_site_fract_x
  _atom_site_fract_y
  _atom_site_fract_z
  _atom_site_occupancy
  Ba  Ba1       1.0  0.19791512191295624  0.9660413861274719  0.04714440181851387  1.0000
  Ba  Ba2       1.0  0.20855283737182617  0.8231457471847534  0.9968659281730652  1.0000
  Ba  Ba3       1.0  0.6988273859024048  0.30192703008651733  0.5659432411193848  1.0000
  Ba  Ba4       1.0  0.18937724828720093  0.9267051815986633  0.29279235005378723  1.0000
  Ba  Ba5       1.0  0.19963538646697998  0.4627422094345093  0.5103990435600281  1.0000
  S   S1        1.0  0.7398075461387634  0.557731032371521  0.7827885746955872  1.0000
  S   S2        1.0  0.6894178986549377  0.7230584621429443  0.41139185428619385  1.0000
  Sn  Sn1       1.0  0.21782715618610382  0.9328247904777527  0.782806396484375  1.0000
  Sn  Sn2       1.0  0.6940373778343201  0.9546723961830139  0.9106358289718628  1.0000
  Sn  Sn3       1.0  0.709696352481842  0.4565071761608124  0.08277583122253418  1.0000
