data_image0
_chemical_formula_structural       Ba5PSSn3
_chemical_formula_sum              "Ba5 P1 S1 Sn3"
_cell_length_a       6.314586840431475
_cell_length_b       6.706773760302119
_cell_length_c       10.226510047912598
_cell_angle_alpha    91.06657198687306
_cell_angle_beta     89.56286128098732
_cell_angle_gamma    115.42939388897805

_space_group_name_H-M_alt    "P 1"
_space_group_IT_number       1

loop_
  _space_group_symop_operation_xyz
  'x, y, z'

loop_
  _atom_site_type_symbol
  _atom_site_label
  _atom_site_symmetry_multiplicity
  _atom_site_fract_x
  _atom_site_fract_y
  _atom_site_fract_z
  _atom_site_occupancy
  Ba  Ba1       1.0  0.9227368235588074  0.19673576951026917  0.034955140203237534  1.0000
  Ba  Ba2       1.0  0.29749786853790283  0.20140297710895538  0.5696679949760437  1.0000
  Ba  Ba3       1.0  0.6046249866485596  0.639731228351593  0.10836376249790192  1.0000
  Ba  Ba4       1.0  0.9324852824211121  0.9424897432327269  0.8577650189399719  1.0000
  Ba  Ba5       1.0  0.8167330026626587  0.6646757125854492  0.6106289029121399  1.0000
  P   P1        1.0  0.9797804355621338  0.9995608329772948  0.0751635804772377  1.0000
  S   S1        1.0  0.9545302987098694  0.1040131151676178  0.3046479821205139  1.0000
  Sn  Sn1       1.0  0.3171061873435974  0.6410635709762573  0.5826457738876343  1.0000
  Sn  Sn2       1.0  0.3249293565750122  0.6253093481063843  0.8398349285125732  1.0000
  Sn  Sn3       1.0  0.6238425970077515  0.16701440513134003  0.5857340693473816  1.0000
