data_image0
_chemical_formula_structural       Ba6SSn3
_chemical_formula_sum              "Ba6 S1 Sn3"
_cell_length_a       6.6304105235218005
_cell_length_b       6.795337171039053
_cell_length_c       12.429206848144531
_cell_angle_alpha    90.78381987445687
_cell_angle_beta     89.61452615856471
_cell_angle_gamma    113.2974192877513

_space_group_name_H-M_alt    "P 1"
_space_group_IT_number       1

loop_
  _space_group_symop_operation_xyz
  'x, y, z'

loop_
  _atom_site_type_symbol
  _atom_site_label
  _atom_site_symmetry_multiplicity
  _atom_site_fract_x
  _atom_site_fract_y
  _atom_site_fract_z
  _atom_site_occupancy
  Ba  Ba1       1.0  0.9575434327125548  0.1768009066581726  0.10829760879278183  1.0000
  Ba  Ba2       1.0  0.5390372276306152  0.42185965180397034  0.40757057070732117  1.0000
  Ba  Ba3       1.0  0.8691505193710326  0.6809264421463013  0.4940590262413025  1.0000
  Ba  Ba4       1.0  0.24246704578399655  0.7513095140457153  0.8021628856658936  1.0000
  Ba  Ba5       1.0  0.763857066631317  0.7614840865135193  0.8224069476127625  1.0000
  Ba  Ba6       1.0  0.23835644125938413  0.7504391670227051  0.13110443949699402  1.0000
  S   S1        1.0  0.44927781820297236  0.7351701259613037  0.14273715019226074  1.0000
  Sn  Sn1       1.0  0.8553622364997863  0.15675337612628937  0.8383646011352539  1.0000
  Sn  Sn2       1.0  0.41581869125366205  0.12635891139507294  0.6333839297294617  1.0000
  Sn  Sn3       1.0  0.9024763703346251  0.24595294892787933  0.975914716720581  1.0000
