data_image0
_chemical_formula_structural       Ba4SSn5
_chemical_formula_sum              "Ba4 S1 Sn5"
_cell_length_a       7.467242028993842
_cell_length_b       7.543633473441426
_cell_length_c       12.518877983093262
_cell_angle_alpha    91.93101380370476
_cell_angle_beta     88.44088402300886
_cell_angle_gamma    115.27209955252314

_space_group_name_H-M_alt    "P 1"
_space_group_IT_number       1

loop_
  _space_group_symop_operation_xyz
  'x, y, z'

loop_
  _atom_site_type_symbol
  _atom_site_label
  _atom_site_symmetry_multiplicity
  _atom_site_fract_x
  _atom_site_fract_y
  _atom_site_fract_z
  _atom_site_occupancy
  Ba  Ba1       1.0  0.12926533818244934  0.3474563658237457  0.20315930247306824  1.0000
  Ba  Ba2       1.0  0.37672626972198486  0.348270058631897  0.19375650584697723  1.0000
  Ba  Ba3       1.0  0.7446851134300232  0.8498598337173462  0.34700095653533936  1.0000
  Ba  Ba4       1.0  0.7152312397956848  0.8660893440246582  0.7686958909034729  1.0000
  S   S1        1.0  0.13059911131858826  0.9909030199050903  0.19717231392860413  1.0000
  Sn  Sn1       1.0  0.4208940863609314  0.8808742165565491  0.5761775970458984  1.0000
  Sn  Sn2       1.0  0.06935464590787888  0.04428376629948616  0.43209531903266907  1.0000
  Sn  Sn3       1.0  0.43316733837127686  0.02544783055782318  0.5213348269462585  1.0000
  Sn  Sn4       1.0  0.7425015568733215  0.3861313760280609  0.9796571135520935  1.0000
  Sn  Sn5       1.0  0.12899436056613922  0.3942923843860626  0.5139361619949341  1.0000
