data_image0
_chemical_formula_structural       Ge4InLa5P
_chemical_formula_sum              "Ge4 In1 La5 P1"
_cell_length_a       5.4445101461380885
_cell_length_b       5.758566638355357
_cell_length_c       8.557963371276855
_cell_angle_alpha    90.45847121661599
_cell_angle_beta     90.4378136935953
_cell_angle_gamma    100.02447743075906

_space_group_name_H-M_alt    "P 1"
_space_group_IT_number       1

loop_
  _space_group_symop_operation_xyz
  'x, y, z'

loop_
  _atom_site_type_symbol
  _atom_site_label
  _atom_site_symmetry_multiplicity
  _atom_site_fract_x
  _atom_site_fract_y
  _atom_site_fract_z
  _atom_site_occupancy
  Ge  Ge1       1.0  0.396278440952301  0.8427384495735168  0.40946435928344727  1.0000
  Ge  Ge2       1.0  0.3960518538951874  0.7229577898979187  0.6365876197814941  1.0000
  Ge  Ge3       1.0  0.4007846415042877  0.22564348578453064  0.6109411716461182  1.0000
  Ge  Ge4       1.0  0.14283008873462677  0.5562123656272888  0.7836233377456665  1.0000
  In  In1       1.0  0.882117509841919  0.3078523278236389  0.679193377494812  1.0000
  La  La1       1.0  0.3896401524543762  0.44220536947250366  0.8705775141716003  1.0000
  La  La2       1.0  0.8954086303710938  0.6500739455223083  0.6755399703979492  1.0000
  La  La3       1.0  0.41103431582450867  0.9717481136322021  0.5557063817977905  1.0000
  La  La4       1.0  0.8958401083946228  0.1489911526441574  0.06266997754573822  1.0000
  La  La5       1.0  0.8967190384864807  0.06578772515058517  0.05481117591261864  1.0000
  P   P1        1.0  0.86849045753479  0.3143672049045563  0.48429030179977417  1.0000
