data_image0
_chemical_formula_structural       CdGe5La2PtTbV
_chemical_formula_sum              "Cd1 Ge5 La2 Pt1 Tb1 V1"
_cell_length_a       4.112503313132345
_cell_length_b       7.537893359580122
_cell_length_c       7.707355499267578
_cell_angle_alpha    120.88809059951443
_cell_angle_beta     89.1761546660877
_cell_angle_gamma    89.11760218049388

_space_group_name_H-M_alt    "P 1"
_space_group_IT_number       1

loop_
  _space_group_symop_operation_xyz
  'x, y, z'

loop_
  _atom_site_type_symbol
  _atom_site_label
  _atom_site_symmetry_multiplicity
  _atom_site_fract_x
  _atom_site_fract_y
  _atom_site_fract_z
  _atom_site_occupancy
  Cd  Cd1       1.0  0.4110875129699707  0.764950454235077  0.92231285572052  1.0000
  Ge  Ge1       1.0  0.4063010513782501  0.5230535268783569  0.08723804354667664  1.0000
  Ge  Ge2       1.0  0.9025442004203796  0.7653222084045411  0.20308066904544841  1.0000
  Ge  Ge3       1.0  0.4111787676811218  0.20202431082725528  0.22843854129314423  1.0000
  Ge  Ge4       1.0  0.42132607102394104  0.3603045642375946  0.39634665846824646  1.0000
  Ge  Ge5       1.0  0.9192950129508972  0.16531047224998474  0.13556216657161713  1.0000
  La  La1       1.0  0.9027475714683533  0.7757809162139894  0.6175713539123536  1.0000
  La  La2       1.0  0.9113468527793884  0.6275078058242798  0.3436653912067414  1.0000
  Pt  Pt1       1.0  0.413934588432312  0.70072340965271  0.18004250526428228  1.0000
  Tb  Tb1       1.0  0.4149046242237091  0.15870460867881775  0.20486871898174286  1.0000
  V   V1        1.0  0.41030678153038025  0.5559791922569275  0.018545990809798296  1.0000
