data_image0
_chemical_formula_structural       La8Rh3
_chemical_formula_sum              "La8 Rh3"
_cell_length_a       4.451204375862137
_cell_length_b       5.356076219929488
_cell_length_c       5.8318095207214355
_cell_angle_alpha    141.51857318066996
_cell_angle_beta     89.12555055703758
_cell_angle_gamma    97.93707621463652

_space_group_name_H-M_alt    "P 1"
_space_group_IT_number       1

loop_
  _space_group_symop_operation_xyz
  'x, y, z'

loop_
  _atom_site_type_symbol
  _atom_site_label
  _atom_site_symmetry_multiplicity
  _atom_site_fract_x
  _atom_site_fract_y
  _atom_site_fract_z
  _atom_site_occupancy
  La  La1       1.0  0.6574633717536926  0.06635255366563796  0.6524154543876648  1.0000
  La  La2       1.0  0.6742100715637207  0.5878055691719055  0.3113086223602295  1.0000
  La  La3       1.0  0.1729503870010376  0.37686657905578613  0.05178942903876303  1.0000
  La  La4       1.0  0.17217634618282318  0.7087358832359314  0.21685081720352173  1.0000
  La  La5       1.0  0.9480052590370178  0.3904962837696074  0.7512263059616088  1.0000
  La  La6       1.0  0.6926881074905396  0.9076322913169861  0.9388184547424316  1.0000
  La  La7       1.0  0.6313208341598511  0.8186646699905396  0.4106497764587402  1.0000
  La  La8       1.0  0.6758823990821838  0.03583712130784992  0.41946542263031006  1.0000
  Rh  Rh1       1.0  0.30120614171028137  0.08058265596628184  0.5050240755081177  1.0000
  Rh  Rh2       1.0  0.6581937670707703  0.19029568135738362  0.8401489853858947  1.0000
  Rh  Rh3       1.0  0.1884908378124237  0.8269147872924805  0.2942324876785278  1.0000
