data_image0
_chemical_formula_structural       Ge6La3SeZn
_chemical_formula_sum              "Ge6 La3 Se1 Zn1"
_cell_length_a       5.136228099031446
_cell_length_b       6.959836284862202
_cell_length_c       7.72165060043335
_cell_angle_alpha    89.5914178720454
_cell_angle_beta     91.65587225348618
_cell_angle_gamma    90.27783767925695

_space_group_name_H-M_alt    "P 1"
_space_group_IT_number       1

loop_
  _space_group_symop_operation_xyz
  'x, y, z'

loop_
  _atom_site_type_symbol
  _atom_site_label
  _atom_site_symmetry_multiplicity
  _atom_site_fract_x
  _atom_site_fract_y
  _atom_site_fract_z
  _atom_site_occupancy
  Ge  Ge1       1.0  0.5126922130584717  0.20051442086696625  0.16869886219501495  1.0000
  Ge  Ge2       1.0  0.30334967374801636  0.3721882104873657  0.9456749558448792  1.0000
  Ge  Ge3       1.0  0.017718251794576645  0.8914598822593689  0.46755528450012207  1.0000
  Ge  Ge4       1.0  0.025860408321022987  0.8437925577163696  0.7787731289863586  1.0000
  Ge  Ge5       1.0  0.5276207327842712  0.3952382504940033  0.6172764897346497  1.0000
  Ge  Ge6       1.0  0.20616355538368225  0.2889781594276428  0.5071744918823242  1.0000
  La  La1       1.0  0.5156368017196655  0.25410762429237366  0.24161683022975922  1.0000
  La  La2       1.0  0.8058739304542542  0.2516174018383026  0.6807309985160828  1.0000
  La  La3       1.0  0.9965832233428955  0.42150571942329407  0.39632076025009155  1.0000
  Se  Se1       1.0  0.8282656073570251  0.2021414041519165  0.2554698884487152  1.0000
  Zn  Zn1       1.0  0.011110483668744564  0.8636977076530457  0.2573027312755585  1.0000
