data_image0
_chemical_formula_structural       La11
_chemical_formula_sum              "La11"
_cell_length_a       4.720315394923621
_cell_length_b       6.992236374058833
_cell_length_c       6.8070197105407715
_cell_angle_alpha    150.44629693398485
_cell_angle_beta     80.25724352432505
_cell_angle_gamma    84.49880612744867

_space_group_name_H-M_alt    "P 1"
_space_group_IT_number       1

loop_
  _space_group_symop_operation_xyz
  'x, y, z'

loop_
  _atom_site_type_symbol
  _atom_site_label
  _atom_site_symmetry_multiplicity
  _atom_site_fract_x
  _atom_site_fract_y
  _atom_site_fract_z
  _atom_site_occupancy
  La  La1       1.0  0.9908009767532348  0.9408959150314331  0.7579545974731445  1.0000
  La  La2       1.0  0.510429859161377  0.32346102595329296  0.41992983222007757  1.0000
  La  La3       1.0  0.008461349643766856  0.21925474703311926  0.45916652679443365  1.0000
  La  La4       1.0  0.5178636908531189  0.30009096860885626  0.8836997151374817  1.0000
  La  La5       1.0  0.5177778601646423  0.37892442941665655  0.4276865720748902  1.0000
  La  La6       1.0  0.003815054893493652  0.5623602867126465  0.08351492881774904  1.0000
  La  La7       1.0  0.5088921189308167  0.8206753730773927  0.4793834090232849  1.0000
  La  La8       1.0  0.006483052857220173  0.43200013041496277  0.0034579234197736  1.0000
  La  La9       1.0  0.5050652027130127  0.16370679438114166  0.07172584533691408  1.0000
  La  La10      1.0  0.018445122987031888  0.5802684426307679  0.14859066903591162  1.0000
  La  La11      1.0  0.26837456226348877  0.7819349765777588  0.45372238755226135  1.0000
