data_image0
_chemical_formula_structural       Ge3La4PV2Zn
_chemical_formula_sum              "Ge3 La4 P1 V2 Zn1"
_cell_length_a       4.8991600733797736
_cell_length_b       6.693653304839344
_cell_length_c       7.620438098907471
_cell_angle_alpha    92.32957837269434
_cell_angle_beta     91.26835902246609
_cell_angle_gamma    118.40410538481407

_space_group_name_H-M_alt    "P 1"
_space_group_IT_number       1

loop_
  _space_group_symop_operation_xyz
  'x, y, z'

loop_
  _atom_site_type_symbol
  _atom_site_label
  _atom_site_symmetry_multiplicity
  _atom_site_fract_x
  _atom_site_fract_y
  _atom_site_fract_z
  _atom_site_occupancy
  Ge  Ge1       1.0  0.5485174059867859  0.6498749852180481  0.37938353419303894  1.0000
  Ge  Ge2       1.0  0.5659127831459045  0.22687415778636932  0.7010459899902344  1.0000
  Ge  Ge3       1.0  0.027336832135915756  0.40889954566955566  0.9720331430435181  1.0000
  La  La1       1.0  0.06711352616548538  0.1560465395450592  0.7750982642173767  1.0000
  La  La2       1.0  0.5817862749099731  0.941744863986969  0.8900354504585266  1.0000
  La  La3       1.0  0.05196264386177063  0.12832176685333252  0.9032326936721802  1.0000
  La  La4       1.0  0.08184481412172318  0.3158496916294098  0.8091340661048889  1.0000
  P   P1        1.0  0.04474750906229019  0.04138294234871864  0.8093898892402649  1.0000
  V   V1        1.0  0.6745871901512146  0.5517978668212891  0.5271621942520142  1.0000
  V   V2        1.0  0.08515384793281555  0.6758908629417419  0.08658690005540848  1.0000
  Zn  Zn1       1.0  0.5460402965545654  0.3886078894138336  0.2891983389854431  1.0000
