data_image0
_chemical_formula_structural       BBi3Rh2Sr6
_chemical_formula_sum              "B1 Bi3 Rh2 Sr6"
_cell_length_a       5.7713028707917555
_cell_length_b       6.7049586242946955
_cell_length_c       10.456171035766602
_cell_angle_alpha    84.67600651802101
_cell_angle_beta     72.84284317707659
_cell_angle_gamma    66.12385231282607

_space_group_name_H-M_alt    "P 1"
_space_group_IT_number       1

loop_
  _space_group_symop_operation_xyz
  'x, y, z'

loop_
  _atom_site_type_symbol
  _atom_site_label
  _atom_site_symmetry_multiplicity
  _atom_site_fract_x
  _atom_site_fract_y
  _atom_site_fract_z
  _atom_site_occupancy
  B   B1        1.0  0.2144569754600525  0.19358202815055847  0.03445794060826301  1.0000
  Bi  Bi1       1.0  0.6034217476844788  0.09253021329641342  0.43700650334358215  1.0000
  Bi  Bi2       1.0  0.13562211394309998  0.08383229374885559  0.18726825714111328  1.0000
  Bi  Bi3       1.0  0.69020676612854  0.7088810205459595  0.6453326940536499  1.0000
  Rh  Rh1       1.0  0.030219919979572376  0.9980890154838561  0.8216632604598999  1.0000
  Rh  Rh2       1.0  0.1763206124305725  0.6023828983306885  0.14493675529956818  1.0000
  Sr  Sr1       1.0  0.07984241843223572  0.6937822103500366  0.5130590200424194  1.0000
  Sr  Sr2       1.0  0.5361717939376832  0.9793246388435363  0.31019267439842224  1.0000
  Sr  Sr3       1.0  0.05856521427631382  0.48382684588432306  0.8146468997001648  1.0000
  Sr  Sr4       1.0  0.5582608580589294  0.07781247049570084  0.30499067902565  1.0000
  Sr  Sr5       1.0  0.5898614525794983  0.690859317779541  0.13368707895278928  1.0000
  Sr  Sr6       1.0  0.6007080674171448  0.340747594833374  0.4679599702358246  1.0000
