data_image0
_chemical_formula_structural       BBi2BrRh2SbSr5
_chemical_formula_sum              "B1 Bi2 Br1 Rh2 Sb1 Sr5"
_cell_length_a       6.2894358091077605
_cell_length_b       6.300463193998847
_cell_length_c       9.005979537963867
_cell_angle_alpha    79.51984300500908
_cell_angle_beta     68.63143024865039
_cell_angle_gamma    60.645564584626165

_space_group_name_H-M_alt    "P 1"
_space_group_IT_number       1

loop_
  _space_group_symop_operation_xyz
  'x, y, z'

loop_
  _atom_site_type_symbol
  _atom_site_label
  _atom_site_symmetry_multiplicity
  _atom_site_fract_x
  _atom_site_fract_y
  _atom_site_fract_z
  _atom_site_occupancy
  B   B1        1.0  0.04568532854318619  0.602656900882721  0.07220903784036638  1.0000
  Bi  Bi1       1.0  0.4341737926006317  0.19450432062149048  0.9028617739677429  1.0000
  Bi  Bi2       1.0  0.43097633123397827  0.039992399513721466  0.13491573929786682  1.0000
  Br  Br1       1.0  0.9181585311889648  0.45090678334236145  0.4318962097167969  1.0000
  Rh  Rh1       1.0  0.23383581638336182  0.43076178431510925  0.4194336235523224  1.0000
  Rh  Rh2       1.0  0.9326975345611572  0.9084469079971313  0.7584262490272522  1.0000
  Sb  Sb1       1.0  0.6654307842254639  0.6667925119400024  0.032246921211481094  1.0000
  Sr  Sr1       1.0  0.42605695128440857  0.5186212062835693  0.8220453262329102  1.0000
  Sr  Sr2       1.0  0.023541828617453575  0.07410901039838791  0.7965697646141052  1.0000
  Sr  Sr3       1.0  0.8972845673561096  0.9881711006164551  0.03421386331319809  1.0000
  Sr  Sr4       1.0  0.5139359831809998  0.04817588999867439  0.5261854529380798  1.0000
  Sr  Sr5       1.0  0.4686306118965149  0.4249859154224396  0.024667449295520782  1.0000
