data_image0
_chemical_formula_structural       BaBi2Rh3Sr6
_chemical_formula_sum              "Ba1 Bi2 Rh3 Sr6"
_cell_length_a       5.352864289021101
_cell_length_b       5.793388497022956
_cell_length_c       17.110492706298828
_cell_angle_alpha    98.61317630505303
_cell_angle_beta     88.58152073039383
_cell_angle_gamma    89.84305670574206

_space_group_name_H-M_alt    "P 1"
_space_group_IT_number       1

loop_
  _space_group_symop_operation_xyz
  'x, y, z'

loop_
  _atom_site_type_symbol
  _atom_site_label
  _atom_site_symmetry_multiplicity
  _atom_site_fract_x
  _atom_site_fract_y
  _atom_site_fract_z
  _atom_site_occupancy
  Ba  Ba1       1.0  0.1416322886943817  0.779906153678894  0.6472362875938416  1.0000
  Bi  Bi1       1.0  0.15034422278404236  0.9298868775367736  0.49440041184425354  1.0000
  Bi  Bi2       1.0  0.6445248126983643  0.7640197277069092  0.9137961864471436  1.0000
  Rh  Rh1       1.0  0.13915202021598816  0.7952514290809631  0.7316431999206543  1.0000
  Rh  Rh2       1.0  0.13911284506320953  0.27849081158638  0.8880783319473267  1.0000
  Rh  Rh3       1.0  0.6535007357597351  0.5392214059829712  0.5007911324501038  1.0000
  Sr  Sr1       1.0  0.6419616937637329  0.7778975963592529  0.001966024748980999  1.0000
  Sr  Sr2       1.0  0.6371628046035767  0.272591769695282  0.3902037441730499  1.0000
  Sr  Sr3       1.0  0.13447503745555878  0.26673424243927  0.3329465389251709  1.0000
  Sr  Sr4       1.0  0.14172790944576263  0.7735773921012878  0.8847444653511047  1.0000
  Sr  Sr5       1.0  0.13860277831554413  0.28062334656715393  0.2649092972278595  1.0000
  Sr  Sr6       1.0  0.6428942680358887  0.9178433418273925  0.7263062000274658  1.0000
