data_image0
_chemical_formula_structural       BBiRh3SbSr6
_chemical_formula_sum              "B1 Bi1 Rh3 Sb1 Sr6"
_cell_length_a       5.011842450130054
_cell_length_b       6.586270573667211
_cell_length_c       10.598257064819336
_cell_angle_alpha    107.02962428771991
_cell_angle_beta     88.40087978747395
_cell_angle_gamma    88.70872403333577

_space_group_name_H-M_alt    "P 1"
_space_group_IT_number       1

loop_
  _space_group_symop_operation_xyz
  'x, y, z'

loop_
  _atom_site_type_symbol
  _atom_site_label
  _atom_site_symmetry_multiplicity
  _atom_site_fract_x
  _atom_site_fract_y
  _atom_site_fract_z
  _atom_site_occupancy
  B   B1        1.0  0.12608079612255096  0.37943020462989807  0.4464179575443268  1.0000
  Bi  Bi1       1.0  0.62347012758255  0.8455400466918945  0.11118756979703903  1.0000
  Rh  Rh1       1.0  0.12408919632434844  0.4638307988643646  0.5749233961105347  1.0000
  Rh  Rh2       1.0  0.6256299614906311  0.7480767965316772  0.6168144941329956  1.0000
  Rh  Rh3       1.0  0.1214732378721237  0.38664573431015015  0.5241864919662476  1.0000
  Sb  Sb1       1.0  0.1257941871881485  0.8656250834465027  0.750741183757782  1.0000
  Sr  Sr1       1.0  0.6275225877761841  0.9821251630783081  0.4776705205440521  1.0000
  Sr  Sr2       1.0  0.6254993081092834  0.7340349555015564  0.7548509240150452  1.0000
  Sr  Sr3       1.0  0.6211220026016235  0.7490973472595215  0.8708873987197876  1.0000
  Sr  Sr4       1.0  0.12594129145145416  0.35850006341934204  0.4885196089744568  1.0000
  Sr  Sr5       1.0  0.12657268345355988  0.3755479156970978  0.12049908936023712  1.0000
  Sr  Sr6       1.0  0.6268225908279419  0.3673911392688751  0.7699659466743469  1.0000
