data_image0
_chemical_formula_structural       AuBi2Rh3Sr6
_chemical_formula_sum              "Au1 Bi2 Rh3 Sr6"
_cell_length_a       5.210992884609462
_cell_length_b       5.162095143755751
_cell_length_c       13.277459144592285
_cell_angle_alpha    86.28331816398607
_cell_angle_beta     76.46850624107182
_cell_angle_gamma    59.18609515085712

_space_group_name_H-M_alt    "P 1"
_space_group_IT_number       1

loop_
  _space_group_symop_operation_xyz
  'x, y, z'

loop_
  _atom_site_type_symbol
  _atom_site_label
  _atom_site_symmetry_multiplicity
  _atom_site_fract_x
  _atom_site_fract_y
  _atom_site_fract_z
  _atom_site_occupancy
  Au  Au1       1.0  0.9128764271736144  0.4331299364566803  0.3311673998832702  1.0000
  Bi  Bi1       1.0  0.4536327421665191  0.40044713020324707  0.6889322400093078  1.0000
  Bi  Bi2       1.0  0.47568136453628534  0.8867522478103638  0.5354180335998535  1.0000
  Rh  Rh1       1.0  0.8556904196739196  0.5897349715232849  0.1079404056072235  1.0000
  Rh  Rh2       1.0  0.08403573930263519  0.7314295768737793  0.7248127460479735  1.0000
  Rh  Rh3       1.0  0.6291642785072327  0.9270183444023132  0.05434979870915412  1.0000
  Sr  Sr1       1.0  0.9562748074531554  0.07150435447692871  0.48017010092735285  1.0000
  Sr  Sr2       1.0  0.4684228301048278  0.4321340024471283  0.7037726640701293  1.0000
  Sr  Sr3       1.0  0.9775782227516173  0.5743935108184814  0.5510115623474121  1.0000
  Sr  Sr4       1.0  0.4421508908271789  0.9288594126701355  0.18815198540687558  1.0000
  Sr  Sr5       1.0  0.46476286649703974  0.07488705217838287  0.19386994838714597  1.0000
  Sr  Sr6       1.0  0.9648073911666869  0.09890647977590561  0.7630674839019774  1.0000
