data_image0
_chemical_formula_structural       BBi3FRh2Sr5
_chemical_formula_sum              "B1 Bi3 F1 Rh2 Sr5"
_cell_length_a       5.742931488220685
_cell_length_b       6.232710841200951
_cell_length_c       10.137215614318848
_cell_angle_alpha    77.07404147657529
_cell_angle_beta     73.01140236473192
_cell_angle_gamma    62.846368367280085

_space_group_name_H-M_alt    "P 1"
_space_group_IT_number       1

loop_
  _space_group_symop_operation_xyz
  'x, y, z'

loop_
  _atom_site_type_symbol
  _atom_site_label
  _atom_site_symmetry_multiplicity
  _atom_site_fract_x
  _atom_site_fract_y
  _atom_site_fract_z
  _atom_site_occupancy
  B   B1        1.0  0.6651476621627808  0.9594219326972961  0.9827580451965332  1.0000
  Bi  Bi1       1.0  0.5204566717147827  0.5688016414642334  0.358290433883667  1.0000
  Bi  Bi2       1.0  0.04846525192260742  0.17666570842266083  0.30608683824539185  1.0000
  Bi  Bi3       1.0  0.02480539306998253  0.41942861676216125  0.9473918676376343  1.0000
  F   F1        1.0  0.5500795841217041  0.7299441695213318  0.13804996013641357  1.0000
  Rh  Rh1       1.0  0.8742305040359498  0.9212886691093445  0.17796742916107178  1.0000
  Rh  Rh2       1.0  0.4952427446842194  0.5424081683158875  0.6724281311035156  1.0000
  Sr  Sr1       1.0  0.06000876426696778  0.7277622222900391  0.8097650408744812  1.0000
  Sr  Sr2       1.0  0.5571977496147156  0.7379271388053894  0.8518429398536682  1.0000
  Sr  Sr3       1.0  0.6069991588592529  0.2388155609369278  0.9445543885231018  1.0000
  Sr  Sr4       1.0  0.054566696286201484  0.25157853960990906  0.5901033878326416  1.0000
  Sr  Sr5       1.0  0.598349928855896  0.24758295714855194  0.12872201204299927  1.0000
