data_image0
_chemical_formula_structural       I2PSbVZn
_chemical_formula_sum              "I2 P1 Sb1 V1 Zn1"
_cell_length_a       4.274928061329915
_cell_length_b       4.002581316695289
_cell_length_c       7.17992639541626
_cell_angle_alpha    90.92802813545352
_cell_angle_beta     90.78895860921054
_cell_angle_gamma    98.55661822676942

_space_group_name_H-M_alt    "P 1"
_space_group_IT_number       1

loop_
  _space_group_symop_operation_xyz
  'x, y, z'

loop_
  _atom_site_type_symbol
  _atom_site_label
  _atom_site_symmetry_multiplicity
  _atom_site_fract_x
  _atom_site_fract_y
  _atom_site_fract_z
  _atom_site_occupancy
  I   I1        1.0  0.9546769857406616  0.24542285501956942  0.8229144811630249  1.0000
  I   I2        1.0  0.4315975606441498  0.10118438303470612  0.7233923077583313  1.0000
  P   P1        1.0  0.9084764719009399  0.14711950719356537  0.4375056028366089  1.0000
  Sb  Sb1       1.0  0.44194453954696655  0.5787515044212341  0.985511302947998  1.0000
  V   V1        1.0  0.45023661851882935  0.04027046263217926  0.04330611974000931  1.0000
  Zn  Zn1       1.0  0.45821309089660645  0.8281128406524658  0.5418636202812195  1.0000
