data_image0
_chemical_formula_structural       F2KNPbScTeW
_chemical_formula_sum              "F2 K1 N1 Pb1 Sc1 Te1 W1"
_cell_length_a       5.939865181545874
_cell_length_b       5.9159980302668975
_cell_length_c       6.947246074676514
_cell_angle_alpha    64.75635919426998
_cell_angle_beta     64.74479260027248
_cell_angle_gamma    59.80352361588716

_space_group_name_H-M_alt    "P 1"
_space_group_IT_number       1

loop_
  _space_group_symop_operation_xyz
  'x, y, z'

loop_
  _atom_site_type_symbol
  _atom_site_label
  _atom_site_symmetry_multiplicity
  _atom_site_fract_x
  _atom_site_fract_y
  _atom_site_fract_z
  _atom_site_occupancy
  F   F1        1.0  0.430655837059021  0.5041970014572144  0.387875497341156  1.0000
  F   F2        1.0  0.7995525002479553  0.3367089331150055  0.8587149977684021  1.0000
  K   K1        1.0  0.788536548614502  0.8305692672729492  0.38402521610260004  1.0000
  N   N1        1.0  0.29236361384391785  0.8279207944869995  0.8620585203170776  1.0000
  Pb  Pb1       1.0  0.3177744150161743  0.35268285870552063  0.7900555729866028  1.0000
  Sc  Sc1       1.0  0.5504268407821655  0.6006612777709961  0.05571494251489638  1.0000
  Te  Te1       1.0  0.15399287641048431  0.19106930494308472  0.2750608026981353  1.0000
  W   W1        1.0  0.004050850868225098  0.00794618483632803  0.7354413270950318  1.0000
