data_image0
_chemical_formula_structural       In3K3Ti2
_chemical_formula_sum              "In3 K3 Ti2"
_cell_length_a       4.692729663564425
_cell_length_b       7.317355454590429
_cell_length_c       7.80592155456543
_cell_angle_alpha    106.05644700285448
_cell_angle_beta     90.0163235953456
_cell_angle_gamma    90.09173337401643

_space_group_name_H-M_alt    "P 1"
_space_group_IT_number       1

loop_
  _space_group_symop_operation_xyz
  'x, y, z'

loop_
  _atom_site_type_symbol
  _atom_site_label
  _atom_site_symmetry_multiplicity
  _atom_site_fract_x
  _atom_site_fract_y
  _atom_site_fract_z
  _atom_site_occupancy
  In  In1       1.0  0.6187483668327332  0.9430923461914062  0.6925534009933472  1.0000
  In  In2       1.0  0.11687242984771729  0.04102712497115135  0.2581174075603485  1.0000
  In  In3       1.0  0.11608568578958511  0.7491788268089294  0.49657151103019714  1.0000
  K   K1        1.0  0.6159551739692688  0.6447098851203918  0.135062113404274  1.0000
  K   K2        1.0  0.11667659878730774  0.33832332491874695  0.865926206111908  1.0000
  K   K3        1.0  0.6179797649383545  0.379438191652298  0.5036815404891968  1.0000
  Ti  Ti1       1.0  0.11332285404205322  0.8830308318138123  0.8870899677276611  1.0000
  Ti  Ti2       1.0  0.6108108162879944  0.08308194577693939  0.057264674454927444  1.0000
