data_image0
_chemical_formula_structural       BaFeI3LiNPtS2
_chemical_formula_sum              "Ba1 Fe1 I3 Li1 N1 Pt1 S2"
_cell_length_a       6.496994180627106
_cell_length_b       6.612426998001466
_cell_length_c       8.00408935546875
_cell_angle_alpha    89.60641456114784
_cell_angle_beta     90.49784357554401
_cell_angle_gamma    91.65412999275861

_space_group_name_H-M_alt    "P 1"
_space_group_IT_number       1

loop_
  _space_group_symop_operation_xyz
  'x, y, z'

loop_
  _atom_site_type_symbol
  _atom_site_label
  _atom_site_symmetry_multiplicity
  _atom_site_fract_x
  _atom_site_fract_y
  _atom_site_fract_z
  _atom_site_occupancy
  Ba  Ba1       1.0  0.5680755376815796  0.9222365617752076  0.253142774105072  1.0000
  Fe  Fe1       1.0  0.22085383534431458  0.014860444702208044  0.528944730758667  1.0000
  I   I1        1.0  0.7202907204627991  0.5077547430992126  0.5074393153190613  1.0000
  I   I2        1.0  0.18343676626682281  0.7734191417694093  0.3820340633392334  1.0000
  I   I3        1.0  0.6150593161582947  0.2769411504268646  0.8047001957893372  1.0000
  Li  Li1       1.0  0.7198387980461121  0.9185065627098085  0.29017165303230286  1.0000
  N   N1        1.0  0.2177918553352356  0.395770937204361  0.05684071406722069  1.0000
  Pt  Pt1       1.0  0.6072065234184265  0.538285493850708  0.4587019979953766  1.0000
  S   S1        1.0  0.08356891572475433  0.2731633186340332  0.2612523138523102  1.0000
  S   S2        1.0  0.5529918670654297  0.7262068986892701  0.42262861132621765  1.0000
