data_image0
_chemical_formula_structural       I2PPt2S2Sr3
_chemical_formula_sum              "I2 P1 Pt2 S2 Sr3"
_cell_length_a       5.1338920292692505
_cell_length_b       5.546502154346502
_cell_length_c       8.803004264831543
_cell_angle_alpha    84.5502414143794
_cell_angle_beta     80.00960229860253
_cell_angle_gamma    74.42722321394494

_space_group_name_H-M_alt    "P 1"
_space_group_IT_number       1

loop_
  _space_group_symop_operation_xyz
  'x, y, z'

loop_
  _atom_site_type_symbol
  _atom_site_label
  _atom_site_symmetry_multiplicity
  _atom_site_fract_x
  _atom_site_fract_y
  _atom_site_fract_z
  _atom_site_occupancy
  I   I1        1.0  0.051906481385231004  0.23707713186740878  0.020273005589842796  1.0000
  I   I2        1.0  0.029140658676624298  0.18914932012557983  0.3068059980869293  1.0000
  P   P1        1.0  0.307921439409256  0.15735188126564026  0.9627699851989746  1.0000
  Pt  Pt1       1.0  0.555170476436615  0.7348989844322205  0.5478425025939941  1.0000
  Pt  Pt2       1.0  0.5508009195327759  0.2152950316667557  0.3878335952758789  1.0000
  S   S1        1.0  0.05332750827074047  0.9927943348884584  0.8678137063980103  1.0000
  S   S2        1.0  0.5504298806190491  0.575459361076355  0.7675879001617432  1.0000
  Sr  Sr1       1.0  0.5536784529685974  0.26124241948127747  0.13660499453544617  1.0000
  Sr  Sr2       1.0  0.5564823150634766  0.1834363043308258  0.033183202147483826  1.0000
  Sr  Sr3       1.0  0.047596290707588196  0.09494619071483612  0.580074667930603  1.0000
