data_image0
_chemical_formula_structural       FI3LiSSr2TbZn
_chemical_formula_sum              "F1 I3 Li1 S1 Sr2 Tb1 Zn1"
_cell_length_a       7.096641004262837
_cell_length_b       7.003166046648754
_cell_length_c       7.5349440574646
_cell_angle_alpha    111.03501626606813
_cell_angle_beta     104.20968172965812
_cell_angle_gamma    97.07604526292711

_space_group_name_H-M_alt    "P 1"
_space_group_IT_number       1

loop_
  _space_group_symop_operation_xyz
  'x, y, z'

loop_
  _atom_site_type_symbol
  _atom_site_label
  _atom_site_symmetry_multiplicity
  _atom_site_fract_x
  _atom_site_fract_y
  _atom_site_fract_z
  _atom_site_occupancy
  F   F1        1.0  0.6695835590362548  0.2846827208995819  0.2023724317550659  1.0000
  I   I1        1.0  0.1824487894773483  0.2681255638599396  0.5139036178588867  1.0000
  I   I2        1.0  0.18334026634693143  0.8378019332885742  0.7659934759140014  1.0000
  I   I3        1.0  0.18211975693702695  0.9588571190834045  0.538628339767456  1.0000
  Li  Li1       1.0  0.19107513129711148  0.6034430861473083  0.06306626647710803  1.0000
  S   S1        1.0  0.20305317640304563  0.8777096271514893  0.741652488708496  1.0000
  Sr  Sr1       1.0  0.6825005412101744  0.5105588436126709  0.514271080493927  1.0000
  Sr  Sr2       1.0  0.6868963241577147  0.24944931268692017  0.16548112034797668  1.0000
  Tb  Tb1       1.0  0.6940359473228453  0.6025317311286926  0.6845120191574097  1.0000
  Zn  Zn1       1.0  0.6786493062973021  0.2780850827693939  0.9106647968292235  1.0000
