data_image0
_chemical_formula_structural       CaGeI2Li2S2Sr2
_chemical_formula_sum              "Ca1 Ge1 I2 Li2 S2 Sr2"
_cell_length_a       6.248714436226139
_cell_length_b       6.959591389463626
_cell_length_c       7.980839729309082
_cell_angle_alpha    109.52579168363818
_cell_angle_beta     90.17478808165157
_cell_angle_gamma    92.24911362837186

_space_group_name_H-M_alt    "P 1"
_space_group_IT_number       1

loop_
  _space_group_symop_operation_xyz
  'x, y, z'

loop_
  _atom_site_type_symbol
  _atom_site_label
  _atom_site_symmetry_multiplicity
  _atom_site_fract_x
  _atom_site_fract_y
  _atom_site_fract_z
  _atom_site_occupancy
  Ca  Ca1       1.0  0.7029672265052795  0.7173483967781067  0.7741016149520874  1.0000
  Ge  Ge1       1.0  0.20228590071201324  0.9133135676383972  0.9003419876098634  1.0000
  I   I1        1.0  0.7037379741668701  0.7251064777374268  0.955689013004303  1.0000
  I   I2        1.0  0.6904632449150085  0.6385250687599182  0.13713034987449646  1.0000
  Li  Li1       1.0  0.6933529376983643  0.45664918422698975  0.20909009873867035  1.0000
  Li  Li2       1.0  0.18388932943344116  0.5030438899993896  0.3533300757408142  1.0000
  S   S1        1.0  0.7065941691398621  0.8157568573951721  0.4038238525390625  1.0000
  S   S2        1.0  0.189690500497818  0.08928415179252625  0.22727316617965698  1.0000
  Sr  Sr1       1.0  0.20583151280879974  0.20104548335075378  0.6084529161453247  1.0000
  Sr  Sr2       1.0  0.6980315446853638  0.7661193609237671  0.11309532076120377  1.0000
