data_image0
_chemical_formula_structural       HfS2Sr7
_chemical_formula_sum              "Hf1 S2 Sr7"
_cell_length_a       5.141898447826831
_cell_length_b       5.601056114914218
_cell_length_c       8.963311195373535
_cell_angle_alpha    81.42332087490352
_cell_angle_beta     73.53015217352454
_cell_angle_gamma    66.47223595525548

_space_group_name_H-M_alt    "P 1"
_space_group_IT_number       1

loop_
  _space_group_symop_operation_xyz
  'x, y, z'

loop_
  _atom_site_type_symbol
  _atom_site_label
  _atom_site_symmetry_multiplicity
  _atom_site_fract_x
  _atom_site_fract_y
  _atom_site_fract_z
  _atom_site_occupancy
  Hf  Hf1       1.0  0.9827212691307068  0.11514952033758163  0.8208301663398743  1.0000
  S   S1        1.0  0.4716759920120239  0.81009441614151  0.7354429960250854  1.0000
  S   S2        1.0  0.9663813710212708  0.8735255599021912  0.5247249603271484  1.0000
  Sr  Sr1       1.0  0.4854651093482971  0.6434069275856018  0.6082693934440613  1.0000
  Sr  Sr2       1.0  0.9879580140113831  0.2364167869091034  0.5915692448616028  1.0000
  Sr  Sr3       1.0  0.9862426519393921  0.08809082955121994  0.16198965907096863  1.0000
  Sr  Sr4       1.0  0.9843643307685852  0.6788732409477234  0.23701545596122742  1.0000
  Sr  Sr5       1.0  0.4739532470703125  0.7735357880592346  0.4565638601779938  1.0000
  Sr  Sr6       1.0  0.4850600063800812  0.8221383690834045  0.5837430357933044  1.0000
  Sr  Sr7       1.0  0.4864538311958313  0.14418378472328186  0.6805939674377441  1.0000
