data_image0
_chemical_formula_structural       HfMoS3Sr5
_chemical_formula_sum              "Hf1 Mo1 S3 Sr5"
_cell_length_a       5.6913406603742525
_cell_length_b       5.971891043182743
_cell_length_c       7.105620384216309
_cell_angle_alpha    74.91075560795305
_cell_angle_beta     70.71681538352993
_cell_angle_gamma    62.390216528537046

_space_group_name_H-M_alt    "P 1"
_space_group_IT_number       1

loop_
  _space_group_symop_operation_xyz
  'x, y, z'

loop_
  _atom_site_type_symbol
  _atom_site_label
  _atom_site_symmetry_multiplicity
  _atom_site_fract_x
  _atom_site_fract_y
  _atom_site_fract_z
  _atom_site_occupancy
  Hf  Hf1       1.0  0.6334106922149658  0.2371390908956528  0.21018122136592862  1.0000
  Mo  Mo1       1.0  0.6352736353874207  0.2711224853992462  0.5309415459632874  1.0000
  S   S1        1.0  0.1297794580459594  0.9916012287139894  0.8960024714469909  1.0000
  S   S2        1.0  0.12941516935825348  0.43144574761390686  0.6866039037704468  1.0000
  S   S3        1.0  0.6255831122398376  0.6626166105270386  0.11558485031127928  1.0000
  Sr  Sr1       1.0  0.13529540598392487  0.28424686193466187  0.6827378273010254  1.0000
  Sr  Sr2       1.0  0.629797637462616  0.03490592911839485  0.4397495090961456  1.0000
  Sr  Sr3       1.0  0.12967833876609802  0.01645389012992382  0.026296684518456456  1.0000
  Sr  Sr4       1.0  0.1300058215856552  0.5426651835441589  0.6781644225120544  1.0000
  Sr  Sr5       1.0  0.5288317799568175  0.9492865800857545  0.3230530023574828  1.0000
