data_image0
_chemical_formula_structural       NaO3Si6
_chemical_formula_sum              "Na1 O3 Si6"
_cell_length_a       4.747315344699654
_cell_length_b       5.550880370031043
_cell_length_c       5.74655818939209
_cell_angle_alpha    68.24777384192576
_cell_angle_beta     62.6607686859665
_cell_angle_gamma    68.5431455175892

_space_group_name_H-M_alt    "P 1"
_space_group_IT_number       1

loop_
  _space_group_symop_operation_xyz
  'x, y, z'

loop_
  _atom_site_type_symbol
  _atom_site_label
  _atom_site_symmetry_multiplicity
  _atom_site_fract_x
  _atom_site_fract_y
  _atom_site_fract_z
  _atom_site_occupancy
  Na  Na1       1.0  0.7322570085525513  0.2257910817861557  0.8195290565490723  1.0000
  O   O1        1.0  0.37392663955688477  0.34409382939338684  0.17236526310443878  1.0000
  O   O2        1.0  0.11366406083106995  0.3520369231700897  0.655738115310669  1.0000
  O   O3        1.0  0.8989088535308838  0.849365770816803  0.08827235549688339  1.0000
  Si  Si1       1.0  0.6398977637290955  0.3064333200454712  0.6353552341461182  1.0000
  Si  Si2       1.0  0.8139479756355286  0.44672346115112305  0.5320807695388794  1.0000
  Si  Si3       1.0  0.8681524395942688  0.7605432868003845  0.012086880393326283  1.0000
  Si  Si4       1.0  0.0019971346482634544  0.8741971850395203  0.3196525573730469  1.0000
  Si  Si5       1.0  0.21906813979148865  0.7589012980461121  0.8009838461875916  1.0000
  Si  Si6       1.0  0.7440036535263062  0.7314471006393433  0.35190218687057495  1.0000
