data_image0
_chemical_formula_structural       NaO3Si6
_chemical_formula_sum              "Na1 O3 Si6"
_cell_length_a       5.051812459206567
_cell_length_b       4.951599136329123
_cell_length_c       5.90714693069458
_cell_angle_alpha    72.82674381966824
_cell_angle_beta     65.3626766805773
_cell_angle_gamma    64.76196110674981

_space_group_name_H-M_alt    "P 1"
_space_group_IT_number       1

loop_
  _space_group_symop_operation_xyz
  'x, y, z'

loop_
  _atom_site_type_symbol
  _atom_site_label
  _atom_site_symmetry_multiplicity
  _atom_site_fract_x
  _atom_site_fract_y
  _atom_site_fract_z
  _atom_site_occupancy
  Na  Na1       1.0  0.9390931725502014  0.738154947757721  0.9744088053703308  1.0000
  O   O1        1.0  0.06771863251924515  0.40260598063468933  0.0789714902639389  1.0000
  O   O2        1.0  0.2605718672275543  0.1286817044019699  0.18620456755161285  1.0000
  O   O3        1.0  0.6182500720024109  0.7633147835731506  0.9092890620231628  1.0000
  Si  Si1       1.0  0.8090212941169739  0.47465142607688904  0.2686012089252472  1.0000
  Si  Si2       1.0  0.5946596264839172  0.06027238816022873  0.9561657905578613  1.0000
  Si  Si3       1.0  0.8110803961753845  0.588772177696228  0.42003339529037476  1.0000
  Si  Si4       1.0  0.21066714823246002  0.8751094341278076  0.2974514663219452  1.0000
  Si  Si5       1.0  0.27092185616493225  0.4493741989135742  0.9851253032684326  1.0000
  Si  Si6       1.0  0.46101680397987366  0.2557503581047058  0.5166692137718201  1.0000
