data_image0
_chemical_formula_structural       NaO2Si7
_chemical_formula_sum              "Na1 O2 Si7"
_cell_length_a       4.323867709179664
_cell_length_b       6.146201657979074
_cell_length_c       6.107232570648193
_cell_angle_alpha    117.58723470516759
_cell_angle_beta     94.39758928918876
_cell_angle_gamma    87.9730464842452

_space_group_name_H-M_alt    "P 1"
_space_group_IT_number       1

loop_
  _space_group_symop_operation_xyz
  'x, y, z'

loop_
  _atom_site_type_symbol
  _atom_site_label
  _atom_site_symmetry_multiplicity
  _atom_site_fract_x
  _atom_site_fract_y
  _atom_site_fract_z
  _atom_site_occupancy
  Na  Na1       1.0  0.6601306200027466  0.12384446710348129  0.9452440738677979  1.0000
  O   O1        1.0  0.6537671685218811  0.3875519335269928  0.8180115222930908  1.0000
  O   O2        1.0  0.14976844191551208  0.5729479193687439  0.7642900943756104  1.0000
  Si  Si1       1.0  0.16160078346729279  0.8296868801116943  0.9733499884605408  1.0000
  Si  Si2       1.0  0.15982569754123688  0.43041181564331055  0.6389933824539185  1.0000
  Si  Si3       1.0  0.6621522307395935  0.6383786201477051  0.07594621926546097  1.0000
  Si  Si4       1.0  0.6481043100357056  0.4056166410446167  0.18999634683132172  1.0000
  Si  Si5       1.0  0.6652526259422302  0.9583736658096313  0.9096337556838989  1.0000
  Si  Si6       1.0  0.15559744834899902  0.6147974133491516  0.5405687093734741  1.0000
  Si  Si7       1.0  0.153703510761261  0.10279521346092224  0.2739604711532593  1.0000
