data_image0
_chemical_formula_structural       NaO2OsSi6
_chemical_formula_sum              "Na1 O2 Os1 Si6"
_cell_length_a       5.114373858579676
_cell_length_b       5.6744320476304155
_cell_length_c       6.072268962860107
_cell_angle_alpha    119.86964310737554
_cell_angle_beta     107.7283090332157
_cell_angle_gamma    87.10346450075714

_space_group_name_H-M_alt    "P 1"
_space_group_IT_number       1

loop_
  _space_group_symop_operation_xyz
  'x, y, z'

loop_
  _atom_site_type_symbol
  _atom_site_label
  _atom_site_symmetry_multiplicity
  _atom_site_fract_x
  _atom_site_fract_y
  _atom_site_fract_z
  _atom_site_occupancy
  Na  Na1       1.0  0.06414420902729034  0.34712252020835876  0.4002932608127594  1.0000
  O   O1        1.0  0.32672157883644104  0.5124205946922302  0.8916435241699219  1.0000
  O   O2        1.0  0.8400948643684387  0.6949207782745361  0.8785381317138672  1.0000
  Os  Os1       1.0  0.31515422463417053  0.5910750031471252  0.9137770533561707  1.0000
  Si  Si1       1.0  0.29874083399772644  0.8272593021392822  0.39960432052612305  1.0000
  Si  Si2       1.0  0.8144850730895996  0.18970151245594025  0.901803731918335  1.0000
  Si  Si3       1.0  0.31252536177635193  0.06490521132946014  0.8611171841621399  1.0000
  Si  Si4       1.0  0.5608515739440918  0.8416284322738647  0.07518620789051056  1.0000
  Si  Si5       1.0  0.5734269022941589  0.5612366199493408  0.41365352272987366  1.0000
  Si  Si6       1.0  0.7898627519607544  0.21830774843692777  0.3683053255081177  1.0000
