data_image0
_chemical_formula_structural       NaO2Si7
_chemical_formula_sum              "Na1 O2 Si7"
_cell_length_a       5.090927254139337
_cell_length_b       4.922553585238335
_cell_length_c       6.023859024047852
_cell_angle_alpha    83.96334864022813
_cell_angle_beta     77.7019767910166
_cell_angle_gamma    74.77609171004029

_space_group_name_H-M_alt    "P 1"
_space_group_IT_number       1

loop_
  _space_group_symop_operation_xyz
  'x, y, z'

loop_
  _atom_site_type_symbol
  _atom_site_label
  _atom_site_symmetry_multiplicity
  _atom_site_fract_x
  _atom_site_fract_y
  _atom_site_fract_z
  _atom_site_occupancy
  Na  Na1       1.0  0.60519939661026  0.5654734373092651  0.4744750559329987  1.0000
  O   O1        1.0  0.43457791209220886  0.11043427139520645  0.2034663110971451  1.0000
  O   O2        1.0  0.6979532241821289  0.3198808431625366  0.7290502190589906  1.0000
  Si  Si1       1.0  0.12144172936677933  0.9525530934333801  0.19518844783306125  1.0000
  Si  Si2       1.0  0.4327508211135864  0.2800140380859375  0.7324708104133607  1.0000
  Si  Si3       1.0  0.7306700348854065  0.7935917973518372  0.8960788846015931  1.0000
  Si  Si4       1.0  0.2338213175535202  0.7935029864311218  0.3202592730522156  1.0000
  Si  Si5       1.0  0.9349246025085449  0.6080286502838135  0.22135099768638614  1.0000
  Si  Si6       1.0  0.7811590433120728  0.9293369054794312  0.7107638120651246  1.0000
  Si  Si7       1.0  0.9444791674613953  0.23251453042030334  0.7129398584365846  1.0000
