data_image0
_chemical_formula_structural       NaO2Si7
_chemical_formula_sum              "Na1 O2 Si7"
_cell_length_a       5.667837617448582
_cell_length_b       5.511537836630724
_cell_length_c       6.045539379119873
_cell_angle_alpha    104.97473152116821
_cell_angle_beta     102.04040026314735
_cell_angle_gamma    116.6642529418923

_space_group_name_H-M_alt    "P 1"
_space_group_IT_number       1

loop_
  _space_group_symop_operation_xyz
  'x, y, z'

loop_
  _atom_site_type_symbol
  _atom_site_label
  _atom_site_symmetry_multiplicity
  _atom_site_fract_x
  _atom_site_fract_y
  _atom_site_fract_z
  _atom_site_occupancy
  Na  Na1       1.0  0.4489858150482178  0.8395252823829651  0.9178827404975891  1.0000
  O   O1        1.0  0.20543700456619263  0.24896582961082458  0.18686285614967346  1.0000
  O   O2        1.0  0.6377708315849304  0.2222161740064621  0.12660950422286987  1.0000
  Si  Si1       1.0  0.7874489426612854  0.7833653688430786  0.1432756632566452  1.0000
  Si  Si2       1.0  0.703728437423706  0.27581119537353516  0.3935866057872772  1.0000
  Si  Si3       1.0  0.18030273914337158  0.6148889064788818  0.409402459859848  1.0000
  Si  Si4       1.0  0.9770298600196838  0.41156408190727234  0.9148226380348206  1.0000
  Si  Si5       1.0  0.11896418035030365  0.15277673304080963  0.6965221762657166  1.0000
  Si  Si6       1.0  0.49512219429016113  0.43404296040534973  0.4286729693412781  1.0000
  Si  Si7       1.0  0.6992809176445007  0.812126100063324  0.4410840570926666  1.0000
