data_image0
_chemical_formula_structural       FFeGeIO2Sr2VZr
_chemical_formula_sum              "F1 Fe1 Ge1 I1 O2 Sr2 V1 Zr1"
_cell_length_a       5.8355127566647145
_cell_length_b       5.657459729542687
_cell_length_c       5.920444965362549
_cell_angle_alpha    56.870855734745305
_cell_angle_beta     63.69312603091899
_cell_angle_gamma    60.349322106826186

_space_group_name_H-M_alt    "P 1"
_space_group_IT_number       1

loop_
  _space_group_symop_operation_xyz
  'x, y, z'

loop_
  _atom_site_type_symbol
  _atom_site_label
  _atom_site_symmetry_multiplicity
  _atom_site_fract_x
  _atom_site_fract_y
  _atom_site_fract_z
  _atom_site_occupancy
  F   F1        1.0  0.21027730405330658  0.9680177569389343  0.39059028029441833  1.0000
  Fe  Fe1       1.0  0.49485790729522705  0.10117431730031967  0.9794521927833557  1.0000
  Ge  Ge1       1.0  0.4851264953613281  0.5481327772140503  0.9851740002632141  1.0000
  I   I1        1.0  0.6578713655471802  0.0012582828057929873  0.8681581616401672  1.0000
  O   O1        1.0  0.15319089591503143  0.7803915143013  0.7558028697967529  1.0000
  O   O2        1.0  0.2662390470504761  0.6301440596580505  0.23656921088695526  1.0000
  Sr  Sr1       1.0  0.2720470428466797  0.659521758556366  0.07405191659927368  1.0000
  Sr  Sr2       1.0  0.49469029903411865  0.6819115281105042  0.2709891200065613  1.0000
  V   V1        1.0  0.9866313338279724  0.683688223361969  0.6638429760932922  1.0000
  Zr  Zr1       1.0  0.9897081851959229  0.6660814881324768  0.318200021982193  1.0000
