data_image0
_chemical_formula_structural       I2O3Sr3ZnZr
_chemical_formula_sum              "I2 O3 Sr3 Zn1 Zr1"
_cell_length_a       5.816170190782433
_cell_length_b       6.044134187230985
_cell_length_c       7.081051826477051
_cell_angle_alpha    89.49310775742663
_cell_angle_beta     88.84273678371922
_cell_angle_gamma    90.9927750622681

_space_group_name_H-M_alt    "P 1"
_space_group_IT_number       1

loop_
  _space_group_symop_operation_xyz
  'x, y, z'

loop_
  _atom_site_type_symbol
  _atom_site_label
  _atom_site_symmetry_multiplicity
  _atom_site_fract_x
  _atom_site_fract_y
  _atom_site_fract_z
  _atom_site_occupancy
  I   I1        1.0  0.48700928688049316  0.007206531707197428  0.05773324891924858  1.0000
  I   I2        1.0  0.9985231161117554  0.3530668616294861  0.1963689923286438  1.0000
  O   O1        1.0  0.01995191164314747  0.8273593187332153  0.6661674380302429  1.0000
  O   O2        1.0  0.28219613432884216  0.7983507513999939  0.20108787715435028  1.0000
  O   O3        1.0  0.015523254871368408  0.1093718484044075  0.3364516496658325  1.0000
  Sr  Sr1       1.0  0.9960424900054932  0.6622135639190674  0.139184832572937  1.0000
  Sr  Sr2       1.0  0.5036138296127319  0.13930876553058624  0.22920012474060059  1.0000
  Sr  Sr3       1.0  0.48505762219429016  0.34603914618492126  0.9612821936607361  1.0000
  Zn  Zn1       1.0  0.4936237037181854  0.05701472982764244  0.8725784420967102  1.0000
  Zr  Zr1       1.0  0.0032212145160883665  0.2667696475982666  0.32042163610458374  1.0000
