data_image0
_chemical_formula_structural       O7Sr3
_chemical_formula_sum              "O7 Sr3"
_cell_length_a       5.458179033127371
_cell_length_b       5.3723159356224235
_cell_length_c       5.776279926300049
_cell_angle_alpha    116.14109791966145
_cell_angle_beta     113.51198950741373
_cell_angle_gamma    90.55426451832766

_space_group_name_H-M_alt    "P 1"
_space_group_IT_number       1

loop_
  _space_group_symop_operation_xyz
  'x, y, z'

loop_
  _atom_site_type_symbol
  _atom_site_label
  _atom_site_symmetry_multiplicity
  _atom_site_fract_x
  _atom_site_fract_y
  _atom_site_fract_z
  _atom_site_occupancy
  O   O1        1.0  0.6949610114097595  0.940024495124817  0.10752798616886146  1.0000
  O   O2        1.0  0.6907258629798889  0.6988623142242432  0.9420021772384644  1.0000
  O   O3        1.0  0.19847895205020905  0.07781706005334854  0.6552278995513916  1.0000
  O   O4        1.0  0.1908007711172104  0.7116766571998596  0.9440068006515503  1.0000
  O   O5        1.0  0.20082178711891174  0.21255004405975342  0.3969557285308838  1.0000
  O   O6        1.0  0.19451479613780975  0.817189633846283  0.5950495600700378  1.0000
  O   O7        1.0  0.19583648443222046  0.3163478374481201  0.7438229322433472  1.0000
  Sr  Sr1       1.0  0.699307918548584  0.6658972501754761  0.796137809753418  1.0000
  Sr  Sr2       1.0  0.1993878036737442  0.2561645805835724  0.7678552269935608  1.0000
  Sr  Sr3       1.0  0.6978675127029419  0.2621382176876068  0.061466291546821594  1.0000
