data_image0
_chemical_formula_structural       HILiNbO3Sr2Zr
_chemical_formula_sum              "H1 I1 Li1 Nb1 O3 Sr2 Zr1"
_cell_length_a       5.872022173405936
_cell_length_b       5.897643133620762
_cell_length_c       5.8492631912231445
_cell_angle_alpha    51.457834605952634
_cell_angle_beta     60.61996121841874
_cell_angle_gamma    62.035557354225176

_space_group_name_H-M_alt    "P 1"
_space_group_IT_number       1

loop_
  _space_group_symop_operation_xyz
  'x, y, z'

loop_
  _atom_site_type_symbol
  _atom_site_label
  _atom_site_symmetry_multiplicity
  _atom_site_fract_x
  _atom_site_fract_y
  _atom_site_fract_z
  _atom_site_occupancy
  H   H1        1.0  0.2995494306087494  0.9504916071891785  0.9885804057121278  1.0000
  I   I1        1.0  0.7870776057243347  0.17106060683727264  0.7525154352188111  1.0000
  Li  Li1       1.0  0.5616011023521423  0.38671284914016724  0.8755931854248048  1.0000
  Nb  Nb1       1.0  0.2814486622810364  0.07847855240106583  0.5415533781051636  1.0000
  O   O1        1.0  0.18754898011684418  0.32149434089660645  0.8997271656990052  1.0000
  O   O2        1.0  0.2864990830421448  0.49417760968208313  0.2535933256149292  1.0000
  O   O3        1.0  0.29725876450538635  0.18821701407432556  0.4163053929805756  1.0000
  Sr  Sr1       1.0  0.6120285391807556  0.45765143632888794  0.049577362835407264  1.0000
  Sr  Sr2       1.0  0.7559000253677368  0.43650200963020325  0.30812087655067444  1.0000
  Zr  Zr1       1.0  0.2791872024536133  0.7677425742149353  0.23332279920578006  1.0000
