data_image0
_chemical_formula_structural       BiFIO2SbSr2Zr2
_chemical_formula_sum              "Bi1 F1 I1 O2 Sb1 Sr2 Zr2"
_cell_length_a       5.753743679756964
_cell_length_b       5.868673902349287
_cell_length_c       6.017699718475342
_cell_angle_alpha    105.1275908866014
_cell_angle_beta     108.14375824227228
_cell_angle_gamma    107.49467702487838

_space_group_name_H-M_alt    "P 1"
_space_group_IT_number       1

loop_
  _space_group_symop_operation_xyz
  'x, y, z'

loop_
  _atom_site_type_symbol
  _atom_site_label
  _atom_site_symmetry_multiplicity
  _atom_site_fract_x
  _atom_site_fract_y
  _atom_site_fract_z
  _atom_site_occupancy
  Bi  Bi1       1.0  0.36990413069725037  0.94652259349823  0.7096313238143921  1.0000
  F   F1        1.0  0.8697720170021057  0.9397687315940857  0.33886396884918213  1.0000
  I   I1        1.0  0.3545912206172943  0.3469754755496979  0.542158842086792  1.0000
  O   O1        1.0  0.5139209032058716  0.6760604977607727  0.20136089622974387  1.0000
  O   O2        1.0  0.8500351905822754  0.9137944579124451  0.2776977717876433  1.0000
  Sb  Sb1       1.0  0.3624204397201538  0.07143338769674301  0.05534528568387031  1.0000
  Sr  Sr1       1.0  0.8722741007804871  0.9180932641029358  0.6931630969047546  1.0000
  Sr  Sr2       1.0  0.8799037337303162  0.7402358651161194  0.11719696223735808  1.0000
  Zr  Zr1       1.0  0.365244597196579  0.9236617684364319  0.2575716674327849  1.0000
  Zr  Zr2       1.0  0.8635636568069458  0.6717491745948792  0.2550320327281952  1.0000
