data_image0
_chemical_formula_structural       HfO5Sr4
_chemical_formula_sum              "Hf1 O5 Sr4"
_cell_length_a       5.312597731058269
_cell_length_b       5.025090264213961
_cell_length_c       6.505882740020752
_cell_angle_alpha    95.80526967148079
_cell_angle_beta     90.17158015039026
_cell_angle_gamma    87.91493283428474

_space_group_name_H-M_alt    "P 1"
_space_group_IT_number       1

loop_
  _space_group_symop_operation_xyz
  'x, y, z'

loop_
  _atom_site_type_symbol
  _atom_site_label
  _atom_site_symmetry_multiplicity
  _atom_site_fract_x
  _atom_site_fract_y
  _atom_site_fract_z
  _atom_site_occupancy
  Hf  Hf1       1.0  0.41449397802352905  0.4766834676265716  0.05822282284498215  1.0000
  O   O1        1.0  0.8893775343894958  0.6736798882484436  0.17799673974514008  1.0000
  O   O2        1.0  0.49855542182922363  0.14899566769599915  0.704569935798645  1.0000
  O   O3        1.0  0.9577838182449341  0.2270615994930267  0.39783886075019836  1.0000
  O   O4        1.0  0.875072717666626  0.16562022268772125  0.8323102593421936  1.0000
  O   O5        1.0  0.0538107305765152  0.9181649088859557  0.6158010363578796  1.0000
  Sr  Sr1       1.0  0.8781177997589111  0.9508996009826659  0.3375959098339081  1.0000
  Sr  Sr2       1.0  0.39777836203575134  0.7440027594566345  0.175358384847641  1.0000
  Sr  Sr3       1.0  0.3954945206642151  0.8224366903305054  0.15404431521892548  1.0000
  Sr  Sr4       1.0  0.904303252696991  0.6774768829345703  0.05505008995532989  1.0000
