data_image0
_chemical_formula_structural       Br4CdClF2Sb
_chemical_formula_sum              "Br4 Cd1 Cl1 F2 Sb1"
_cell_length_a       5.211420455513995
_cell_length_b       6.931746488293587
_cell_length_c       7.6248908042907715
_cell_angle_alpha    89.44907631943845
_cell_angle_beta     89.18714840244321
_cell_angle_gamma    89.62721267141876

_space_group_name_H-M_alt    "P 1"
_space_group_IT_number       1

loop_
  _space_group_symop_operation_xyz
  'x, y, z'

loop_
  _atom_site_type_symbol
  _atom_site_label
  _atom_site_symmetry_multiplicity
  _atom_site_fract_x
  _atom_site_fract_y
  _atom_site_fract_z
  _atom_site_occupancy
  Br  Br1       1.0  0.4751942753791809  0.5878127217292786  0.6636304259300232  1.0000
  Br  Br2       1.0  0.7013960480690002  0.36699914932250977  0.9810261130332946  1.0000
  Br  Br3       1.0  0.7031850218772888  0.09454791992902756  0.47372967004775995  1.0000
  Br  Br4       1.0  0.41609060764312744  0.5165228843688965  0.17245247960090637  1.0000
  Cd  Cd1       1.0  0.19356097280979156  0.34971603751182556  0.9838003516197203  1.0000
  Cl  Cl1       1.0  0.00020665608462877572  0.8437626361846924  0.6660932898521423  1.0000
  F   F1        1.0  0.7046298384666443  0.012437975965440273  0.808868944644928  1.0000
  F   F2        1.0  0.2048700749874115  0.9699624180793762  0.48235735297203053  1.0000
  Sb  Sb1       1.0  0.19799257814884186  0.007513795979321003  0.604286789894104  1.0000
