data_image0
_chemical_formula_structural       Br5ClFHTb
_chemical_formula_sum              "Br5 Cl1 F1 H1 Tb1"
_cell_length_a       6.178009189052962
_cell_length_b       6.771240537147062
_cell_length_c       8.831483840942383
_cell_angle_alpha    89.5876082819617
_cell_angle_beta     89.98713035602887
_cell_angle_gamma    91.0661393074417

_space_group_name_H-M_alt    "P 1"
_space_group_IT_number       1

loop_
  _space_group_symop_operation_xyz
  'x, y, z'

loop_
  _atom_site_type_symbol
  _atom_site_label
  _atom_site_symmetry_multiplicity
  _atom_site_fract_x
  _atom_site_fract_y
  _atom_site_fract_z
  _atom_site_occupancy
  Br  Br1       1.0  0.7861327528953552  0.5958309769630432  0.5382141470909119  1.0000
  Br  Br2       1.0  0.29461973905563354  0.3138674199581146  0.8280541896820068  1.0000
  Br  Br3       1.0  0.7979698777198792  0.08932337909936905  0.04009375721216202  1.0000
  Br  Br4       1.0  0.7965342402458191  0.8312234282493591  0.5093267560005188  1.0000
  Br  Br5       1.0  0.2924742102622986  0.8115217089653015  0.20829835534095764  1.0000
  Cl  Cl1       1.0  0.28424936532974243  0.3299633264541626  0.8485665321350098  1.0000
  F   F1        1.0  0.06939681619405746  0.3472048342227936  0.5864871740341187  1.0000
  H   H1        1.0  0.9961121678352356  0.14049382507801056  0.8365968465805054  1.0000
  Tb  Tb1       1.0  0.0636461153626442  0.2380487322807312  0.29315799474716187  1.0000
