data_image0
_chemical_formula_structural       Br4Cd3ClF
_chemical_formula_sum              "Br4 Cd3 Cl1 F1"
_cell_length_a       6.702856166470105
_cell_length_b       6.7874074656064245
_cell_length_c       8.651442527770996
_cell_angle_alpha    89.50247840731477
_cell_angle_beta     89.32543672992502
_cell_angle_gamma    110.19257975773549

_space_group_name_H-M_alt    "P 1"
_space_group_IT_number       1

loop_
  _space_group_symop_operation_xyz
  'x, y, z'

loop_
  _atom_site_type_symbol
  _atom_site_label
  _atom_site_symmetry_multiplicity
  _atom_site_fract_x
  _atom_site_fract_y
  _atom_site_fract_z
  _atom_site_occupancy
  Br  Br1       1.0  0.1352105438709259  0.31428003311157227  0.9963122010231018  1.0000
  Br  Br2       1.0  0.5041995048522949  0.193500816822052  0.6252232193946838  1.0000
  Br  Br3       1.0  0.006368380039930344  0.15802666544914246  0.49574679136276245  1.0000
  Br  Br4       1.0  0.008573292754590511  0.6860156655311584  0.2614661455154419  1.0000
  Cd  Cd1       1.0  0.333469420671463  0.1329907476902008  0.9929739832878113  1.0000
  Cd  Cd2       1.0  0.6251167058944702  0.35171476006507874  0.7568752765655518  1.0000
  Cd  Cd3       1.0  0.6642106771469116  0.8452393412590027  0.9961377382278442  1.0000
  Cl  Cl1       1.0  0.004383252002298832  0.0014226461062207818  0.1253855973482132  1.0000
  F   F1        1.0  0.166564479470253  0.8193463683128357  0.9928998351097107  1.0000
