data_image0
_chemical_formula_structural       Br2Cd4Cr2Pd
_chemical_formula_sum              "Br2 Cd4 Cr2 Pd1"
_cell_length_a       6.211835152073936
_cell_length_b       6.602413596949387
_cell_length_c       6.682456970214844
_cell_angle_alpha    89.8998811356957
_cell_angle_beta     89.61082488036244
_cell_angle_gamma    89.80244989722628

_space_group_name_H-M_alt    "P 1"
_space_group_IT_number       1

loop_
  _space_group_symop_operation_xyz
  'x, y, z'

loop_
  _atom_site_type_symbol
  _atom_site_label
  _atom_site_symmetry_multiplicity
  _atom_site_fract_x
  _atom_site_fract_y
  _atom_site_fract_z
  _atom_site_occupancy
  Br  Br1       1.0  0.9805924296379089  0.6114211678504944  0.8752577304840088  1.0000
  Br  Br2       1.0  0.46525219082832336  0.38041484355926514  0.5537788271903992  1.0000
  Cd  Cd1       1.0  0.4748140275478363  0.3875478506088257  0.10059072822332382  1.0000
  Cd  Cd2       1.0  0.4746667146682739  0.9109423160552979  0.5876317620277405  1.0000
  Cd  Cd3       1.0  0.9751954674720764  0.1308930516242981  0.8633995652198792  1.0000
  Cd  Cd4       1.0  0.47849133610725403  0.6540389060974121  0.8715819716453552  1.0000
  Cr  Cr1       1.0  0.739359438419342  0.8722978830337524  0.8733542561531067  1.0000
  Cr  Cr2       1.0  0.7418726086616516  0.17601259052753448  0.6940207481384277  1.0000
  Pd  Pd1       1.0  0.978091299533844  0.7549128532409668  0.548759400844574  1.0000
