data_image0
_chemical_formula_structural       Br5CdClFSb
_chemical_formula_sum              "Br5 Cd1 Cl1 F1 Sb1"
_cell_length_a       5.840418667067077
_cell_length_b       6.692713792112661
_cell_length_c       8.901029586791992
_cell_angle_alpha    89.22961002083512
_cell_angle_beta     89.91433995618821
_cell_angle_gamma    89.08015641921774

_space_group_name_H-M_alt    "P 1"
_space_group_IT_number       1

loop_
  _space_group_symop_operation_xyz
  'x, y, z'

loop_
  _atom_site_type_symbol
  _atom_site_label
  _atom_site_symmetry_multiplicity
  _atom_site_fract_x
  _atom_site_fract_y
  _atom_site_fract_z
  _atom_site_occupancy
  Br  Br1       1.0  0.8846020698547363  0.5110654830932617  0.4676463007926941  1.0000
  Br  Br2       1.0  0.6713318824768066  0.22974902391433716  0.22739894688129425  1.0000
  Br  Br3       1.0  0.4432440400123596  0.44751977920532227  0.9715485572814941  1.0000
  Br  Br4       1.0  0.1601647436618805  0.02725091204047203  0.45229461789131165  1.0000
  Br  Br5       1.0  0.16380609571933746  0.7466936111450195  0.9321454167366028  1.0000
  Cd  Cd1       1.0  0.1639164537191391  0.7625759840011597  0.9680704474449158  1.0000
  Cl  Cl1       1.0  0.6446189880371094  0.784612238407135  0.9736876487731934  1.0000
  F   F1        1.0  0.37644779682159424  0.25749674439430237  0.4679645001888275  1.0000
  Sb  Sb1       1.0  0.1590254306793213  0.02760869264602661  0.6302323341369629  1.0000
