data_image0
_chemical_formula_structural       AlGdOs5Zr2
_chemical_formula_sum              "Al1 Gd1 Os5 Zr2"
_cell_length_a       4.904253861670097
_cell_length_b       5.852734383226879
_cell_length_c       6.6642656326293945
_cell_angle_alpha    112.44827504726015
_cell_angle_beta     91.24674010283731
_cell_angle_gamma    114.6250916492837

_space_group_name_H-M_alt    "P 1"
_space_group_IT_number       1

loop_
  _space_group_symop_operation_xyz
  'x, y, z'

loop_
  _atom_site_type_symbol
  _atom_site_label
  _atom_site_symmetry_multiplicity
  _atom_site_fract_x
  _atom_site_fract_y
  _atom_site_fract_z
  _atom_site_occupancy
  Al  Al1       1.0  0.42877283692359924  0.7063818573951721  0.5684040188789368  1.0000
  Gd  Gd1       1.0  0.09530379623174667  0.06376887112855911  0.5814111828804015  1.0000
  Os  Os1       1.0  0.9351202249526978  0.5242793560028076  0.6521009802818298  1.0000
  Os  Os2       1.0  0.6003429293632507  0.6408495306968689  0.9184591770172119  1.0000
  Os  Os3       1.0  0.5786778926849365  0.024167492985725403  0.3164711594581604  1.0000
  Os  Os4       1.0  0.5906520485877991  0.4647565186023712  0.24870826303958893  1.0000
  Os  Os5       1.0  0.6070833206176758  0.14611437916755676  0.8692517280578613  1.0000
  Zr  Zr1       1.0  0.0915890634059906  0.06165435537695885  0.07999641448259354  1.0000
  Zr  Zr2       1.0  0.09013417363166809  0.5526368021965027  0.08549445122480395  1.0000
