data_image0
_chemical_formula_structural       Os7Zr2
_chemical_formula_sum              "Os7 Zr2"
_cell_length_a       5.248896090127778
_cell_length_b       5.375548691076733
_cell_length_c       5.999693393707275
_cell_angle_alpha    107.61693844097181
_cell_angle_beta     109.78909073508277
_cell_angle_gamma    100.85012777338808

_space_group_name_H-M_alt    "P 1"
_space_group_IT_number       1

loop_
  _space_group_symop_operation_xyz
  'x, y, z'

loop_
  _atom_site_type_symbol
  _atom_site_label
  _atom_site_symmetry_multiplicity
  _atom_site_fract_x
  _atom_site_fract_y
  _atom_site_fract_z
  _atom_site_occupancy
  Os  Os1       1.0  0.7253574132919312  0.052024345844984055  0.8066138625144957  1.0000
  Os  Os2       1.0  0.7619060277938843  0.5454084277153015  0.23716804385185242  1.0000
  Os  Os3       1.0  0.38081932067871094  0.7380967140197754  0.34097182750701904  1.0000
  Os  Os4       1.0  0.2491423487663269  0.2774578332901001  0.06691176444292068  1.0000
  Os  Os5       1.0  0.4357791543006897  0.6485289931297302  0.8793249726295471  1.0000
  Os  Os6       1.0  0.17078255116939545  0.9419193267822266  0.6619657874107361  1.0000
  Os  Os7       1.0  0.4615009129047394  0.2567320466041565  0.47589001059532166  1.0000
  Zr  Zr1       1.0  0.8913243412971497  0.12587043642997742  0.3179765343666076  1.0000
  Zr  Zr2       1.0  0.9326058030128479  0.6059122085571289  0.8700097799301147  1.0000
