data_image0
_chemical_formula_structural       GeKOsPrTe2XeZr2
_chemical_formula_sum              "Ge1 K1 Os1 Pr1 Te2 Xe1 Zr2"
_cell_length_a       6.265039414747807
_cell_length_b       6.250774421978759
_cell_length_c       6.194853782653809
_cell_angle_alpha    96.59311739435286
_cell_angle_beta     96.41517097373978
_cell_angle_gamma    96.47356062897931

_space_group_name_H-M_alt    "P 1"
_space_group_IT_number       1

loop_
  _space_group_symop_operation_xyz
  'x, y, z'

loop_
  _atom_site_type_symbol
  _atom_site_label
  _atom_site_symmetry_multiplicity
  _atom_site_fract_x
  _atom_site_fract_y
  _atom_site_fract_z
  _atom_site_occupancy
  Ge  Ge1       1.0  0.13780616223812103  0.44245266914367676  0.0007455245358869433  1.0000
  K   K1        1.0  0.4836532771587372  0.7478933930397034  0.3243078291416168  1.0000
  Os  Os1       1.0  0.280953049659729  0.5255544185638428  0.719422459602356  1.0000
  Pr  Pr1       1.0  0.1996927261352539  0.005658514332026243  0.823533296585083  1.0000
  Te  Te1       1.0  0.9677150249481201  0.6726904511451721  0.5131450891494751  1.0000
  Te  Te2       1.0  0.7076659202575684  0.9914777874946594  0.9633803963661194  1.0000
  Xe  Xe1       1.0  0.46347978711128235  0.26374682784080505  0.5110007524490356  1.0000
  Zr  Zr1       1.0  0.7517219185829163  0.4924321174621582  0.8347111344337463  1.0000
  Zr  Zr2       1.0  0.9846397042274475  0.27920961380004883  0.3565899431705475  1.0000
