data_image0
_chemical_formula_structural       GeHOsSbTe2XeZr2
_chemical_formula_sum              "Ge1 H1 Os1 Sb1 Te2 Xe1 Zr2"
_cell_length_a       6.464090342867856
_cell_length_b       6.450105646003911
_cell_length_c       6.5094828605651855
_cell_angle_alpha    64.78323273923341
_cell_angle_beta     64.77969400217705
_cell_angle_gamma    63.69332632723608

_space_group_name_H-M_alt    "P 1"
_space_group_IT_number       1

loop_
  _space_group_symop_operation_xyz
  'x, y, z'

loop_
  _atom_site_type_symbol
  _atom_site_label
  _atom_site_symmetry_multiplicity
  _atom_site_fract_x
  _atom_site_fract_y
  _atom_site_fract_z
  _atom_site_occupancy
  Ge  Ge1       1.0  0.9616672396659851  0.2269219011068344  0.9482094049453735  1.0000
  H   H1        1.0  0.8266364336013794  0.0698162093758583  0.620588481426239  1.0000
  Os  Os1       1.0  0.6981288194656372  0.9854835867881775  0.39165857434272766  1.0000
  Sb  Sb1       1.0  0.1571376919746399  0.4149755835533142  0.2854933440685272  1.0000
  Te  Te1       1.0  0.8762872815132141  0.8548564314842224  0.014380811713635921  1.0000
  Te  Te2       1.0  0.35821932554244995  0.615811288356781  0.6574742794036865  1.0000
  Xe  Xe1       1.0  0.5237537622451782  0.8062742948532104  0.8487182259559631  1.0000
  Zr  Zr1       1.0  0.13746964931488037  0.9498611092567444  0.3154594302177429  1.0000
  Zr  Zr2       1.0  0.6975269317626953  0.41667699813842773  0.3127933144569397  1.0000
