data_image0
_chemical_formula_structural       P6S4Si2Tl
_chemical_formula_sum              "P6 S4 Si2 Tl1"
_cell_length_a       6.894940926450701
_cell_length_b       7.556272287312928
_cell_length_c       8.351861000061035
_cell_angle_alpha    72.174230619922
_cell_angle_beta     65.78302234180418
_cell_angle_gamma    62.413944681225445

_space_group_name_H-M_alt    "P 1"
_space_group_IT_number       1

loop_
  _space_group_symop_operation_xyz
  'x, y, z'

loop_
  _atom_site_type_symbol
  _atom_site_label
  _atom_site_symmetry_multiplicity
  _atom_site_fract_x
  _atom_site_fract_y
  _atom_site_fract_z
  _atom_site_occupancy
  P   P1        1.0  0.36121106147766113  0.224735826253891  0.9907777309417725  1.0000
  P   P2        1.0  0.07290195673704147  0.07655411213636398  0.15424607694149017  1.0000
  P   P3        1.0  0.2858693599700928  0.6796829104423523  0.6589264273643494  1.0000
  P   P4        1.0  0.8673847317695618  0.9881607890129089  0.3165298402309418  1.0000
  P   P5        1.0  0.07239902019500732  0.9091289043426514  0.2744795083999634  1.0000
  P   P6        1.0  0.37411272525787354  0.737231969833374  0.7047201991081238  1.0000
  S   S1        1.0  0.7370768785476685  0.09081585705280304  0.6820199489593506  1.0000
  S   S2        1.0  0.9968637228012085  0.5276475548744202  0.7947361469268799  1.0000
  S   S3        1.0  0.4005674719810486  0.07743045687675476  0.3162132501602173  1.0000
  S   S4        1.0  0.7258570194244385  0.7330177426338196  0.7149618864059448  1.0000
  Si  Si1       1.0  0.09619735181331635  0.5113760828971863  0.17057520151138306  1.0000
  Si  Si2       1.0  0.1530057191848755  0.9349105358123779  0.39979299902915955  1.0000
  Tl  Tl1       1.0  0.5008723139762878  0.44792088866233826  0.37844598293304443  1.0000
