data_image0
_chemical_formula_structural       P5S7Si
_chemical_formula_sum              "P5 S7 Si1"
_cell_length_a       7.817420751236548
_cell_length_b       8.199697454334931
_cell_length_c       8.709748268127441
_cell_angle_alpha    67.24545766207729
_cell_angle_beta     63.35085130682962
_cell_angle_gamma    63.232641205215366

_space_group_name_H-M_alt    "P 1"
_space_group_IT_number       1

loop_
  _space_group_symop_operation_xyz
  'x, y, z'

loop_
  _atom_site_type_symbol
  _atom_site_label
  _atom_site_symmetry_multiplicity
  _atom_site_fract_x
  _atom_site_fract_y
  _atom_site_fract_z
  _atom_site_occupancy
  P   P1        1.0  0.5331867337226868  0.29493248462677  0.5002157092094421  1.0000
  P   P2        1.0  0.04657445847988129  0.3915705382823944  0.7322644591331482  1.0000
  P   P3        1.0  0.004470903426408768  0.39451488852500916  0.20347349345684052  1.0000
  P   P4        1.0  0.2888377606868744  0.25301694869995117  0.23635435104370117  1.0000
  P   P5        1.0  0.30283650755882263  0.2016414850950241  0.09725143015384674  1.0000
  S   S1        1.0  0.7694922685623169  0.8577510118484497  0.35358095169067383  1.0000
  S   S2        1.0  0.09668091684579849  0.07817362248897552  0.6693135499954224  1.0000
  S   S3        1.0  0.893937885761261  0.3485333323478699  0.8623563051223755  1.0000
  S   S4        1.0  0.39708712697029114  0.14984969794750214  0.5403386354446411  1.0000
  S   S5        1.0  0.28998956084251404  0.9357438087463379  0.8253783583641052  1.0000
  S   S6        1.0  0.8880323171615601  0.10887303948402405  0.4860491454601288  1.0000
  S   S7        1.0  0.8849443197250366  0.5598163604736328  0.5924030542373657  1.0000
  Si  Si1       1.0  0.6110475659370422  0.7668322920799255  0.9842767715454102  1.0000
