data_image0
_chemical_formula_structural       P6S5SiTl
_chemical_formula_sum              "P6 S5 Si1 Tl1"
_cell_length_a       6.019429877414644
_cell_length_b       8.3275482646739
_cell_length_c       8.791351318359375
_cell_angle_alpha    117.70599923778525
_cell_angle_beta     90.22392260337682
_cell_angle_gamma    88.93165910886917

_space_group_name_H-M_alt    "P 1"
_space_group_IT_number       1

loop_
  _space_group_symop_operation_xyz
  'x, y, z'

loop_
  _atom_site_type_symbol
  _atom_site_label
  _atom_site_symmetry_multiplicity
  _atom_site_fract_x
  _atom_site_fract_y
  _atom_site_fract_z
  _atom_site_occupancy
  P   P1        1.0  0.947825253009796  0.5232939124107361  0.8381764888763428  1.0000
  P   P2        1.0  0.421994000673294  0.98054176568985  0.3161145150661469  1.0000
  P   P3        1.0  0.9179686307907103  0.230093389749527  0.24937672913074493  1.0000
  P   P4        1.0  0.9220823049545287  0.7234699726104736  0.9998846054077148  1.0000
  P   P5        1.0  0.923635423183441  0.02202685736119747  0.4056801795959473  1.0000
  P   P6        1.0  0.42066153883934015  0.039307303726673126  0.01955567300319672  1.0000
  S   S1        1.0  0.7261254787445067  0.4700221717357636  0.727412760257721  1.0000
  S   S2        1.0  0.22234359383583066  0.40357756614685064  0.6143859624862671  1.0000
  S   S3        1.0  0.22231528162956235  0.40066334605216986  0.10922192037105566  1.0000
  S   S4        1.0  0.5402448773384094  0.7623338103294373  0.5725410580635071  1.0000
  S   S5        1.0  0.719483196735382  0.6369889378547668  0.640216052532196  1.0000
  Si  Si1       1.0  0.1684749722480774  0.7713776230812073  0.5224899053573608  1.0000
  Tl  Tl1       1.0  0.44937807321548456  0.1509207934141159  0.8458203077316284  1.0000
