data_image0
_chemical_formula_structural       Ag3BBi4P2S3
_chemical_formula_sum              "Ag3 B1 Bi4 P2 S3"
_cell_length_a       5.293294304159308
_cell_length_b       6.407953285863147
_cell_length_c       9.745567321777344
_cell_angle_alpha    110.00405042542604
_cell_angle_beta     90.64009725805877
_cell_angle_gamma    89.96443279766892

_space_group_name_H-M_alt    "P 1"
_space_group_IT_number       1

loop_
  _space_group_symop_operation_xyz
  'x, y, z'

loop_
  _atom_site_type_symbol
  _atom_site_label
  _atom_site_symmetry_multiplicity
  _atom_site_fract_x
  _atom_site_fract_y
  _atom_site_fract_z
  _atom_site_occupancy
  Ag  Ag1       1.0  0.4678070545196533  0.34350961446762085  0.6663787364959717  1.0000
  Ag  Ag2       1.0  0.04778995364904404  0.17407551407814026  0.9819542169570923  1.0000
  Ag  Ag3       1.0  0.9913371801376343  0.29869019985198975  0.27350175380706787  1.0000
  B   B1        1.0  0.8027345538139343  0.6823300123214722  0.8921936750411987  1.0000
  Bi  Bi1       1.0  0.7733461856842041  0.9784224033355713  0.571344256401062  1.0000
  Bi  Bi2       1.0  0.9299830794334412  0.37133607268333435  0.6389427781105042  1.0000
  Bi  Bi3       1.0  0.2759736180305481  0.4685683250427246  0.3856808841228485  1.0000
  Bi  Bi4       1.0  0.304117888212204  0.8425102829933167  0.805610716342926  1.0000
  P   P1        1.0  0.7826209664344788  0.18539880216121674  0.4728722870349884  1.0000
  P   P2        1.0  0.2724173069000244  0.7438482046127319  0.9809397459030151  1.0000
  S   S1        1.0  0.5248282551765442  0.21624207496643066  0.048517536371946335  1.0000
  S   S2        1.0  0.006777152419090271  0.6309744119644165  0.5487589836120605  1.0000
  S   S3        1.0  0.5428436994552612  0.4349234104156494  0.25306618213653564  1.0000
