data_image0
_chemical_formula_structural       P6S6Si
_chemical_formula_sum              "P6 S6 Si1"
_cell_length_a       7.265802141490192
_cell_length_b       7.391104342393519
_cell_length_c       9.223797798156738
_cell_angle_alpha    71.67506567823253
_cell_angle_beta     70.95358760795128
_cell_angle_gamma    63.54498797984424

_space_group_name_H-M_alt    "P 1"
_space_group_IT_number       1

loop_
  _space_group_symop_operation_xyz
  'x, y, z'

loop_
  _atom_site_type_symbol
  _atom_site_label
  _atom_site_symmetry_multiplicity
  _atom_site_fract_x
  _atom_site_fract_y
  _atom_site_fract_z
  _atom_site_occupancy
  P   P1        1.0  0.7272610068321228  0.69211745262146  0.6229044795036316  1.0000
  P   P2        1.0  0.4494026005268097  0.3090347647666931  0.3152198791503906  1.0000
  P   P3        1.0  0.4745205044746399  0.04114155098795891  0.41900330781936646  1.0000
  P   P4        1.0  0.7193094491958618  0.4299595355987549  0.6515733599662781  1.0000
  P   P5        1.0  0.1285206377506256  0.10635998100042343  0.6427353024482727  1.0000
  P   P6        1.0  0.08712103962898254  0.5256754159927368  0.9204649329185486  1.0000
  S   S1        1.0  0.37401196360588074  0.20624932646751404  0.7158842086791992  1.0000
  S   S2        1.0  0.946175754070282  0.7049856185913086  0.13070079684257507  1.0000
  S   S3        1.0  0.7084475159645081  0.04509022459387779  0.6596816182136536  1.0000
  S   S4        1.0  0.7988280653953552  0.5284483432769775  0.35052058100700373  1.0000
  S   S5        1.0  0.08096372336149216  0.5289395451545715  0.8574683666229248  1.0000
  S   S6        1.0  0.7281588912010193  0.7083265781402588  0.6309444308280945  1.0000
  Si  Si1       1.0  0.696891725063324  0.9912688732147217  0.6517765522003174  1.0000
