data_image0
_chemical_formula_structural       Ag3Bi4P2S3Tb
_chemical_formula_sum              "Ag3 Bi4 P2 S3 Tb1"
_cell_length_a       5.315912985125954
_cell_length_b       8.00599481061947
_cell_length_c       8.381381034851074
_cell_angle_alpha    118.71743778572885
_cell_angle_beta     89.61281376230657
_cell_angle_gamma    89.42688916194763

_space_group_name_H-M_alt    "P 1"
_space_group_IT_number       1

loop_
  _space_group_symop_operation_xyz
  'x, y, z'

loop_
  _atom_site_type_symbol
  _atom_site_label
  _atom_site_symmetry_multiplicity
  _atom_site_fract_x
  _atom_site_fract_y
  _atom_site_fract_z
  _atom_site_occupancy
  Ag  Ag1       1.0  0.8462297916412354  0.6111373901367188  0.8865126371383667  1.0000
  Ag  Ag2       1.0  0.36279699206352234  0.37027135491371155  0.313067227602005  1.0000
  Ag  Ag3       1.0  0.3592818081378937  0.7125581502914429  0.3958531320095062  1.0000
  Bi  Bi1       1.0  0.8600067496299744  0.8998836874961853  0.8915848731994628  1.0000
  Bi  Bi2       1.0  0.8635249137878418  0.384733647108078  0.5142606496810913  1.0000
  Bi  Bi3       1.0  0.8649508953094482  0.21036213636398315  0.8011382222175598  1.0000
  Bi  Bi4       1.0  0.8557010293006897  0.7024515271186829  0.5950860381126404  1.0000
  P   P1        1.0  0.8548613786697388  0.3992719352245331  0.36023977398872375  1.0000
  P   P2        1.0  0.8601354360580444  0.018724549561738968  0.8926516771316528  1.0000
  S   S1        1.0  0.371674120426178  0.3607639968395233  0.37063390016555786  1.0000
  S   S2        1.0  0.36191967129707336  0.09415902942419052  0.018505515530705452  1.0000
  S   S3        1.0  0.37233397364616394  0.34314268827438354  0.11010151356458661  1.0000
  Tb  Tb1       1.0  0.3569725453853607  0.6151046752929688  0.7395275235176086  1.0000
