data_image0
_chemical_formula_structural       EuINpP3Pr
_chemical_formula_sum              "Eu1 I1 Np1 P3 Pr1"
_cell_length_a       5.168261763672788
_cell_length_b       6.177879549608965
_cell_length_c       6.855987548828125
_cell_angle_alpha    116.13578471557669
_cell_angle_beta     101.49638770305677
_cell_angle_gamma    99.23455481662678

_space_group_name_H-M_alt    "P 1"
_space_group_IT_number       1

loop_
  _space_group_symop_operation_xyz
  'x, y, z'

loop_
  _atom_site_type_symbol
  _atom_site_label
  _atom_site_symmetry_multiplicity
  _atom_site_fract_x
  _atom_site_fract_y
  _atom_site_fract_z
  _atom_site_occupancy
  Eu  Eu1       1.0  0.3182874917984009  0.6713782548904419  0.9311273097991942  1.0000
  I   I1        1.0  0.3439983129501343  0.13804320991039276  0.5509620308876038  1.0000
  Np  Np1       1.0  0.8315590620040894  0.20249029994010925  0.12909342348575592  1.0000
  P   P1        1.0  0.8218356370925903  0.9994825124740601  0.9847707748413085  1.0000
  P   P2        1.0  0.3441019654273987  0.751217246055603  0.9592533111572265  1.0000
  P   P3        1.0  0.8181307911872864  0.17381124198436737  0.9508199095726012  1.0000
  Pr  Pr1       1.0  0.3166199326515198  0.3740394115447998  0.7238109111785889  1.0000
