data_image0
_chemical_formula_structural       NpOSe5
_chemical_formula_sum              "Np1 O1 Se5"
_cell_length_a       4.06136838529657
_cell_length_b       3.8837029479231786
_cell_length_c       8.343347549438477
_cell_angle_alpha    92.45439397514008
_cell_angle_beta     96.56976852217878
_cell_angle_gamma    91.93422398356125

_space_group_name_H-M_alt    "P 1"
_space_group_IT_number       1

loop_
  _space_group_symop_operation_xyz
  'x, y, z'

loop_
  _atom_site_type_symbol
  _atom_site_label
  _atom_site_symmetry_multiplicity
  _atom_site_fract_x
  _atom_site_fract_y
  _atom_site_fract_z
  _atom_site_occupancy
  Np  Np1       1.0  0.2766512632369995  0.016391631215810776  0.8889932632446289  1.0000
  O   O1        1.0  0.6073369979858398  0.1537061780691147  0.2817882001399994  1.0000
  Se  Se1       1.0  0.7960029244422913  0.4027132987976075  0.9600635766983032  1.0000
  Se  Se2       1.0  0.10893938690423965  0.1825729310512543  0.28868037462234497  1.0000
  Se  Se3       1.0  0.5865911245346069  0.7582876682281495  0.7471643686294556  1.0000
  Se  Se4       1.0  0.04185231775045395  0.7242957949638368  0.7160980701446533  1.0000
  Se  Se5       1.0  0.5993191003799438  0.7196720242500306  0.7458827495574951  1.0000
