data_image0
_chemical_formula_structural       NpPPr3SeV
_chemical_formula_sum              "Np1 P1 Pr3 Se1 V1"
_cell_length_a       4.149767383578492
_cell_length_b       6.104395079423206
_cell_length_c       7.470951080322266
_cell_angle_alpha    117.20805652945901
_cell_angle_beta     91.46327633725787
_cell_angle_gamma    91.11121649896751

_space_group_name_H-M_alt    "P 1"
_space_group_IT_number       1

loop_
  _space_group_symop_operation_xyz
  'x, y, z'

loop_
  _atom_site_type_symbol
  _atom_site_label
  _atom_site_symmetry_multiplicity
  _atom_site_fract_x
  _atom_site_fract_y
  _atom_site_fract_z
  _atom_site_occupancy
  Np  Np1       1.0  0.27631673216819763  0.918389618396759  0.625130832195282  1.0000
  P   P1        1.0  0.7525483965873718  0.17365451157093048  0.8376434445381165  1.0000
  Pr  Pr1       1.0  0.2352873980998993  0.3889879882335663  0.3354303538799286  1.0000
  Pr  Pr2       1.0  0.5278759002685547  0.005493451841175556  0.28383976221084595  1.0000
  Pr  Pr3       1.0  0.7828805446624756  0.8850476145744324  0.7146838307380676  1.0000
  Se  Se1       1.0  0.76762855052948  0.17449837923049927  0.9561671018600464  1.0000
  V   V1        1.0  0.2512531578540802  0.8458633422851562  0.08902292698621761  1.0000
