data_image0
_chemical_formula_structural       Dy5LuSSe8
_chemical_formula_sum              "Dy5 Lu1 S1 Se8"
_cell_length_a       6.759225178338194
_cell_length_b       9.593344647803114
_cell_length_c       9.542281150817871
_cell_angle_alpha    119.28900291158871
_cell_angle_beta     88.76410463256919
_cell_angle_gamma    90.13801134036909

_space_group_name_H-M_alt    "P 1"
_space_group_IT_number       1

loop_
  _space_group_symop_operation_xyz
  'x, y, z'

loop_
  _atom_site_type_symbol
  _atom_site_label
  _atom_site_symmetry_multiplicity
  _atom_site_fract_x
  _atom_site_fract_y
  _atom_site_fract_z
  _atom_site_occupancy
  Dy  Dy1       1.0  0.24455961585044864  0.1995052844285965  0.6918546557426453  1.0000
  Dy  Dy2       1.0  0.995218336582184  0.9643445014953613  0.5277306437492371  1.0000
  Dy  Dy3       1.0  0.49453756213188177  0.5213452577590942  0.3216403722763062  1.0000
  Dy  Dy4       1.0  0.9969247579574586  0.5332797169685364  0.46568912267684937  1.0000
  Dy  Dy5       1.0  0.503013014793396  0.5256139039993286  0.5452554225921631  1.0000
  Lu  Lu1       1.0  0.49891787767410284  0.33919909596443176  0.8052579760551453  1.0000
  S   S1        1.0  0.8162491321563721  0.05505992844700813  0.8092672228813171  1.0000
  Se  Se1       1.0  0.30956995487213135  0.06339059770107269  0.10219065099954605  1.0000
  Se  Se2       1.0  0.9985201358795167  0.36427539587020874  0.05558786913752561  1.0000
  Se  Se3       1.0  0.7739072442054749  0.6146459579467773  0.750613808631897  1.0000
  Se  Se4       1.0  0.4958753883838654  0.7239250540733337  0.017136059701442764  1.0000
  Se  Se5       1.0  0.9999146461486818  0.8894610404968262  0.4119136929512024  1.0000
  Se  Se6       1.0  0.49458631873130804  0.3872680366039276  0.27988889813423157  1.0000
  Se  Se7       1.0  0.2353297621011734  0.02231695130467415  0.7707367539405823  1.0000
  Se  Se8       1.0  0.004394431132823229  0.11446785926818848  0.04357736185193062  1.0000
