data_image0
_chemical_formula_structural       Dy3ILuSSe7SiZn
_chemical_formula_sum              "Dy3 I1 Lu1 S1 Se7 Si1 Zn1"
_cell_length_a       5.880381601883376
_cell_length_b       9.233476085192166
_cell_length_c       8.872787475585938
_cell_angle_alpha    119.46759244718471
_cell_angle_beta     89.55077706217914
_cell_angle_gamma    90.08700929558742

_space_group_name_H-M_alt    "P 1"
_space_group_IT_number       1

loop_
  _space_group_symop_operation_xyz
  'x, y, z'

loop_
  _atom_site_type_symbol
  _atom_site_label
  _atom_site_symmetry_multiplicity
  _atom_site_fract_x
  _atom_site_fract_y
  _atom_site_fract_z
  _atom_site_occupancy
  Dy  Dy1       1.0  0.03987831249833107  0.1967584788799286  0.0774591490626335  1.0000
  Dy  Dy2       1.0  0.5226362347602844  0.6800809502601624  0.4978598356246949  1.0000
  Dy  Dy3       1.0  0.009490132331848145  0.45368409156799316  0.5806419253349304  1.0000
  I   I1        1.0  0.27122214436531067  0.7467115521430969  0.4092465937137604  1.0000
  Lu  Lu1       1.0  0.026198994368314743  0.6866337656974792  0.2895326912403106  1.0000
  S   S1        1.0  0.7486518025398254  0.9727874398231506  0.500701904296875  1.0000
  Se  Se1       1.0  0.7851073741912842  0.9502423405647278  0.4922113120555877  1.0000
  Se  Se2       1.0  0.8102325201034546  0.27135375142097473  0.714397668838501  1.0000
  Se  Se3       1.0  0.0836464911699295  0.05581500753760338  0.7034158706665039  1.0000
  Se  Se4       1.0  0.5750092267990112  0.42933398485183716  0.7831156849861145  1.0000
  Se  Se5       1.0  0.3416803181171417  0.3176172077655792  0.4825683534145356  1.0000
  Se  Se6       1.0  0.06946926563978195  0.6831032633781433  0.29779320955276484  1.0000
  Se  Se7       1.0  0.7617002725601196  0.7603660821914673  0.8968231081962585  1.0000
  Si  Si1       1.0  0.5515999794006348  0.4884803593158722  0.49692666530609136  1.0000
  Zn  Zn1       1.0  0.7567589282989502  0.8772289156913757  0.2236002832651138  1.0000
