data_image0
_chemical_formula_structural       CuDy3NiSe9Si
_chemical_formula_sum              "Cu1 Dy3 Ni1 Se9 Si1"
_cell_length_a       6.187604655868937
_cell_length_b       9.649661820392305
_cell_length_c       9.760432243347168
_cell_angle_alpha    119.98480956919435
_cell_angle_beta     89.24269408620795
_cell_angle_gamma    90.19679802046686

_space_group_name_H-M_alt    "P 1"
_space_group_IT_number       1

loop_
  _space_group_symop_operation_xyz
  'x, y, z'

loop_
  _atom_site_type_symbol
  _atom_site_label
  _atom_site_symmetry_multiplicity
  _atom_site_fract_x
  _atom_site_fract_y
  _atom_site_fract_z
  _atom_site_occupancy
  Cu  Cu1       1.0  0.17809052765369415  0.058643367141485214  0.9156564474105835  1.0000
  Dy  Dy1       1.0  0.425731897354126  0.2836308479309082  0.7225642204284668  1.0000
  Dy  Dy2       1.0  0.18509207665920258  0.30994346737861633  0.7331123352050781  1.0000
  Dy  Dy3       1.0  0.9265487194061279  0.40343233942985535  0.8664662837982178  1.0000
  Ni  Ni1       1.0  0.17374232411384583  0.6288652420043945  0.616794764995575  1.0000
  Se  Se1       1.0  0.1837168037891388  0.06981421262025833  0.8944645524024963  1.0000
  Se  Se2       1.0  0.6914793848991394  0.31619396805763245  0.21243588626384735  1.0000
  Se  Se3       1.0  0.9329046010971069  0.4660109877586365  0.7824183702468872  1.0000
  Se  Se4       1.0  0.9215996861457825  0.7413243651390076  0.40306982398033137  1.0000
  Se  Se5       1.0  0.6861639618873596  0.2845331132411957  0.33986330032348633  1.0000
  Se  Se6       1.0  0.43402618169784546  0.7594234347343445  0.2674376964569091  1.0000
  Se  Se7       1.0  0.4353764057159424  0.21688885986804962  0.00865051522850988  1.0000
  Se  Se8       1.0  0.16088417172431946  0.06541436910629272  0.5287089347839355  1.0000
  Se  Se9       1.0  0.4234049320220947  0.7984606027603149  0.5830777883529663  1.0000
  Si  Si1       1.0  0.6759248971939087  0.9176371693611145  0.582106053829193  1.0000
