data_image0
_chemical_formula_structural       Cu3Dy3Se9
_chemical_formula_sum              "Cu3 Dy3 Se9"
_cell_length_a       6.729056126299589
_cell_length_b       8.369711750400517
_cell_length_c       8.341317176818848
_cell_angle_alpha    119.19694928008309
_cell_angle_beta     98.05703355729784
_cell_angle_gamma    97.52812574466968

_space_group_name_H-M_alt    "P 1"
_space_group_IT_number       1

loop_
  _space_group_symop_operation_xyz
  'x, y, z'

loop_
  _atom_site_type_symbol
  _atom_site_label
  _atom_site_symmetry_multiplicity
  _atom_site_fract_x
  _atom_site_fract_y
  _atom_site_fract_z
  _atom_site_occupancy
  Cu  Cu1       1.0  0.5164041519165039  0.33842802047729487  0.07335598021745679  1.0000
  Cu  Cu2       1.0  0.5797414779663086  0.6203404664993285  0.10895840078592295  1.0000
  Cu  Cu3       1.0  0.997759222984314  0.1204552799463272  0.6517231464385986  1.0000
  Dy  Dy1       1.0  0.0013301112921908498  0.26917195320129395  0.9098162055015564  1.0000
  Dy  Dy2       1.0  0.7468082308769226  0.6886251568794249  0.2712267339229583  1.0000
  Dy  Dy3       1.0  0.24880449473857877  0.9799228906631469  0.8773767948150635  1.0000
  Se  Se1       1.0  0.4821878969669342  0.13449932634830475  0.5979681015014648  1.0000
  Se  Se2       1.0  0.7075902223587036  0.10682491958141326  0.5986958742141724  1.0000
  Se  Se3       1.0  0.16189122200012207  0.11451050639152525  0.6693986654281616  1.0000
  Se  Se4       1.0  0.49253666400909424  0.08410138636827467  0.3874204456806183  1.0000
  Se  Se5       1.0  0.48916441202163696  0.7499117255210875  0.1982519775629043  1.0000
  Se  Se6       1.0  0.5038539171218872  0.5790774822235107  0.6611478924751282  1.0000
  Se  Se7       1.0  0.7348882555961609  0.16544210910797116  0.5155507326126099  1.0000
  Se  Se8       1.0  0.279683381319046  0.7504082918167113  0.9224626421928406  1.0000
  Se  Se9       1.0  0.7599208354949951  0.5985133051872252  0.8343377709388733  1.0000
