data_image0
_chemical_formula_structural       CuDy4Se10
_chemical_formula_sum              "Cu1 Dy4 Se10"
_cell_length_a       6.225939721596939
_cell_length_b       9.894510845004577
_cell_length_c       10.131149291992188
_cell_angle_alpha    118.28255461623948
_cell_angle_beta     90.47882285029738
_cell_angle_gamma    90.07895929779178

_space_group_name_H-M_alt    "P 1"
_space_group_IT_number       1

loop_
  _space_group_symop_operation_xyz
  'x, y, z'

loop_
  _atom_site_type_symbol
  _atom_site_label
  _atom_site_symmetry_multiplicity
  _atom_site_fract_x
  _atom_site_fract_y
  _atom_site_fract_z
  _atom_site_occupancy
  Cu  Cu1       1.0  0.7393175959587097  0.05195152387022972  0.2345811128616333  1.0000
  Dy  Dy1       1.0  0.7564300298690796  0.8489858508110046  0.06250197440385809  1.0000
  Dy  Dy2       1.0  0.7487466931343079  0.5690558552742004  0.3589993715286255  1.0000
  Dy  Dy3       1.0  0.2264017015695572  0.4751684069633484  0.6734199523925781  1.0000
  Dy  Dy4       1.0  0.25656089186668396  0.9025417566299438  0.9168388843536377  1.0000
  Se  Se1       1.0  0.7586672306060791  0.6853035688400269  0.5306974649429321  1.0000
  Se  Se2       1.0  0.5155125856399536  0.14353670179843903  0.3970288038253784  1.0000
  Se  Se3       1.0  0.02089528739452362  0.37842077016830444  0.9112592935562134  1.0000
  Se  Se4       1.0  0.7235593199729919  0.7734774351119995  0.5461232662200927  1.0000
  Se  Se5       1.0  0.24048785865306854  0.3480980694293976  0.516325831413269  1.0000
  Se  Se6       1.0  0.7545120120048523  0.4523193836212158  0.11087811738252634  1.0000
  Se  Se7       1.0  0.2538723349571228  0.17663909494876862  0.6976292729377747  1.0000
  Se  Se8       1.0  0.21823212504386902  0.19570423662662506  0.283284068107605  1.0000
  Se  Se9       1.0  0.2574247121810913  0.9812787771224976  0.6176193952560423  1.0000
  Se  Se10      1.0  0.49145495891571045  0.4680010676383972  0.6927995085716246  1.0000
