data_image0
_chemical_formula_structural       Cu4Dy2Se9
_chemical_formula_sum              "Cu4 Dy2 Se9"
_cell_length_a       5.769627983510976
_cell_length_b       7.51908539867513
_cell_length_c       7.546335220336914
_cell_angle_alpha    117.4175947749574
_cell_angle_beta     95.82657948082101
_cell_angle_gamma    87.79006626035974

_space_group_name_H-M_alt    "P 1"
_space_group_IT_number       1

loop_
  _space_group_symop_operation_xyz
  'x, y, z'

loop_
  _atom_site_type_symbol
  _atom_site_label
  _atom_site_symmetry_multiplicity
  _atom_site_fract_x
  _atom_site_fract_y
  _atom_site_fract_z
  _atom_site_occupancy
  Cu  Cu1       1.0  0.1404755413532257  0.03611893579363823  0.8064281940460206  1.0000
  Cu  Cu2       1.0  0.9264371991157532  0.5456126928329468  0.8099003434181214  1.0000
  Cu  Cu3       1.0  0.45745211839675903  0.5369321703910828  0.8271387219429017  1.0000
  Cu  Cu4       1.0  0.9022337198257446  0.5996189713478088  0.2668823301792145  1.0000
  Dy  Dy1       1.0  0.38951313495635986  0.5496101975440979  0.10016546398401262  1.0000
  Dy  Dy2       1.0  0.6310303807258606  0.9951909780502319  0.8229117393493653  1.0000
  Se  Se1       1.0  0.7421625852584839  0.8671844005584717  0.6312928199768068  1.0000
  Se  Se2       1.0  0.14070864021778107  0.33013391494750977  0.8338075876235963  1.0000
  Se  Se3       1.0  0.6393553614616394  0.20417197048664093  0.12384393066167833  1.0000
  Se  Se4       1.0  0.1666341871023178  0.05891876667737961  0.5054994225502014  1.0000
  Se  Se5       1.0  0.14744234085083008  0.16607530415058136  0.714253604412079  1.0000
  Se  Se6       1.0  0.6525208353996277  0.8206781148910522  0.4835686087608338  1.0000
  Se  Se7       1.0  0.8821425437927246  0.5571326613426208  0.12834198772907257  1.0000
  Se  Se8       1.0  0.6555437445640564  0.225065216422081  0.5066192150115967  1.0000
  Se  Se9       1.0  0.15046873688697815  0.32182586193084717  0.8072286248207093  1.0000
