data_image0
_chemical_formula_structural       FeHPPt2Si2
_chemical_formula_sum              "Fe1 H1 P1 Pt2 Si2"
_cell_length_a       4.403210050273015
_cell_length_b       3.660831334631417
_cell_length_c       5.966469764709473
_cell_angle_alpha    113.57773753017396
_cell_angle_beta     96.94245855875093
_cell_angle_gamma    91.5939060350421

_space_group_name_H-M_alt    "P 1"
_space_group_IT_number       1

loop_
  _space_group_symop_operation_xyz
  'x, y, z'

loop_
  _atom_site_type_symbol
  _atom_site_label
  _atom_site_symmetry_multiplicity
  _atom_site_fract_x
  _atom_site_fract_y
  _atom_site_fract_z
  _atom_site_occupancy
  Fe  Fe1       1.0  0.6441794633865356  0.6051022410392761  0.826069712638855  1.0000
  H   H1        1.0  0.6297101378440857  0.6271060705184937  0.4215913712978363  1.0000
  P   P1        1.0  0.13273224234580994  0.05741880461573601  0.8325304985046387  1.0000
  Pt  Pt1       1.0  0.6329939961433411  0.18830792605876923  0.9120861291885375  1.0000
  Pt  Pt2       1.0  0.12893477082252502  0.2542731463909149  0.5410064458847046  1.0000
  Si  Si1       1.0  0.6357737183570862  0.56663578748703  0.46206274628639216  1.0000
  Si  Si2       1.0  0.5665766000747681  0.323286235332489  0.28956082463264465  1.0000
