data_image0
_chemical_formula_structural       FeSi6
_chemical_formula_sum              "Fe1 Si6"
_cell_length_a       4.101041567715823
_cell_length_b       4.742145668710735
_cell_length_c       4.316935062408447
_cell_angle_alpha    73.73839293818895
_cell_angle_beta     62.34479018333661
_cell_angle_gamma    68.14668145661084

_space_group_name_H-M_alt    "P 1"
_space_group_IT_number       1

loop_
  _space_group_symop_operation_xyz
  'x, y, z'

loop_
  _atom_site_type_symbol
  _atom_site_label
  _atom_site_symmetry_multiplicity
  _atom_site_fract_x
  _atom_site_fract_y
  _atom_site_fract_z
  _atom_site_occupancy
  Fe  Fe1       1.0  0.7414245605468751  0.345569908618927  0.7424740791320801  1.0000
  Si  Si1       1.0  0.7370190024375917  0.19014687836170197  0.5621258020401001  1.0000
  Si  Si2       1.0  0.23301714658737185  0.7277563810348511  0.04826163873076439  1.0000
  Si  Si3       1.0  0.17414797842502594  0.3985690176486969  0.19860000908374786  1.0000
  Si  Si4       1.0  0.7392144203186036  0.8428672552108765  0.766743004322052  1.0000
  Si  Si5       1.0  0.24242745339870456  0.3942587077617645  0.9429610371589661  1.0000
  Si  Si6       1.0  0.24407476186752322  0.1841219663619995  0.31427401304244995  1.0000
