data_image0
_chemical_formula_structural       BiCo4Na3P
_chemical_formula_sum              "Bi1 Co4 Na3 P1"
_cell_length_a       4.632814418941725
_cell_length_b       5.851685717322719
_cell_length_c       6.8620924949646
_cell_angle_alpha    90.6821456746011
_cell_angle_beta     89.60402493798348
_cell_angle_gamma    90.07283607353556

_space_group_name_H-M_alt    "P 1"
_space_group_IT_number       1

loop_
  _space_group_symop_operation_xyz
  'x, y, z'

loop_
  _atom_site_type_symbol
  _atom_site_label
  _atom_site_symmetry_multiplicity
  _atom_site_fract_x
  _atom_site_fract_y
  _atom_site_fract_z
  _atom_site_occupancy
  Bi  Bi1       1.0  0.18097107112407684  0.9373550415039061  0.6555783152580261  1.0000
  Co  Co1       1.0  0.6805028915405273  0.6722453236579895  0.9198363423347473  1.0000
  Co  Co2       1.0  0.18534348905086517  0.14934466779232025  0.6563969850540161  1.0000
  Co  Co3       1.0  0.6826399564743042  0.15510712563991547  0.672607421875  1.0000
  Co  Co4       1.0  0.17998741567134857  0.5506990551948547  0.3574136793613434  1.0000
  Na  Na1       1.0  0.670868456363678  0.4252121746540069  0.7311879992485046  1.0000
  Na  Na2       1.0  0.1787022054195404  0.9119340181350707  0.8030081391334534  1.0000
  Na  Na3       1.0  0.6939920783042908  0.43931502103805536  0.159550279378891  1.0000
  P   P1        1.0  0.39487355947494507  0.21829757094383237  0.24685654044151306  1.0000
