data_image0
_chemical_formula_structural       Co6Na2P
_chemical_formula_sum              "Co6 Na2 P1"
_cell_length_a       4.867628453881098
_cell_length_b       5.288750082236921
_cell_length_c       5.672296047210693
_cell_angle_alpha    89.80553562038612
_cell_angle_beta     90.13359018008154
_cell_angle_gamma    92.14534634913025

_space_group_name_H-M_alt    "P 1"
_space_group_IT_number       1

loop_
  _space_group_symop_operation_xyz
  'x, y, z'

loop_
  _atom_site_type_symbol
  _atom_site_label
  _atom_site_symmetry_multiplicity
  _atom_site_fract_x
  _atom_site_fract_y
  _atom_site_fract_z
  _atom_site_occupancy
  Co  Co1       1.0  0.23092254996299744  0.5095378756523132  0.4632750451564788  1.0000
  Co  Co2       1.0  0.7297254800796509  0.024502523243427277  0.9627736210823058  1.0000
  Co  Co3       1.0  0.23472779989242554  0.8357353806495667  0.9636387825012206  1.0000
  Co  Co4       1.0  0.7371619343757629  0.34349632263183594  0.9649250507354735  1.0000
  Co  Co5       1.0  0.7353397011756897  0.5150948166847229  0.9617308974266051  1.0000
  Co  Co6       1.0  0.22800278663635254  0.0107146967202425  0.5960776209831238  1.0000
  Na  Na1       1.0  0.7369723320007324  0.8418086171150208  0.9660800099372865  1.0000
  Na  Na2       1.0  0.7263436317443848  0.5205920338630676  0.41614466905593867  1.0000
  P   P1        1.0  0.22934933006763458  0.01944735459983349  0.46145099401473993  1.0000
