data_image0
_chemical_formula_structural       Co4Na2P2Pr
_chemical_formula_sum              "Co4 Na2 P2 Pr1"
_cell_length_a       4.85897572487057
_cell_length_b       5.753015530769773
_cell_length_c       5.646728038787842
_cell_angle_alpha    89.78882193347135
_cell_angle_beta     91.2563535195945
_cell_angle_gamma    91.20253138965789

_space_group_name_H-M_alt    "P 1"
_space_group_IT_number       1

loop_
  _space_group_symop_operation_xyz
  'x, y, z'

loop_
  _atom_site_type_symbol
  _atom_site_label
  _atom_site_symmetry_multiplicity
  _atom_site_fract_x
  _atom_site_fract_y
  _atom_site_fract_z
  _atom_site_occupancy
  Co  Co1       1.0  0.897041916847229  0.9586895108222961  0.17068235576152802  1.0000
  Co  Co2       1.0  0.4059009253978729  0.9448000192642212  0.839982807636261  1.0000
  Co  Co3       1.0  0.8741884827613831  0.6386279463768005  0.1745155304670334  1.0000
  Co  Co4       1.0  0.40586042404174805  0.4622897505760193  0.6729495525360107  1.0000
  Na  Na1       1.0  0.9125728011131288  0.48163583874702454  0.9797126650810242  1.0000
  Na  Na2       1.0  0.41121044754981995  0.932048499584198  0.36267828941345215  1.0000
  P   P1        1.0  0.8808026909828186  0.32709258794784546  0.17233124375343323  1.0000
  P   P2        1.0  0.41841843724250793  0.2958012521266937  0.8842204809188843  1.0000
  Pr  Pr1       1.0  0.9048016667366028  0.14554767310619354  0.5547001957893372  1.0000
