data_image0
_chemical_formula_structural       Br5RuTl
_chemical_formula_sum              "Br5 Ru1 Tl1"
_cell_length_a       6.575882493210811
_cell_length_b       6.868463476168293
_cell_length_c       6.948175430297852
_cell_angle_alpha    116.18446997562897
_cell_angle_beta     116.808222118283
_cell_angle_gamma    89.9088691791785

_space_group_name_H-M_alt    "P 1"
_space_group_IT_number       1

loop_
  _space_group_symop_operation_xyz
  'x, y, z'

loop_
  _atom_site_type_symbol
  _atom_site_label
  _atom_site_symmetry_multiplicity
  _atom_site_fract_x
  _atom_site_fract_y
  _atom_site_fract_z
  _atom_site_occupancy
  Br  Br1       1.0  0.5514089465141296  0.3889960944652557  0.36454877257347107  1.0000
  Br  Br2       1.0  0.5368407964706421  0.938434600830078  0.9341301321983337  1.0000
  Br  Br3       1.0  0.04483285173773764  0.46259152889251703  0.6565396189689636  1.0000
  Br  Br4       1.0  0.2680019438266754  0.7845529913902282  0.686586856842041  1.0000
  Br  Br5       1.0  0.5845514535903931  0.4200692474842071  0.701453685760498  1.0000
  Ru  Ru1       1.0  0.8367383480072023  0.9663965702056884  0.5975239276885986  1.0000
  Tl  Tl1       1.0  0.5704848170280457  0.8747719526290892  0.3747829496860504  1.0000
