data_image0
_chemical_formula_structural       BaEr2GeIr3
_chemical_formula_sum              "Ba1 Er2 Ge1 Ir3"
_cell_length_a       4.286836676341328
_cell_length_b       6.317193280883709
_cell_length_c       6.382506370544434
_cell_angle_alpha    122.45811356958377
_cell_angle_beta     90.60374579368775
_cell_angle_gamma    90.86829500179907

_space_group_name_H-M_alt    "P 1"
_space_group_IT_number       1

loop_
  _space_group_symop_operation_xyz
  'x, y, z'

loop_
  _atom_site_type_symbol
  _atom_site_label
  _atom_site_symmetry_multiplicity
  _atom_site_fract_x
  _atom_site_fract_y
  _atom_site_fract_z
  _atom_site_occupancy
  Ba  Ba1       1.0  0.18376122415065765  0.9370672702789307  0.07899113744497299  1.0000
  Er  Er1       1.0  0.1756746619939804  0.07586769014596939  0.9325953722000122  1.0000
  Er  Er2       1.0  0.16524849832057953  0.9547020196914673  0.24587710201740265  1.0000
  Ge  Ge1       1.0  0.583602786064148  0.2639116644859314  0.731960117816925  1.0000
  Ir  Ir1       1.0  0.6918065547943115  0.4021262526512146  0.5769069790840149  1.0000
  Ir  Ir2       1.0  0.6910574436187744  0.5958951115608215  0.26959171891212463  1.0000
  Ir  Ir3       1.0  0.6585289835929871  0.02635716274380684  0.9114182591438293  1.0000
