data_image0
_chemical_formula_structural       CdCuFeHNTe2TiXe
_chemical_formula_sum              "Cd1 Cu1 Fe1 H1 N1 Te2 Ti1 Xe1"
_cell_length_a       5.874002917274488
_cell_length_b       5.8848231149386745
_cell_length_c       5.860568046569824
_cell_angle_alpha    100.04368394228516
_cell_angle_beta     99.70669520847906
_cell_angle_gamma    99.40483096395582

_space_group_name_H-M_alt    "P 1"
_space_group_IT_number       1

loop_
  _space_group_symop_operation_xyz
  'x, y, z'

loop_
  _atom_site_type_symbol
  _atom_site_label
  _atom_site_symmetry_multiplicity
  _atom_site_fract_x
  _atom_site_fract_y
  _atom_site_fract_z
  _atom_site_occupancy
  Cd  Cd1       1.0  0.4654100835323334  0.15745984017848969  0.5719428658485413  1.0000
  Cu  Cu1       1.0  0.43382447957992554  0.6763105392456055  0.8879240155220032  1.0000
  Fe  Fe1       1.0  0.3503732979297638  0.2863258421421051  0.058352090418338796  1.0000
  H   H1        1.0  0.5443578362464905  0.13145530223846436  0.1971062570810318  1.0000
  N   N1        1.0  0.5623553991317749  0.42051753401756287  0.9069400429725647  1.0000
  Te  Te1       1.0  0.9711391925811768  0.1327967643737793  0.7583913207054138  1.0000
  Te  Te2       1.0  0.30610859394073486  0.6039904356002808  0.4148358702659607  1.0000
  Ti  Ti1       1.0  0.781796395778656  0.3612636923789978  0.1328461766242981  1.0000
  Xe  Xe1       1.0  0.8650972247123718  0.8385071158409119  0.14062438905239108  1.0000
