data_image0
_chemical_formula_structural       Cd3Ru2Te4
_chemical_formula_sum              "Cd3 Ru2 Te4"
_cell_length_a       6.203261668251452
_cell_length_b       6.522018577530149
_cell_length_c       7.07218599319458
_cell_angle_alpha    64.00807850379232
_cell_angle_beta     79.02085593306032
_cell_angle_gamma    68.92355867363825

_space_group_name_H-M_alt    "P 1"
_space_group_IT_number       1

loop_
  _space_group_symop_operation_xyz
  'x, y, z'

loop_
  _atom_site_type_symbol
  _atom_site_label
  _atom_site_symmetry_multiplicity
  _atom_site_fract_x
  _atom_site_fract_y
  _atom_site_fract_z
  _atom_site_occupancy
  Cd  Cd1       1.0  0.3461146056652069  0.6256524324417114  0.3474321961402893  1.0000
  Cd  Cd2       1.0  0.009541868232190609  0.2717441916465759  0.05343381687998773  1.0000
  Cd  Cd3       1.0  0.8339754939079285  0.8037121295928955  0.6511921882629395  1.0000
  Ru  Ru1       1.0  0.7330990433692932  0.8677923679351807  0.07281458377838135  1.0000
  Ru  Ru2       1.0  0.2021874487400055  0.12952207028865814  0.5814653635025024  1.0000
  Te  Te1       1.0  0.17009979486465454  0.7809794545173645  0.911338448524475  1.0000
  Te  Te2       1.0  0.8772755861282349  0.48287636041641235  0.41132599115371704  1.0000
  Te  Te3       1.0  0.542550265789032  0.13379566371440887  0.28807783126831055  1.0000
  Te  Te4       1.0  0.4494788348674774  0.1977575421333313  0.7826647758483887  1.0000
