data_image0
_chemical_formula_structural       Cd2Ru3Te4
_chemical_formula_sum              "Cd2 Ru3 Te4"
_cell_length_a       4.141745277428656
_cell_length_b       6.8235094378611265
_cell_length_c       7.801940441131592
_cell_angle_alpha    106.65053641320684
_cell_angle_beta     89.94936368142272
_cell_angle_gamma    89.94518486310109

_space_group_name_H-M_alt    "P 1"
_space_group_IT_number       1

loop_
  _space_group_symop_operation_xyz
  'x, y, z'

loop_
  _atom_site_type_symbol
  _atom_site_label
  _atom_site_symmetry_multiplicity
  _atom_site_fract_x
  _atom_site_fract_y
  _atom_site_fract_z
  _atom_site_occupancy
  Cd  Cd1       1.0  0.5617271661758423  0.7904399633407593  0.1924261003732681  1.0000
  Cd  Cd2       1.0  0.06704235076904297  0.12340917438268661  0.5255635380744934  1.0000
  Ru  Ru1       1.0  0.06622815132141113  0.632745087146759  0.7161795496940613  1.0000
  Ru  Ru2       1.0  0.5677499771118164  0.24801504611968994  0.13261868059635162  1.0000
  Ru  Ru3       1.0  0.5678576231002808  0.46790385246276855  0.520876407623291  1.0000
  Te  Te1       1.0  0.5668880343437195  0.4115291237831116  0.8366188406944275  1.0000
  Te  Te2       1.0  0.06607109308242798  0.9811320900917053  0.007391790859401197  1.0000
  Te  Te3       1.0  0.06980319321155548  0.48987919092178345  0.31477463245391846  1.0000
  Te  Te4       1.0  0.5679587721824646  0.8566122055053711  0.6306597590446472  1.0000
