data_image0
_chemical_formula_structural       FGeIInOPPbZnZr
_chemical_formula_sum              "F1 Ge1 I1 In1 O1 P1 Pb1 Zn1 Zr1"
_cell_length_a       5.120313800980702
_cell_length_b       5.4013916091244925
_cell_length_c       6.0950469970703125
_cell_angle_alpha    109.33824029997159
_cell_angle_beta     105.9662334452632
_cell_angle_gamma    117.72908996352665

_space_group_name_H-M_alt    "P 1"
_space_group_IT_number       1

loop_
  _space_group_symop_operation_xyz
  'x, y, z'

loop_
  _atom_site_type_symbol
  _atom_site_label
  _atom_site_symmetry_multiplicity
  _atom_site_fract_x
  _atom_site_fract_y
  _atom_site_fract_z
  _atom_site_occupancy
  F   F1        1.0  0.8802725672721863  0.008007519878447056  0.6003324985504152  1.0000
  Ge  Ge1       1.0  0.2530635595321655  0.9097880721092224  0.0051432834006846315  1.0000
  I   I1        1.0  0.3074822425842285  0.2226119488477707  0.7421439290046692  1.0000
  In  In1       1.0  0.6126852631568909  0.3652038872241974  0.8848817348480225  1.0000
  O   O1        1.0  0.2813333570957184  0.911553680896759  0.9176770448684692  1.0000
  P   P1        1.0  0.48754239082336426  0.8874492645263672  0.16103257238864904  1.0000
  Pb  Pb1       1.0  0.6359459161758423  0.18253569304943085  0.7036623954772949  1.0000
  Zn  Zn1       1.0  0.24373339116573334  0.5389320850372314  0.49853309988975525  1.0000
  Zr  Zr1       1.0  0.8854218125343323  0.007608206942677498  0.6526570916175842  1.0000
