data_image0
_chemical_formula_structural       HIK2OPbZnZr2
_chemical_formula_sum              "H1 I1 K2 O1 Pb1 Zn1 Zr2"
_cell_length_a       6.5362547510695155
_cell_length_b       6.374540202174325
_cell_length_c       7.276185989379883
_cell_angle_alpha    63.7166141199743
_cell_angle_beta     64.81687416029628
_cell_angle_gamma    66.0358843183992

_space_group_name_H-M_alt    "P 1"
_space_group_IT_number       1

loop_
  _space_group_symop_operation_xyz
  'x, y, z'

loop_
  _atom_site_type_symbol
  _atom_site_label
  _atom_site_symmetry_multiplicity
  _atom_site_fract_x
  _atom_site_fract_y
  _atom_site_fract_z
  _atom_site_occupancy
  H   H1        1.0  0.534647524356842  0.9369059205055237  0.22624799609184265  1.0000
  I   I1        1.0  0.014050179161131382  0.14562135934829712  0.5382962822914122  1.0000
  K   K1        1.0  0.5603097677230835  0.23688670992851257  0.45518967509269714  1.0000
  K   K2        1.0  0.9761300086975098  0.34850749373435974  0.9407929778099059  1.0000
  O   O1        1.0  0.7605651617050171  0.2004328966140747  0.031122030690312382  1.0000
  Pb  Pb1       1.0  0.4621674120426178  0.43696027994155884  0.35384702682495117  1.0000
  Zn  Zn1       1.0  0.030350394546985626  0.17082756757736206  0.8756992816925049  1.0000
  Zr  Zr1       1.0  0.2505660355091095  0.17388804256916046  0.3443123698234558  1.0000
  Zr  Zr2       1.0  0.012141731567680836  0.18223105370998383  0.9598622918128966  1.0000
