data_image0
_chemical_formula_structural       CI2KOPbSbVZn
_chemical_formula_sum              "C1 I2 K1 O1 Pb1 Sb1 V1 Zn1"
_cell_length_a       5.5964382685340635
_cell_length_b       5.687615200464073
_cell_length_c       7.138988494873047
_cell_angle_alpha    105.41740412584345
_cell_angle_beta     91.55797467794146
_cell_angle_gamma    96.17488761079215

_space_group_name_H-M_alt    "P 1"
_space_group_IT_number       1

loop_
  _space_group_symop_operation_xyz
  'x, y, z'

loop_
  _atom_site_type_symbol
  _atom_site_label
  _atom_site_symmetry_multiplicity
  _atom_site_fract_x
  _atom_site_fract_y
  _atom_site_fract_z
  _atom_site_occupancy
  C   C1        1.0  0.9880810379981994  0.6186943054199219  0.1998053044080734  1.0000
  I   I1        1.0  0.9776279926300048  0.13391578197479248  0.7200192809104919  1.0000
  I   I2        1.0  0.9927114248275756  0.9632883071899413  0.4295328855514526  1.0000
  K   K1        1.0  0.7865025401115416  0.506140947341919  0.2237192094326019  1.0000
  O   O1        1.0  0.5023224949836731  0.3992708623409271  0.2355510592460632  1.0000
  Pb  Pb1       1.0  0.49544513225555414  0.2997635006904602  0.7962074279785155  1.0000
  Sb  Sb1       1.0  0.48344224691390986  0.6756868362426758  0.018136121332645416  1.0000
  V   V1        1.0  0.4823260605335235  0.15628878772258759  0.993057608604431  1.0000
  Zn  Zn1       1.0  0.99276465177536  0.5006817579269409  0.5699207186698914  1.0000
