data_image0
_chemical_formula_structural       Nb8O
_chemical_formula_sum              "Nb8 O1"
_cell_length_a       5.636652601772087
_cell_length_b       5.644674015145443
_cell_length_c       6.446066379547119
_cell_angle_alpha    112.01755284057916
_cell_angle_beta     108.59433055198426
_cell_angle_gamma    110.78119923972395

_space_group_name_H-M_alt    "P 1"
_space_group_IT_number       1

loop_
  _space_group_symop_operation_xyz
  'x, y, z'

loop_
  _atom_site_type_symbol
  _atom_site_label
  _atom_site_symmetry_multiplicity
  _atom_site_fract_x
  _atom_site_fract_y
  _atom_site_fract_z
  _atom_site_occupancy
  Nb  Nb1       1.0  0.2190212905406952  0.22839359939098358  0.5612198710441589  1.0000
  Nb  Nb2       1.0  0.7180266976356506  0.3096635341644287  0.9647746086120605  1.0000
  Nb  Nb3       1.0  0.21800844371318817  0.6963385343551636  0.8907247185707092  1.0000
  Nb  Nb4       1.0  0.7210577130317688  0.8452686071395874  0.10013099014759064  1.0000
  Nb  Nb5       1.0  0.7195092439651489  0.7260140776634216  0.2143532633781433  1.0000
  Nb  Nb6       1.0  0.2173944413661957  0.4750382006168366  0.2576681077480316  1.0000
  Nb  Nb7       1.0  0.21841037273406982  0.6693412661552429  0.14217831194400787  1.0000
  Nb  Nb8       1.0  0.21865198016166687  0.4644903540611267  0.9703181982040405  1.0000
  O   O1        1.0  0.730922281742096  0.3437342345714569  0.7008572220802307  1.0000
