data_image0
_chemical_formula_structural       K2O3SbVZnZr
_chemical_formula_sum              "K2 O3 Sb1 V1 Zn1 Zr1"
_cell_length_a       5.865078052709344
_cell_length_b       5.738192794410258
_cell_length_c       6.488156795501709
_cell_angle_alpha    63.86392843492956
_cell_angle_beta     72.97588832003588
_cell_angle_gamma    74.96039013562896

_space_group_name_H-M_alt    "P 1"
_space_group_IT_number       1

loop_
  _space_group_symop_operation_xyz
  'x, y, z'

loop_
  _atom_site_type_symbol
  _atom_site_label
  _atom_site_symmetry_multiplicity
  _atom_site_fract_x
  _atom_site_fract_y
  _atom_site_fract_z
  _atom_site_occupancy
  K   K1        1.0  0.40922656655311584  0.10698331147432327  0.13235604763031003  1.0000
  K   K2        1.0  0.6181512475013733  0.4764047861099243  0.8605143427848816  1.0000
  O   O1        1.0  0.9979445338249207  0.895861029624939  0.14643734693527222  1.0000
  O   O2        1.0  0.571806788444519  0.820423424243927  0.5072322487831116  1.0000
  O   O3        1.0  0.4995575547218323  0.7423304319381714  0.9942710995674133  1.0000
  Sb  Sb1       1.0  0.8055844306945801  0.34904876351356506  0.26408424973487854  1.0000
  V   V1        1.0  0.9359616041183472  0.7897823452949524  0.25549674034118647  1.0000
  Zn  Zn1       1.0  0.4251883924007416  0.5633328557014465  0.939342200756073  1.0000
  Zr  Zr1       1.0  0.14468978345394135  0.40029215812683105  0.37567439675331116  1.0000
