data_image0
_chemical_formula_structural       Nb7O2
_chemical_formula_sum              "Nb7 O2"
_cell_length_a       4.186031321424176
_cell_length_b       3.9920784097447166
_cell_length_c       9.580721855163574
_cell_angle_alpha    100.04779249759606
_cell_angle_beta     91.00593319600586
_cell_angle_gamma    86.92304502170495

_space_group_name_H-M_alt    "P 1"
_space_group_IT_number       1

loop_
  _space_group_symop_operation_xyz
  'x, y, z'

loop_
  _atom_site_type_symbol
  _atom_site_label
  _atom_site_symmetry_multiplicity
  _atom_site_fract_x
  _atom_site_fract_y
  _atom_site_fract_z
  _atom_site_occupancy
  Nb  Nb1       1.0  0.47108834981918335  0.27125442028045654  0.07562896609306335  1.0000
  Nb  Nb2       1.0  0.9706788659095764  0.712968111038208  0.4949425458908081  1.0000
  Nb  Nb3       1.0  0.4705105721950531  0.8435436487197876  0.7113043069839478  1.0000
  Nb  Nb4       1.0  0.9712278246879578  0.8706750869750977  0.425302654504776  1.0000
  Nb  Nb5       1.0  0.973417341709137  0.38466688990592957  0.8204736709594727  1.0000
  Nb  Nb6       1.0  0.4696010947227478  0.4899882376194  0.7344350218772888  1.0000
  Nb  Nb7       1.0  0.9719515442848206  0.5772694945335388  0.08484308421611786  1.0000
  O   O1        1.0  0.4989574551582337  0.045172400772571564  0.7949227690696716  1.0000
  O   O2        1.0  0.9181340336799622  0.20412816107273102  0.20356659591197968  1.0000
