data_image0
_chemical_formula_structural       O6PPrZr4
_chemical_formula_sum              "O6 P1 Pr1 Zr4"
_cell_length_a       6.0606102325263205
_cell_length_b       6.190589889546733
_cell_length_c       6.17652702331543
_cell_angle_alpha    64.42564931364124
_cell_angle_beta     62.295020987864845
_cell_angle_gamma    61.119876867886894

_space_group_name_H-M_alt    "P 1"
_space_group_IT_number       1

loop_
  _space_group_symop_operation_xyz
  'x, y, z'

loop_
  _atom_site_type_symbol
  _atom_site_label
  _atom_site_symmetry_multiplicity
  _atom_site_fract_x
  _atom_site_fract_y
  _atom_site_fract_z
  _atom_site_occupancy
  O   O1        1.0  0.5027806758880615  0.35671257972717285  0.2662993371486664  1.0000
  O   O2        1.0  0.3645796775817871  0.8456501960754395  0.67545086145401  1.0000
  O   O3        1.0  0.7166720628738403  0.07467001676559448  0.5485473275184631  1.0000
  O   O4        1.0  0.9853302240371703  0.577705979347229  0.7045457363128662  1.0000
  O   O5        1.0  0.5320129990577698  0.5533013939857483  0.7519809603691101  1.0000
  O   O6        1.0  0.02657857351005077  0.7340611815452576  0.283968985080719  1.0000
  P   P1        1.0  0.4220088422298431  0.9321082830429077  0.5350063443183899  1.0000
  Pr  Pr1       1.0  0.9317609071731566  0.5353535413742065  0.5538932681083679  1.0000
  Zr  Zr1       1.0  0.9172278642654418  0.048249367624521255  0.5104334354400636  1.0000
  Zr  Zr2       1.0  0.38544610142707825  0.4308328628540039  0.8864549398422241  1.0000
  Zr  Zr3       1.0  0.41248381137847895  0.536898672580719  0.4662877023220062  1.0000
  Zr  Zr4       1.0  0.906327724456787  0.586733877658844  0.7440165281295776  1.0000
