data_image0
_chemical_formula_structural       HoO5P4Zr2
_chemical_formula_sum              "Ho1 O5 P4 Zr2"
_cell_length_a       6.033711171420871
_cell_length_b       6.350723505253952
_cell_length_c       6.464062690734863
_cell_angle_alpha    64.57183518278265
_cell_angle_beta     64.16699709144174
_cell_angle_gamma    60.96534434680708

_space_group_name_H-M_alt    "P 1"
_space_group_IT_number       1

loop_
  _space_group_symop_operation_xyz
  'x, y, z'

loop_
  _atom_site_type_symbol
  _atom_site_label
  _atom_site_symmetry_multiplicity
  _atom_site_fract_x
  _atom_site_fract_y
  _atom_site_fract_z
  _atom_site_occupancy
  Ho  Ho1       1.0  0.47481319308280945  0.7983691692352295  0.507806658744812  1.0000
  O   O1        1.0  0.09292638301849365  0.315885454416275  0.7184970378875732  1.0000
  O   O2        1.0  0.7085012197494507  0.14796845614910126  0.7339569330215454  1.0000
  O   O3        1.0  0.5030076503753662  0.47303098440170294  0.6061163544654846  1.0000
  O   O4        1.0  0.5074888467788696  0.8231557607650757  0.22183245420455933  1.0000
  O   O5        1.0  0.17668907344341278  0.7825950980186462  0.9711866974830627  1.0000
  P   P1        1.0  0.1099921464920044  0.07607311755418777  0.1999853104352951  1.0000
  P   P2        1.0  0.16722118854522705  0.28562045097351074  0.5871448516845703  1.0000
  P   P3        1.0  0.36252525448799133  0.6234213709831238  0.2510260343551636  1.0000
  P   P4        1.0  0.8339809775352478  0.0764230489730835  0.07535764575004578  1.0000
  Zr  Zr1       1.0  0.8384718894958496  0.6331332921981812  0.2155585139989853  1.0000
  Zr  Zr2       1.0  0.8506714105606079  0.5779427289962769  0.990227997303009  1.0000
