data_image0
_chemical_formula_structural       H2O6P2Zr2
_chemical_formula_sum              "H2 O6 P2 Zr2"
_cell_length_a       5.321470023096232
_cell_length_b       6.546874878824009
_cell_length_c       6.8874969482421875
_cell_angle_alpha    117.80241569772116
_cell_angle_beta     89.71765509207177
_cell_angle_gamma    91.72717706656746

_space_group_name_H-M_alt    "P 1"
_space_group_IT_number       1

loop_
  _space_group_symop_operation_xyz
  'x, y, z'

loop_
  _atom_site_type_symbol
  _atom_site_label
  _atom_site_symmetry_multiplicity
  _atom_site_fract_x
  _atom_site_fract_y
  _atom_site_fract_z
  _atom_site_occupancy
  H   H1        1.0  0.12069261819124222  0.40638041496276855  0.8446786999702454  1.0000
  H   H2        1.0  0.4239906370639801  0.14063967764377594  0.9628499746322631  1.0000
  O   O1        1.0  0.28612035512924194  0.6124348640441895  0.7668250203132629  1.0000
  O   O2        1.0  0.896149754524231  0.23542676866054535  0.19162562489509583  1.0000
  O   O3        1.0  0.973334789276123  0.5954145789146423  0.14766618609428409  1.0000
  O   O4        1.0  0.6201403737068176  0.833541214466095  0.8738781809806823  1.0000
  O   O5        1.0  0.14121784269809723  0.8499062061309814  0.6891561150550842  1.0000
  O   O6        1.0  0.9347925186157227  0.20592664182186127  0.4518741071224212  1.0000
  P   P1        1.0  0.6490370631217957  0.2938218414783478  0.6963109374046326  1.0000
  P   P2        1.0  0.6392378807067871  0.8369992971420288  0.444458782672882  1.0000
  Zr  Zr1       1.0  0.13598066568374634  0.5467879772186279  0.6272892951965332  1.0000
  Zr  Zr2       1.0  0.6086388826370239  0.09712198376655579  0.9997646808624266  1.0000
