data_image0
_chemical_formula_structural       HO7Zr4
_chemical_formula_sum              "H1 O7 Zr4"
_cell_length_a       4.6317619051485766
_cell_length_b       6.606789470106767
_cell_length_c       6.888835430145264
_cell_angle_alpha    119.52869692691027
_cell_angle_beta     93.58930802707492
_cell_angle_gamma    90.35084167426517

_space_group_name_H-M_alt    "P 1"
_space_group_IT_number       1

loop_
  _space_group_symop_operation_xyz
  'x, y, z'

loop_
  _atom_site_type_symbol
  _atom_site_label
  _atom_site_symmetry_multiplicity
  _atom_site_fract_x
  _atom_site_fract_y
  _atom_site_fract_z
  _atom_site_occupancy
  H   H1        1.0  0.7383990287780762  0.43407428264617914  0.5007684230804443  1.0000
  O   O1        1.0  0.8684436082839966  0.7800164222717284  0.9704957008361816  1.0000
  O   O2        1.0  0.2403460592031479  0.8628855347633361  0.77055424451828  1.0000
  O   O3        1.0  0.6971008777618408  0.8582414984703063  0.8659930229187012  1.0000
  O   O4        1.0  0.3440861403942108  0.1016682982444763  0.35884442925453186  1.0000
  O   O5        1.0  0.24500147998332977  0.19029621779918668  0.05518288537859917  1.0000
  O   O6        1.0  0.8545562028884888  0.35033679008483887  0.5199574828147888  1.0000
  O   O7        1.0  0.41621100902557373  0.5311775207519531  0.7589554786682129  1.0000
  Zr  Zr1       1.0  0.24017184972763062  0.4791457056999206  0.5305746793746948  1.0000
  Zr  Zr2       1.0  0.7323390245437622  0.8846439719200133  0.7450258731842041  1.0000
  Zr  Zr3       1.0  0.7280938029289246  0.6209636926651001  0.11743798851966858  1.0000
  Zr  Zr4       1.0  0.22746582329273224  0.12082331627607344  0.9528972506523132  1.0000
