data_image0
_chemical_formula_structural       HO6P3PrZr
_chemical_formula_sum              "H1 O6 P3 Pr1 Zr1"
_cell_length_a       5.7401277061863585
_cell_length_b       6.2332744524326085
_cell_length_c       6.150320529937744
_cell_angle_alpha    66.59630806339354
_cell_angle_beta     64.47387990867409
_cell_angle_gamma    61.121528171484826

_space_group_name_H-M_alt    "P 1"
_space_group_IT_number       1

loop_
  _space_group_symop_operation_xyz
  'x, y, z'

loop_
  _atom_site_type_symbol
  _atom_site_label
  _atom_site_symmetry_multiplicity
  _atom_site_fract_x
  _atom_site_fract_y
  _atom_site_fract_z
  _atom_site_occupancy
  H   H1        1.0  0.2278657704591751  0.644138753414154  0.10163530707359314  1.0000
  O   O1        1.0  0.4093444347381592  0.9452186226844788  0.41798320412635803  1.0000
  O   O2        1.0  0.5066177845001221  0.23405537009239197  0.262090802192688  1.0000
  O   O3        1.0  0.435828298330307  0.3586699068546295  0.7936840057373047  1.0000
  O   O4        1.0  0.9496299624443054  0.5090956091880798  0.17489896714687347  1.0000
  O   O5        1.0  0.16903232038021088  0.8294520378112793  0.961721658706665  1.0000
  O   O6        1.0  0.6789599061012268  0.8454608917236328  0.5416774153709412  1.0000
  P   P1        1.0  0.7239320874214172  0.5142368078231812  0.06617376953363419  1.0000
  P   P2        1.0  0.7227877378463745  0.5178759694099426  0.3843882083892822  1.0000
  P   P3        1.0  0.2209089696407318  0.9559270739555359  0.5871791243553162  1.0000
  Pr  Pr1       1.0  0.79583340883255  0.1493893563747406  0.7603667378425598  1.0000
  Zr  Zr1       1.0  0.21685798466205597  0.28307151794433594  0.2798967659473419  1.0000
