data_image0
_chemical_formula_structural       O6P2Zr4
_chemical_formula_sum              "O6 P2 Zr4"
_cell_length_a       4.4550199920514615
_cell_length_b       6.982196038052974
_cell_length_c       7.251186370849609
_cell_angle_alpha    120.0964926047559
_cell_angle_beta     90.88403897875294
_cell_angle_gamma    90.1475269056424

_space_group_name_H-M_alt    "P 1"
_space_group_IT_number       1

loop_
  _space_group_symop_operation_xyz
  'x, y, z'

loop_
  _atom_site_type_symbol
  _atom_site_label
  _atom_site_symmetry_multiplicity
  _atom_site_fract_x
  _atom_site_fract_y
  _atom_site_fract_z
  _atom_site_occupancy
  O   O1        1.0  0.36998024582862854  0.13763223588466644  0.637462556362152  1.0000
  O   O2        1.0  0.8475974798202515  0.3950341045856476  0.32759872078895563  1.0000
  O   O3        1.0  0.3856642246246338  0.9060544371604919  0.07242340594530104  1.0000
  O   O4        1.0  0.39092186093330383  0.9252052903175354  0.1274300515651702  1.0000
  O   O5        1.0  0.39204517006874084  0.6039365530014038  0.10155626386404036  1.0000
  O   O6        1.0  0.8841037750244141  0.6738958954811096  0.8432347774505614  1.0000
  P   P1        1.0  0.3783077001571655  0.42281684279441833  0.5294584035873413  1.0000
  P   P2        1.0  0.37854549288749695  0.9156054258346558  0.17331364750862113  1.0000
  Zr  Zr1       1.0  0.8834371566772461  0.9577652215957642  0.8638773560523986  1.0000
  Zr  Zr2       1.0  0.8594558238983154  0.4301207661628723  0.15770974755287168  1.0000
  Zr  Zr3       1.0  0.8788685202598572  0.2684849798679352  0.648922026157379  1.0000
  Zr  Zr4       1.0  0.8804469108581543  0.6797261238098145  0.5407755970954894  1.0000
