data_image0
_chemical_formula_structural       FeMn5YZn3
_chemical_formula_sum              "Fe1 Mn5 Y1 Zn3"
_cell_length_a       5.4069393372966825
_cell_length_b       5.80813950758157
_cell_length_c       6.458445072174072
_cell_angle_alpha    67.90465780406227
_cell_angle_beta     64.04327233049949
_cell_angle_gamma    63.114157894679124

_space_group_name_H-M_alt    "P 1"
_space_group_IT_number       1

loop_
  _space_group_symop_operation_xyz
  'x, y, z'

loop_
  _atom_site_type_symbol
  _atom_site_label
  _atom_site_symmetry_multiplicity
  _atom_site_fract_x
  _atom_site_fract_y
  _atom_site_fract_z
  _atom_site_occupancy
  Fe  Fe1       1.0  0.6926833391189575  0.8807466626167297  0.3481352627277375  1.0000
  Mn  Mn1       1.0  0.5148148536682129  0.06985674053430557  0.8540093302726747  1.0000
  Mn  Mn2       1.0  0.8873220682144165  0.5618584156036377  0.021226625889539722  1.0000
  Mn  Mn3       1.0  0.21355096995830536  0.8783690929412842  0.3911259472370148  1.0000
  Mn  Mn4       1.0  0.9022589921951294  0.04588646814227104  0.011342802084982397  1.0000
  Mn  Mn5       1.0  0.3116307854652405  0.5595365762710571  0.44899880886077886  1.0000
  Y   Y1        1.0  0.8825554251670837  0.550654947757721  0.025765795260667804  1.0000
  Zn  Zn1       1.0  0.2542699873447418  0.21944797039031982  0.7332301735877992  1.0000
  Zn  Zn2       1.0  0.8750560283660889  0.038420990109443665  0.7521663904190065  1.0000
  Zn  Zn3       1.0  0.2765885889530182  0.3369218707084656  0.9835051298141481  1.0000
