data_image0
_chemical_formula_structural       Mn6YZn3
_chemical_formula_sum              "Mn6 Y1 Zn3"
_cell_length_a       6.061772158393465
_cell_length_b       6.061739100149065
_cell_length_c       6.325328350067139
_cell_angle_alpha    107.62795677628075
_cell_angle_beta     109.16420613124131
_cell_angle_gamma    109.85932291601421

_space_group_name_H-M_alt    "P 1"
_space_group_IT_number       1

loop_
  _space_group_symop_operation_xyz
  'x, y, z'

loop_
  _atom_site_type_symbol
  _atom_site_label
  _atom_site_symmetry_multiplicity
  _atom_site_fract_x
  _atom_site_fract_y
  _atom_site_fract_z
  _atom_site_occupancy
  Mn  Mn1       1.0  0.5798090696334839  0.24690310657024384  0.7926992774009705  1.0000
  Mn  Mn2       1.0  0.9282515645027161  0.8856821656227112  0.5814494490623474  1.0000
  Mn  Mn3       1.0  0.5590941309928894  0.8746533393859863  0.08739171177148819  1.0000
  Mn  Mn4       1.0  0.21808591485023499  0.7637048363685608  0.020105144008994137  1.0000
  Mn  Mn5       1.0  0.09579458832740784  0.24795031547546387  0.18621373176574707  1.0000
  Mn  Mn6       1.0  0.8981945514678955  0.4055447280406952  0.46606120467185974  1.0000
  Y   Y1        1.0  0.9884283542633057  0.7736128568649292  0.7303246855735779  1.0000
  Zn  Zn1       1.0  0.7953394651412964  0.5352495908737183  0.9515036940574646  1.0000
  Zn  Zn2       1.0  0.33510494232177734  0.5287964344024658  0.28690144419670105  1.0000
  Zn  Zn3       1.0  0.28667038679122925  0.1419457644224167  0.5751487612724304  1.0000
