data_image0
_chemical_formula_structural       AgCdMn6N2
_chemical_formula_sum              "Ag1 Cd1 Mn6 N2"
_cell_length_a       5.727034543145302
_cell_length_b       6.0124078667068295
_cell_length_c       6.0762715339660645
_cell_angle_alpha    59.76373858561234
_cell_angle_beta     60.98973163389695
_cell_angle_gamma    54.480860587231135

_space_group_name_H-M_alt    "P 1"
_space_group_IT_number       1

loop_
  _space_group_symop_operation_xyz
  'x, y, z'

loop_
  _atom_site_type_symbol
  _atom_site_label
  _atom_site_symmetry_multiplicity
  _atom_site_fract_x
  _atom_site_fract_y
  _atom_site_fract_z
  _atom_site_occupancy
  Ag  Ag1       1.0  0.09869305789470673  0.23246364295482635  0.4565038979053497  1.0000
  Cd  Cd1       1.0  0.26358985900878906  0.4008598029613495  0.08518529683351517  1.0000
  Mn  Mn1       1.0  0.6453613042831421  0.7375229001045227  0.1350172460079193  1.0000
  Mn  Mn2       1.0  0.5280225276947021  0.14706231653690338  0.4425492584705352  1.0000
  Mn  Mn3       1.0  0.044540803879499435  0.1321917474269867  0.9462376236915587  1.0000
  Mn  Mn4       1.0  0.24089974164962769  0.7508488297462463  0.12687429785728455  1.0000
  Mn  Mn5       1.0  0.050304949283599854  0.3474925756454468  0.4536308050155639  1.0000
  Mn  Mn6       1.0  0.11661509424448013  0.7580302357673645  0.18239971995353696  1.0000
  N   N1        1.0  0.8521490097045898  0.9157448410987854  0.5426673889160156  1.0000
  N   N2        1.0  0.6604978442192078  0.73600172996521  0.6638454794883728  1.0000
