data_image0
_chemical_formula_structural       Mn8N2
_chemical_formula_sum              "Mn8 N2"
_cell_length_a       5.4766803182457835
_cell_length_b       5.685009170307797
_cell_length_c       6.137474060058594
_cell_angle_alpha    64.31625491970483
_cell_angle_beta     62.3915795134011
_cell_angle_gamma    60.557573111094555

_space_group_name_H-M_alt    "P 1"
_space_group_IT_number       1

loop_
  _space_group_symop_operation_xyz
  'x, y, z'

loop_
  _atom_site_type_symbol
  _atom_site_label
  _atom_site_symmetry_multiplicity
  _atom_site_fract_x
  _atom_site_fract_y
  _atom_site_fract_z
  _atom_site_occupancy
  Mn  Mn1       1.0  0.8264164328575134  0.3705347776412964  0.7310246229171753  1.0000
  Mn  Mn2       1.0  0.4912632703781128  0.3666961193084717  0.15472911298274994  1.0000
  Mn  Mn3       1.0  0.28900304436683655  0.9385712742805481  0.7355403304100037  1.0000
  Mn  Mn4       1.0  0.08558151870965958  0.7966517806053162  0.9993783235549927  1.0000
  Mn  Mn5       1.0  0.4211433529853821  0.37781551480293274  0.628506600856781  1.0000
  Mn  Mn6       1.0  0.9144512414932251  0.9165310263633728  0.4815620183944702  1.0000
  Mn  Mn7       1.0  0.6642702221870422  0.7648985981941223  0.8494869470596313  1.0000
  Mn  Mn8       1.0  0.5201387405395508  0.3895404040813446  0.47148415446281433  1.0000
  N   N1        1.0  0.012523137964308262  0.3798714280128479  0.1507318317890167  1.0000
  N   N2        1.0  0.7238468527793884  0.9060628414154053  0.9865573048591614  1.0000
