data_image0
_chemical_formula_structural       Mn6SiZn3
_chemical_formula_sum              "Mn6 Si1 Zn3"
_cell_length_a       4.979214066090814
_cell_length_b       5.911684326192793
_cell_length_c       6.369807720184326
_cell_angle_alpha    74.9460108729619
_cell_angle_beta     64.95167016695568
_cell_angle_gamma    64.90178359994053

_space_group_name_H-M_alt    "P 1"
_space_group_IT_number       1

loop_
  _space_group_symop_operation_xyz
  'x, y, z'

loop_
  _atom_site_type_symbol
  _atom_site_label
  _atom_site_symmetry_multiplicity
  _atom_site_fract_x
  _atom_site_fract_y
  _atom_site_fract_z
  _atom_site_occupancy
  Mn  Mn1       1.0  0.20171493291854853  0.9749382138252259  0.36157846450805664  1.0000
  Mn  Mn2       1.0  0.5930830836296082  0.6384384632110596  0.7535449862480164  1.0000
  Mn  Mn3       1.0  0.569534182548523  0.6388906240463257  0.8052111268043518  1.0000
  Mn  Mn4       1.0  0.0668773353099823  0.6391132473945618  0.5599819421768188  1.0000
  Mn  Mn5       1.0  0.5651524066925049  0.1659797728061676  0.031233249232172966  1.0000
  Mn  Mn6       1.0  0.04403740167617798  0.17113655805587769  0.6694759130477905  1.0000
  Si  Si1       1.0  0.3080528378486633  0.491762787103653  0.5894467234611511  1.0000
  Zn  Zn1       1.0  0.46610844135284424  0.7667932510375977  0.28536874055862427  1.0000
  Zn  Zn2       1.0  0.46908530592918396  0.16056674718856812  0.48952484130859375  1.0000
  Zn  Zn3       1.0  0.9590005874633789  0.17428384721279144  0.14118583500385284  1.0000
