data_image0
_chemical_formula_structural       Mn6Ni2Zn2
_chemical_formula_sum              "Mn6 Ni2 Zn2"
_cell_length_a       5.595561257754708
_cell_length_b       5.846999779236645
_cell_length_c       6.038934230804443
_cell_angle_alpha    61.617278434749025
_cell_angle_beta     61.263659213817036
_cell_angle_gamma    62.909434427931245

_space_group_name_H-M_alt    "P 1"
_space_group_IT_number       1

loop_
  _space_group_symop_operation_xyz
  'x, y, z'

loop_
  _atom_site_type_symbol
  _atom_site_label
  _atom_site_symmetry_multiplicity
  _atom_site_fract_x
  _atom_site_fract_y
  _atom_site_fract_z
  _atom_site_occupancy
  Mn  Mn1       1.0  0.5911968350410461  0.04485365375876427  0.6011604070663452  1.0000
  Mn  Mn2       1.0  0.6088854074478149  0.599317193031311  0.8870798349380493  1.0000
  Mn  Mn3       1.0  0.9004688858985901  0.7062413692474365  0.4559270739555359  1.0000
  Mn  Mn4       1.0  0.26499277353286743  0.29474127292633057  0.5195955634117126  1.0000
  Mn  Mn5       1.0  0.2451731413602829  0.9583227038383484  0.20706120133399963  1.0000
  Mn  Mn6       1.0  0.07335585355758667  0.2775228023529053  0.16552457213401794  1.0000
  Ni  Ni1       1.0  0.01947932131588459  0.56357741355896  0.4498568475246429  1.0000
  Ni  Ni2       1.0  0.29935339093208313  0.7501780986785889  0.34880971908569336  1.0000
  Zn  Zn1       1.0  0.37989506125450134  0.6307478547096252  0.021849917247891426  1.0000
  Zn  Zn2       1.0  0.8217380046844482  0.09801527857780457  0.781114399433136  1.0000
