data_image0
_chemical_formula_structural       BLaNd2OSSc2Si2
_chemical_formula_sum              "B1 La1 Nd2 O1 S1 Sc2 Si2"
_cell_length_a       5.055644674652037
_cell_length_b       6.903549431668382
_cell_length_c       8.00002670288086
_cell_angle_alpha    114.70232054235534
_cell_angle_beta     102.29030766856552
_cell_angle_gamma    89.09309943790694

_space_group_name_H-M_alt    "P 1"
_space_group_IT_number       1

loop_
  _space_group_symop_operation_xyz
  'x, y, z'

loop_
  _atom_site_type_symbol
  _atom_site_label
  _atom_site_symmetry_multiplicity
  _atom_site_fract_x
  _atom_site_fract_y
  _atom_site_fract_z
  _atom_site_occupancy
  B   B1        1.0  0.2385777235031128  0.06279226392507553  0.9297088384628296  1.0000
  La  La1       1.0  0.9969001412391663  0.2445754110813141  0.24876722693443298  1.0000
  Nd  Nd1       1.0  0.7397950291633606  0.6917783617973328  0.9639286398887634  1.0000
  Nd  Nd2       1.0  0.21635083854198456  0.5183768272399902  0.8892850875854492  1.0000
  O   O1        1.0  0.8224523663520813  0.12046177685260773  0.622675895690918  1.0000
  S   S1        1.0  0.5175186395645142  0.32855314016342163  0.3766596019268036  1.0000
  Sc  Sc1       1.0  0.747253954410553  0.07885904610157013  0.8747793436050415  1.0000
  Sc  Sc2       1.0  0.2356928586959839  0.07676467299461365  0.8022558689117432  1.0000
  Si  Si1       1.0  0.9271318316459656  0.02244679071009159  0.43067237734794617  1.0000
  Si  Si2       1.0  0.5111377835273743  0.7314653396606445  0.2867913842201233  1.0000
