data_image0
_chemical_formula_structural       Nd3O2SSc2SiZn
_chemical_formula_sum              "Nd3 O2 S1 Sc2 Si1 Zn1"
_cell_length_a       5.182358599392746
_cell_length_b       6.735897145098017
_cell_length_c       7.456585884094238
_cell_angle_alpha    117.30788565109916
_cell_angle_beta     105.90680768113798
_cell_angle_gamma    90.1487982754777

_space_group_name_H-M_alt    "P 1"
_space_group_IT_number       1

loop_
  _space_group_symop_operation_xyz
  'x, y, z'

loop_
  _atom_site_type_symbol
  _atom_site_label
  _atom_site_symmetry_multiplicity
  _atom_site_fract_x
  _atom_site_fract_y
  _atom_site_fract_z
  _atom_site_occupancy
  Nd  Nd1       1.0  0.7361752986907959  0.1883484274148941  0.04983503744006157  1.0000
  Nd  Nd2       1.0  0.2518792450428009  0.059264544397592545  0.1234862729907036  1.0000
  Nd  Nd3       1.0  0.7280656099319458  0.5970799922943115  0.8948189020156861  1.0000
  O   O1        1.0  0.18285256624221802  0.4835467040538788  0.108345203101635  1.0000
  O   O2        1.0  0.33432623744010925  0.9770389199256897  0.5969840884208679  1.0000
  S   S1        1.0  0.18624846637248993  0.17866073548793793  0.10672405362129213  1.0000
  Sc  Sc1       1.0  0.2452035546302795  0.5793748497962952  0.8840293884277345  1.0000
  Sc  Sc2       1.0  0.7302991151809692  0.8435369729995728  0.8243671059608461  1.0000
  Si  Si1       1.0  0.23283229768276215  0.9144421219825745  0.13728952407836914  1.0000
  Zn  Zn1       1.0  0.464474081993103  0.337024450302124  0.5978934168815613  1.0000
