data_image0
_chemical_formula_structural       Nd2O2SSc3Si2
_chemical_formula_sum              "Nd2 O2 S1 Sc3 Si2"
_cell_length_a       5.092264988130274
_cell_length_b       6.073831713201617
_cell_length_c       7.200948238372803
_cell_angle_alpha    114.22208295552974
_cell_angle_beta     107.43984915777982
_cell_angle_gamma    89.3407139688265

_space_group_name_H-M_alt    "P 1"
_space_group_IT_number       1

loop_
  _space_group_symop_operation_xyz
  'x, y, z'

loop_
  _atom_site_type_symbol
  _atom_site_label
  _atom_site_symmetry_multiplicity
  _atom_site_fract_x
  _atom_site_fract_y
  _atom_site_fract_z
  _atom_site_occupancy
  Nd  Nd1       1.0  0.5854356288909912  0.4732030928134919  0.7166682481765747  1.0000
  Nd  Nd2       1.0  0.5399253964424133  0.10634199529886246  0.7129181623458862  1.0000
  O   O1        1.0  0.16390463709831238  0.3654598593711853  0.22091610729694366  1.0000
  O   O2        1.0  0.08279694616794586  0.0023957565426826477  0.48480623960494995  1.0000
  S   S1        1.0  0.6214955449104309  0.7389016151428223  0.47827574610710144  1.0000
  Sc  Sc1       1.0  0.9781405925750734  0.37983810901641846  0.9725286364555359  1.0000
  Sc  Sc2       1.0  0.5408653020858765  0.3814525008201599  0.9696246981620789  1.0000
  Sc  Sc3       1.0  0.02189856395125389  0.06134327873587609  0.7091415524482727  1.0000
  Si  Si1       1.0  0.21549011766910553  0.8659496307373047  0.10151844471693044  1.0000
  Si  Si2       1.0  0.2997712790966034  0.01770058460533619  0.48209628462791443  1.0000
