data_image0
_chemical_formula_structural       Nd4OOs2Sc3
_chemical_formula_sum              "Nd4 O1 Os2 Sc3"
_cell_length_a       5.782294071469476
_cell_length_b       6.345914793377266
_cell_length_c       7.054949760437012
_cell_angle_alpha    117.24153353807814
_cell_angle_beta     108.36284438723375
_cell_angle_gamma    93.84720710759825

_space_group_name_H-M_alt    "P 1"
_space_group_IT_number       1

loop_
  _space_group_symop_operation_xyz
  'x, y, z'

loop_
  _atom_site_type_symbol
  _atom_site_label
  _atom_site_symmetry_multiplicity
  _atom_site_fract_x
  _atom_site_fract_y
  _atom_site_fract_z
  _atom_site_occupancy
  Nd  Nd1       1.0  0.2964627146720886  0.375415176153183  0.7566866278648376  1.0000
  Nd  Nd2       1.0  0.050827641040086746  0.18918722867965698  0.2971704602241516  1.0000
  Nd  Nd3       1.0  0.06084974855184555  0.10765104740858077  0.2531716227531433  1.0000
  Nd  Nd4       1.0  0.7873244285583496  0.7987878918647766  0.02061736024916172  1.0000
  O   O1        1.0  0.07897009700536728  0.7887678146362305  0.2782074511051178  1.0000
  Os  Os1       1.0  0.49164941906929016  0.781428337097168  0.2771381437778473  1.0000
  Os  Os2       1.0  0.0524020791053772  0.31869131326675415  0.4023012220859528  1.0000
  Sc  Sc1       1.0  0.7939993739128113  0.43785282969474787  0.041209667921066284  1.0000
  Sc  Sc2       1.0  0.5280701518058777  0.0048275780864059925  0.5063338279724122  1.0000
  Sc  Sc3       1.0  0.5563855767250061  0.6658114194869995  0.7210708856582642  1.0000
