data_image0
_chemical_formula_structural       CeGeNd3O3Sc2
_chemical_formula_sum              "Ce1 Ge1 Nd3 O3 Sc2"
_cell_length_a       4.747821316593493
_cell_length_b       5.4871910734642695
_cell_length_c       6.024003028869629
_cell_angle_alpha    141.7072590981987
_cell_angle_beta     97.1534240232513
_cell_angle_gamma    86.92003932851894

_space_group_name_H-M_alt    "P 1"
_space_group_IT_number       1

loop_
  _space_group_symop_operation_xyz
  'x, y, z'

loop_
  _atom_site_type_symbol
  _atom_site_label
  _atom_site_symmetry_multiplicity
  _atom_site_fract_x
  _atom_site_fract_y
  _atom_site_fract_z
  _atom_site_occupancy
  Ce  Ce1       1.0  0.9257153868675232  0.31748700141906755  0.914976716041565  1.0000
  Ge  Ge1       1.0  0.4301658570766449  0.0773335024714468  0.899438440799713  1.0000
  Nd  Nd1       1.0  0.9467496871948242  0.7586392760276793  0.8234818577766418  1.0000
  Nd  Nd2       1.0  0.9786463975906372  0.765012264251709  0.156909540295601  1.0000
  Nd  Nd3       1.0  0.4508531391620636  0.4458129703998565  0.6288601756095886  1.0000
  O   O1        1.0  0.46703797578811646  0.3984659612178803  0.29252192378044134  1.0000
  O   O2        1.0  0.48932212591171265  0.45178127288818354  0.7084672451019287  1.0000
  O   O3        1.0  0.45282885432243347  0.1327087879180908  0.1962459683418274  1.0000
  Sc  Sc1       1.0  0.4347846210002899  0.0738713815808296  0.579032838344574  1.0000
  Sc  Sc2       1.0  0.9497455358505249  0.48868599534034735  0.2930596470832825  1.0000
