data_image0
_chemical_formula_structural       NdOSSc4Si3
_chemical_formula_sum              "Nd1 O1 S1 Sc4 Si3"
_cell_length_a       5.880616273779939
_cell_length_b       6.5479623982504584
_cell_length_c       7.495814323425293
_cell_angle_alpha    108.04190971796794
_cell_angle_beta     99.93256968370454
_cell_angle_gamma    105.23995043721361

_space_group_name_H-M_alt    "P 1"
_space_group_IT_number       1

loop_
  _space_group_symop_operation_xyz
  'x, y, z'

loop_
  _atom_site_type_symbol
  _atom_site_label
  _atom_site_symmetry_multiplicity
  _atom_site_fract_x
  _atom_site_fract_y
  _atom_site_fract_z
  _atom_site_occupancy
  Nd  Nd1       1.0  0.663533091545105  0.38131311535835266  0.057720620185136795  1.0000
  O   O1        1.0  0.6491861939430237  0.901963710784912  0.7516100406646729  1.0000
  S   S1        1.0  0.37672552466392517  0.6826329827308655  0.3070516884326935  1.0000
  Sc  Sc1       1.0  0.42510637640953064  0.8503262996673584  0.07194454222917557  1.0000
  Sc  Sc2       1.0  0.6901403665542603  0.13708779215812683  0.5739895105361938  1.0000
  Sc  Sc3       1.0  0.0031777326948940754  0.7080565690994263  0.09692760556936264  1.0000
  Sc  Sc4       1.0  0.1114974394440651  0.8729168772697449  0.10755134373903272  1.0000
  Si  Si1       1.0  0.08895078301429749  0.07277603447437286  0.8615261316299438  1.0000
  Si  Si2       1.0  0.8261740803718567  0.39092501997947693  0.08531884849071503  1.0000
  Si  Si3       1.0  0.22398006916046143  0.38417086005210876  0.7854650020599365  1.0000
