data_image0
_chemical_formula_structural       Os3Sb2Y3
_chemical_formula_sum              "Os3 Sb2 Y3"
_cell_length_a       4.2954679507465094
_cell_length_b       5.549102049693944
_cell_length_c       8.168159484863281
_cell_angle_alpha    78.31120557100434
_cell_angle_beta     75.0392329248579
_cell_angle_gamma    67.1534765961951

_space_group_name_H-M_alt    "P 1"
_space_group_IT_number       1

loop_
  _space_group_symop_operation_xyz
  'x, y, z'

loop_
  _atom_site_type_symbol
  _atom_site_label
  _atom_site_symmetry_multiplicity
  _atom_site_fract_x
  _atom_site_fract_y
  _atom_site_fract_z
  _atom_site_occupancy
  Os  Os1       1.0  0.8962229490280151  0.16174127161502838  0.20721545815467834  1.0000
  Os  Os2       1.0  0.6732936501502991  0.24633078277111053  0.5737825036048889  1.0000
  Os  Os3       1.0  0.6643932461738586  0.7275497913360596  0.0741223692893982  1.0000
  Sb  Sb1       1.0  0.931915819644928  0.5168522596359253  0.7360281348228455  1.0000
  Sb  Sb2       1.0  0.4066009223461151  0.9783710241317749  0.40162795782089233  1.0000
  Y   Y1        1.0  0.14416024088859558  0.572517991065979  0.34238165616989136  1.0000
  Y   Y2        1.0  0.20165421068668365  0.9040105938911438  0.8004907965660095  1.0000
  Y   Y3        1.0  0.44359466433525085  0.2704765498638153  0.9830556511878967  1.0000
