data_image0
_chemical_formula_structural       GeH2NOsPrSbY
_chemical_formula_sum              "Ge1 H2 N1 Os1 Pr1 Sb1 Y1"
_cell_length_a       5.493110761186867
_cell_length_b       5.50806596067272
_cell_length_c       5.510916709899902
_cell_angle_alpha    100.0370056239433
_cell_angle_beta     99.75089965005682
_cell_angle_gamma    99.40917950574145

_space_group_name_H-M_alt    "P 1"
_space_group_IT_number       1

loop_
  _space_group_symop_operation_xyz
  'x, y, z'

loop_
  _atom_site_type_symbol
  _atom_site_label
  _atom_site_symmetry_multiplicity
  _atom_site_fract_x
  _atom_site_fract_y
  _atom_site_fract_z
  _atom_site_occupancy
  Ge  Ge1       1.0  0.5683026313781738  0.8251725435256958  0.7973518967628479  1.0000
  H   H1        1.0  0.1869826763868332  0.6570557355880737  0.05341982841491699  1.0000
  H   H2        1.0  0.8326684236526489  0.3778419494628906  0.08414208889007568  1.0000
  N   N1        1.0  0.7504168748855591  0.47491952776908875  0.17886385321617124  1.0000
  Os  Os1       1.0  0.8879925608634949  0.7726504802703857  0.10799387097358702  1.0000
  Pr  Pr1       1.0  0.3437679409980774  0.25408801436424255  0.05181538686156272  1.0000
  Sb  Sb1       1.0  0.13555559515953064  0.10782966017723083  0.4816475212574005  1.0000
  Y   Y1        1.0  0.9682965278625488  0.588322103023529  0.605984628200531  1.0000
