data_image0
_chemical_formula_structural       CoDyGeH2IKLiO3
_chemical_formula_sum              "Co1 Dy1 Ge1 H2 I1 K1 Li1 O3"
_cell_length_a       5.488177589991481
_cell_length_b       5.779903963918749
_cell_length_c       7.877174377441406
_cell_angle_alpha    90.09131942369717
_cell_angle_beta     90.73407030295479
_cell_angle_gamma    105.97260549768001

_space_group_name_H-M_alt    "P 1"
_space_group_IT_number       1

loop_
  _space_group_symop_operation_xyz
  'x, y, z'

loop_
  _atom_site_type_symbol
  _atom_site_label
  _atom_site_symmetry_multiplicity
  _atom_site_fract_x
  _atom_site_fract_y
  _atom_site_fract_z
  _atom_site_occupancy
  Co  Co1       1.0  0.011160394176840782  0.1828404664993286  0.018904700875282288  1.0000
  Dy  Dy1       1.0  0.6026737093925476  0.5368940830230713  0.3686914443969727  1.0000
  Ge  Ge1       1.0  0.5065118670463562  0.9915679693222046  0.6332707405090332  1.0000
  H   H1        1.0  0.14967641234397888  0.9754869937896729  0.2738159000873566  1.0000
  H   H2        1.0  0.5230451822280884  0.011627212166786194  0.7473787665367128  1.0000
  I   I1        1.0  0.04717928543686867  0.24606266617774963  0.9488707184791566  1.0000
  K   K1        1.0  0.5157852172851562  0.34539803862571716  0.014724755659699442  1.0000
  Li  Li1       1.0  0.9861060976982117  0.01762228086590767  0.29554319381713867  1.0000
  O   O1        1.0  0.7322759628295898  0.11441370844841003  0.7143236994743348  1.0000
  O   O2        1.0  0.008851875551044941  0.8162068128585815  0.05977060645818711  1.0000
  O   O3        1.0  0.5131453275680542  0.5779151320457458  0.8947630524635316  1.0000
