data_image0
_chemical_formula_structural       CoFGeH2ILaLiO2Tb
_chemical_formula_sum              "Co1 F1 Ge1 H2 I1 La1 Li1 O2 Tb1"
_cell_length_a       5.720234430714929
_cell_length_b       4.831274207677525
_cell_length_c       7.080104351043701
_cell_angle_alpha    119.14587085612392
_cell_angle_beta     96.76760847324746
_cell_angle_gamma    118.93653185270757

_space_group_name_H-M_alt    "P 1"
_space_group_IT_number       1

loop_
  _space_group_symop_operation_xyz
  'x, y, z'

loop_
  _atom_site_type_symbol
  _atom_site_label
  _atom_site_symmetry_multiplicity
  _atom_site_fract_x
  _atom_site_fract_y
  _atom_site_fract_z
  _atom_site_occupancy
  Co  Co1       1.0  0.159674733877182  0.7933914065361023  0.8431113958358764  1.0000
  F   F1        1.0  0.4546309709548951  0.6594808101654053  0.28415071964263916  1.0000
  Ge  Ge1       1.0  0.7813122272491455  0.16900396347045898  0.7585370540618895  1.0000
  H   H1        1.0  0.26995614171028137  0.5311183333396912  0.956206977367401  1.0000
  H   H2        1.0  0.809589684009552  0.10739500820636749  0.3529869318008423  1.0000
  I   I1        1.0  0.3217127025127411  0.5917825698852539  0.6200703382492065  1.0000
  La  La1       1.0  0.8058278560638428  0.8701396584510803  0.20971292257308957  1.0000
  Li  Li1       1.0  0.8005514740943909  0.9393342137336731  0.4672838449478149  1.0000
  O   O1        1.0  0.2936744689941406  0.35099729895591736  0.7425233721733092  1.0000
  O   O2        1.0  0.8317354917526245  0.1865805834531784  0.07510997354984283  1.0000
  Tb  Tb1       1.0  0.45116752386093145  0.6858798861503601  0.7056041359901428  1.0000
