data_image0
_chemical_formula_structural       FGe2H5O3
_chemical_formula_sum              "F1 Ge2 H5 O3"
_cell_length_a       5.526430793869509
_cell_length_b       5.822200785715115
_cell_length_c       6.4348015785217285
_cell_angle_alpha    99.30445548492737
_cell_angle_beta     93.92338723148052
_cell_angle_gamma    91.23450873483407

_space_group_name_H-M_alt    "P 1"
_space_group_IT_number       1

loop_
  _space_group_symop_operation_xyz
  'x, y, z'

loop_
  _atom_site_type_symbol
  _atom_site_label
  _atom_site_symmetry_multiplicity
  _atom_site_fract_x
  _atom_site_fract_y
  _atom_site_fract_z
  _atom_site_occupancy
  F   F1        1.0  0.5189433097839355  0.7564250230789185  0.9022185802459716  1.0000
  Ge  Ge1       1.0  0.02321496419608593  0.4096009433269501  0.37877225875854487  1.0000
  Ge  Ge2       1.0  0.07267346233129501  0.4277031421661377  0.08321079611778259  1.0000
  H   H1        1.0  0.07667889446020126  0.4933283627033233  0.5459362268447876  1.0000
  H   H2        1.0  0.5366482734680176  0.04246955364942551  0.5103614926338196  1.0000
  H   H3        1.0  0.972939670085907  0.6496310830116272  0.5577676892280579  1.0000
  H   H4        1.0  0.5111478567123413  0.4046365022659302  0.07199448347091675  1.0000
  H   H5        1.0  0.5951897501945496  0.7636746168136597  0.7475416064262389  1.0000
  O   O1        1.0  0.013653263449668884  0.23395961523056027  0.9303535819053649  1.0000
  O   O2        1.0  0.02888692542910576  0.37873944640159607  0.7153417468070983  1.0000
  O   O3        1.0  0.30837753415107727  0.84038245677948  0.7686704397201537  1.0000
