data_image0
_chemical_formula_structural       CGa2H2IKO3U
_chemical_formula_sum              "C1 Ga2 H2 I1 K1 O3 U1"
_cell_length_a       5.8221378979518645
_cell_length_b       7.752133588726623
_cell_length_c       8.344857215881348
_cell_angle_alpha    121.20343807079134
_cell_angle_beta     90.4770052619413
_cell_angle_gamma    89.97171368296226

_space_group_name_H-M_alt    "P 1"
_space_group_IT_number       1

loop_
  _space_group_symop_operation_xyz
  'x, y, z'

loop_
  _atom_site_type_symbol
  _atom_site_label
  _atom_site_symmetry_multiplicity
  _atom_site_fract_x
  _atom_site_fract_y
  _atom_site_fract_z
  _atom_site_occupancy
  C   C1        1.0  0.9099884033203125  0.6821263432502747  0.39100226759910583  1.0000
  Ga  Ga1       1.0  0.41735368967056274  0.8276389837265015  0.8866387009620667  1.0000
  Ga  Ga2       1.0  0.9357976913452148  0.7268630862236023  0.5378234386444092  1.0000
  H   H1        1.0  0.38232430815696716  0.49902480840682983  0.664185643196106  1.0000
  H   H2        1.0  0.4143756926059723  0.9985972046852112  0.847659170627594  1.0000
  I   I1        1.0  0.9100485444068909  0.6035394072532654  0.8441076278686523  1.0000
  K   K1        1.0  0.9094820022583008  0.5365223288536072  0.9780088663101196  1.0000
  O   O1        1.0  0.376003235578537  0.9551443457603455  0.16220533847808843  1.0000
  O   O2        1.0  0.9042092561721802  0.8916072845458984  0.5097928047180176  1.0000
  O   O3        1.0  0.4124714136123657  0.9987815618515015  0.21377398073673248  1.0000
  U   U1        1.0  0.40642738342285156  0.8549158573150635  0.0037614298053086337  1.0000
