data_image0
_chemical_formula_structural       H4K2O5
_chemical_formula_sum              "H4 K2 O5"
_cell_length_a       5.040539882785123
_cell_length_b       6.116995595407562
_cell_length_c       6.838412761688232
_cell_angle_alpha    118.17087570469846
_cell_angle_beta     89.70270926002723
_cell_angle_gamma    100.0687601478789

_space_group_name_H-M_alt    "P 1"
_space_group_IT_number       1

loop_
  _space_group_symop_operation_xyz
  'x, y, z'

loop_
  _atom_site_type_symbol
  _atom_site_label
  _atom_site_symmetry_multiplicity
  _atom_site_fract_x
  _atom_site_fract_y
  _atom_site_fract_z
  _atom_site_occupancy
  H   H1        1.0  0.3874666392803192  0.09440845996141434  0.07408338040113449  1.0000
  H   H2        1.0  0.9953454732894897  0.8671719431877136  0.5027461647987366  1.0000
  H   H3        1.0  0.48484912514686584  0.36744919419288635  0.511964738368988  1.0000
  H   H4        1.0  0.32117390632629395  0.37218669056892395  0.5300109386444092  1.0000
  K   K1        1.0  0.8192046284675598  0.9559111595153809  0.7381317019462585  1.0000
  K   K2        1.0  0.8163091540336609  0.005071801133453846  0.1206865906715393  1.0000
  O   O1        1.0  0.4901652932167053  0.3218137323856354  0.18632337450981137  1.0000
  O   O2        1.0  0.37212058901786804  0.10915795713663101  0.39498165249824524  1.0000
  O   O3        1.0  0.4965584874153137  0.20760831236839294  0.9818409085273743  1.0000
  O   O4        1.0  0.4938323199748993  0.32823723554611206  0.48256880044937134  1.0000
  O   O5        1.0  0.3239198923110962  0.8943375945091248  0.3329664766788482  1.0000
