data_image0
_chemical_formula_structural       H4KO6
_chemical_formula_sum              "H4 K1 O6"
_cell_length_a       5.862555682113503
_cell_length_b       6.071126187978205
_cell_length_c       6.862995624542236
_cell_angle_alpha    112.04323683793439
_cell_angle_beta     103.47205675207049
_cell_angle_gamma    110.64046633859766

_space_group_name_H-M_alt    "P 1"
_space_group_IT_number       1

loop_
  _space_group_symop_operation_xyz
  'x, y, z'

loop_
  _atom_site_type_symbol
  _atom_site_label
  _atom_site_symmetry_multiplicity
  _atom_site_fract_x
  _atom_site_fract_y
  _atom_site_fract_z
  _atom_site_occupancy
  H   H1        1.0  0.17590859532356262  0.25693175196647644  0.39185380935668945  1.0000
  H   H2        1.0  0.42718568444252014  0.07425408065319061  0.9272525906562805  1.0000
  H   H3        1.0  0.7361567616462708  0.9479565024375916  0.2992980480194091  1.0000
  H   H4        1.0  0.6575728058815002  0.30879461765289307  0.9409283399581909  1.0000
  K   K1        1.0  0.14657916128635406  0.8578596711158752  0.12271273881196976  1.0000
  O   O1        1.0  0.22756876051425934  0.20561663806438446  0.00640890933573246  1.0000
  O   O2        1.0  0.09927286952733994  0.6851826310157776  0.685698926448822  1.0000
  O   O3        1.0  0.37826892733573914  0.9261354804039001  0.2345712035894394  1.0000
  O   O4        1.0  0.8498882055282593  0.016112085431814194  0.7972338795661926  1.0000
  O   O5        1.0  0.8663721084594727  0.17485551536083221  0.7262736558914185  1.0000
  O   O6        1.0  0.42932626605033875  0.08790918439626694  0.4592518210411072  1.0000
