data_image0
_chemical_formula_structural       BiCd4ClSbSeTe
_chemical_formula_sum              "Bi1 Cd4 Cl1 Sb1 Se1 Te1"
_cell_length_a       5.859977638936728
_cell_length_b       7.351085161159326
_cell_length_c       9.563376426696777
_cell_angle_alpha    89.38154352337467
_cell_angle_beta     87.83728436156562
_cell_angle_gamma    111.24688363028467

_space_group_name_H-M_alt    "P 1"
_space_group_IT_number       1

loop_
  _space_group_symop_operation_xyz
  'x, y, z'

loop_
  _atom_site_type_symbol
  _atom_site_label
  _atom_site_symmetry_multiplicity
  _atom_site_fract_x
  _atom_site_fract_y
  _atom_site_fract_z
  _atom_site_occupancy
  Bi  Bi1       1.0  0.3245658278465271  0.3853127062320709  0.31758013367652893  1.0000
  Cd  Cd1       1.0  0.9550715088844299  0.12430629134178162  0.8686282634735109  1.0000
  Cd  Cd2       1.0  0.4253942668437958  0.6296725869178772  0.917748510837555  1.0000
  Cd  Cd3       1.0  0.41457703709602356  0.612358808517456  0.8316612839698792  1.0000
  Cd  Cd4       1.0  0.05211629718542099  0.9110479950904846  0.8919363617897035  1.0000
  Cl  Cl1       1.0  0.9633569121360779  0.1257001757621765  0.5847303867340088  1.0000
  Sb  Sb1       1.0  0.5484090447425842  0.9065629839897156  0.04308849200606346  1.0000
  Se  Se1       1.0  0.8134654760360718  0.3982684314250946  0.07649917900562286  1.0000
  Te  Te1       1.0  0.3906073272228241  0.3826196491718292  0.4219146966934204  1.0000
