data_image0
_chemical_formula_structural       Cd5SbSrTbTe
_chemical_formula_sum              "Cd5 Sb1 Sr1 Tb1 Te1"
_cell_length_a       5.846066590914648
_cell_length_b       7.294695499991627
_cell_length_c       7.463016510009766
_cell_angle_alpha    69.20722772862602
_cell_angle_beta     66.25717983704345
_cell_angle_gamma    66.80102437861167

_space_group_name_H-M_alt    "P 1"
_space_group_IT_number       1

loop_
  _space_group_symop_operation_xyz
  'x, y, z'

loop_
  _atom_site_type_symbol
  _atom_site_label
  _atom_site_symmetry_multiplicity
  _atom_site_fract_x
  _atom_site_fract_y
  _atom_site_fract_z
  _atom_site_occupancy
  Cd  Cd1       1.0  0.11808384209871292  0.12457215785980223  0.9857571125030518  1.0000
  Cd  Cd2       1.0  0.5900893211364746  0.40359693765640253  0.05293799191713333  1.0000
  Cd  Cd3       1.0  0.5641704797744751  0.19419081509113312  0.9063661098480225  1.0000
  Cd  Cd4       1.0  0.5762474536895752  0.9221519231796264  0.17361313104629517  1.0000
  Cd  Cd5       1.0  0.08716624230146411  0.4127913117408752  0.906635582447052  1.0000
  Sb  Sb1       1.0  0.17055037617683413  0.47654044628143305  0.38373512029647827  1.0000
  Sr  Sr1       1.0  0.8317344784736633  0.6823819875717163  0.6598110795021057  1.0000
  Tb  Tb1       1.0  0.7974632382392883  0.15088725090026855  0.9767158627510071  1.0000
  Te  Te1       1.0  0.8070508241653442  0.647574782371521  0.41043564677238464  1.0000
