data_image0
_chemical_formula_structural       BiCd4CuTe2Yb
_chemical_formula_sum              "Bi1 Cd4 Cu1 Te2 Yb1"
_cell_length_a       4.862067547880459
_cell_length_b       7.882013332353042
_cell_length_c       9.006324768066406
_cell_angle_alpha    89.91717515829319
_cell_angle_beta     87.0197409394872
_cell_angle_gamma    91.7581220950391

_space_group_name_H-M_alt    "P 1"
_space_group_IT_number       1

loop_
  _space_group_symop_operation_xyz
  'x, y, z'

loop_
  _atom_site_type_symbol
  _atom_site_label
  _atom_site_symmetry_multiplicity
  _atom_site_fract_x
  _atom_site_fract_y
  _atom_site_fract_z
  _atom_site_occupancy
  Bi  Bi1       1.0  0.8284666538238525  0.7302864789962769  0.09995671361684799  1.0000
  Cd  Cd1       1.0  0.3260281980037689  0.7497701048851013  0.35883501172065735  1.0000
  Cd  Cd2       1.0  0.8236393332481384  0.523995041847229  0.7787879109382629  1.0000
  Cd  Cd3       1.0  0.8277750015258789  0.3040810525417328  0.6179981827735901  1.0000
  Cd  Cd4       1.0  0.3275322914123535  0.05203985795378685  0.1490074247121811  1.0000
  Cu  Cu1       1.0  0.8287357687950134  0.08538758009672165  0.07629475742578506  1.0000
  Te  Te1       1.0  0.32692018151283264  0.3051910698413849  0.5758939981460571  1.0000
  Te  Te2       1.0  0.32712841033935547  0.4805583357810974  0.30140432715415955  1.0000
  Yb  Yb1       1.0  0.8252536654472351  0.9877769351005554  0.18767820298671722  1.0000
