data_image0
_chemical_formula_structural       Cd3SeTe5
_chemical_formula_sum              "Cd3 Se1 Te5"
_cell_length_a       6.5044624636867185
_cell_length_b       7.306525482271756
_cell_length_c       7.628716468811035
_cell_angle_alpha    90.18341029862076
_cell_angle_beta     89.3769659588485
_cell_angle_gamma    89.41035270351678

_space_group_name_H-M_alt    "P 1"
_space_group_IT_number       1

loop_
  _space_group_symop_operation_xyz
  'x, y, z'

loop_
  _atom_site_type_symbol
  _atom_site_label
  _atom_site_symmetry_multiplicity
  _atom_site_fract_x
  _atom_site_fract_y
  _atom_site_fract_z
  _atom_site_occupancy
  Cd  Cd1       1.0  0.11154195666313171  0.2043016999959946  0.6345770955085754  1.0000
  Cd  Cd2       1.0  0.5928375124931335  0.21029244363307956  0.6298168301582336  1.0000
  Cd  Cd3       1.0  0.5986151695251465  0.708275854587555  0.35482990741729736  1.0000
  Se  Se1       1.0  0.6082192063331604  0.2054245471954346  0.1360630840063095  1.0000
  Te  Te1       1.0  0.09262796491384506  0.20353882014751437  0.6375327706336975  1.0000
  Te  Te2       1.0  0.5959461331367493  0.70624577999115  0.6273972988128662  1.0000
  Te  Te3       1.0  0.10153627395629883  0.7079232931137086  0.13582374155521393  1.0000
  Te  Te4       1.0  0.5850051641464233  0.9483219981193544  0.8665229082107544  1.0000
  Te  Te5       1.0  0.10383035242557526  0.7009065747261048  0.6363273859024048  1.0000
