data_image0
_chemical_formula_structural       Cd3Te6
_chemical_formula_sum              "Cd3 Te6"
_cell_length_a       5.832758518078669
_cell_length_b       8.667496725427112
_cell_length_c       9.037344932556152
_cell_angle_alpha    89.86169503318425
_cell_angle_beta     88.46052186833347
_cell_angle_gamma    89.522791948354

_space_group_name_H-M_alt    "P 1"
_space_group_IT_number       1

loop_
  _space_group_symop_operation_xyz
  'x, y, z'

loop_
  _atom_site_type_symbol
  _atom_site_label
  _atom_site_symmetry_multiplicity
  _atom_site_fract_x
  _atom_site_fract_y
  _atom_site_fract_z
  _atom_site_occupancy
  Cd  Cd1       1.0  0.9284991025924683  0.09964116662740707  0.9361221790313721  1.0000
  Cd  Cd2       1.0  0.42798659205436707  0.06826045364141464  0.6857748627662659  1.0000
  Cd  Cd3       1.0  0.9265142679214478  0.3868287205696106  0.9149074554443359  1.0000
  Te  Te1       1.0  0.4275772273540497  0.7414281964302063  0.9410008788108826  1.0000
  Te  Te2       1.0  0.430696040391922  0.36190685629844666  0.5339421033859253  1.0000
  Te  Te3       1.0  0.4298994243144989  0.36966216564178467  0.3401576280593872  1.0000
  Te  Te4       1.0  0.9314073324203491  0.4918203353881836  0.5476295948028564  1.0000
  Te  Te5       1.0  0.42174777388572693  0.7114202976226807  0.039274271577596664  1.0000
  Te  Te6       1.0  0.43307945132255554  0.8727637529373169  0.7169671058654785  1.0000
