data_image0
_chemical_formula_structural       AsGe2H2LaLi5OP
_chemical_formula_sum              "As1 Ge2 H2 La1 Li5 O1 P1"
_cell_length_a       5.185960276638537
_cell_length_b       6.4391074606755065
_cell_length_c       6.776973247528076
_cell_angle_alpha    119.22867939683267
_cell_angle_beta     92.39509965337547
_cell_angle_gamma    95.49698993256905

_space_group_name_H-M_alt    "P 1"
_space_group_IT_number       1

loop_
  _space_group_symop_operation_xyz
  'x, y, z'

loop_
  _atom_site_type_symbol
  _atom_site_label
  _atom_site_symmetry_multiplicity
  _atom_site_fract_x
  _atom_site_fract_y
  _atom_site_fract_z
  _atom_site_occupancy
  As  As1       1.0  0.0038094520568847656  0.5866301655769348  0.0713614001870155  1.0000
  Ge  Ge1       1.0  0.008541504852473736  0.09769278019666672  0.6375076770782471  1.0000
  Ge  Ge2       1.0  0.0151924854144454  0.5250502824783325  0.5072044134140015  1.0000
  H   H1        1.0  0.5001201033592224  0.7257372736930847  0.9119268655776978  1.0000
  H   H2        1.0  0.024383511394262314  0.6836032271385193  0.1590595841407776  1.0000
  La  La1       1.0  0.024116646498441696  0.6623108983039856  0.04664575308561325  1.0000
  Li  Li1       1.0  0.5112084746360779  0.7120776176452637  0.24860773980617523  1.0000
  Li  Li2       1.0  0.5192838907241821  0.7904053926467896  0.45393687486648554  1.0000
  Li  Li3       1.0  0.4962010979652405  0.9364309310913086  0.04162617027759552  1.0000
  Li  Li4       1.0  0.5017567873001099  0.687221884727478  0.4493935704231262  1.0000
  Li  Li5       1.0  0.5086135864257812  0.024535534903407097  0.12788918614387512  1.0000
  O   O1        1.0  0.9837030172348022  0.6405092477798462  0.4623066782951355  1.0000
  P   P1        1.0  0.5177127122879028  0.30145543813705444  0.9826956987380981  1.0000
