data_image0
_chemical_formula_structural       BrH2LaLi3O2PPbScZr
_chemical_formula_sum              "Br1 H2 La1 Li3 O2 P1 Pb1 Sc1 Zr1"
_cell_length_a       6.046953816417319
_cell_length_b       6.1427772793239415
_cell_length_c       6.593815803527832
_cell_angle_alpha    61.63868329940382
_cell_angle_beta     68.14039308465988
_cell_angle_gamma    66.92233774898862

_space_group_name_H-M_alt    "P 1"
_space_group_IT_number       1

loop_
  _space_group_symop_operation_xyz
  'x, y, z'

loop_
  _atom_site_type_symbol
  _atom_site_label
  _atom_site_symmetry_multiplicity
  _atom_site_fract_x
  _atom_site_fract_y
  _atom_site_fract_z
  _atom_site_occupancy
  Br  Br1       1.0  0.9049959778785707  0.8312094807624817  0.11204623430967331  1.0000
  H   H1        1.0  0.37441030144691473  0.16357268393039703  0.2565033435821533  1.0000
  H   H2        1.0  0.883006513118744  0.735833466053009  0.5298810601234436  1.0000
  La  La1       1.0  0.9132807254791261  0.3829971253871918  0.15458112955093384  1.0000
  Li  Li1       1.0  0.22697463631629947  0.8536919951438904  0.6791505813598633  1.0000
  Li  Li2       1.0  0.8365983963012696  0.1944238543510437  0.6310896873474121  1.0000
  Li  Li3       1.0  0.4243935346603394  0.3739916682243347  0.7936060428619385  1.0000
  O   O1        1.0  0.4515762925148011  0.5803629755973816  0.0360463485121727  1.0000
  O   O2        1.0  0.8379206657409669  0.7148920893669128  0.18276317417621613  1.0000
  P   P1        1.0  0.3568926155567169  0.3138052523136139  0.19967536628246307  1.0000
  Pb  Pb1       1.0  0.34551769495010376  0.6658326387405396  0.9958181977272034  1.0000
  Sc  Sc1       1.0  0.35618436336517334  0.9914452433586121  0.5225106477737427  1.0000
  Zr  Zr1       1.0  0.892049551010132  0.12492545694112778  0.7940818667411804  1.0000
