data_image0
_chemical_formula_structural       Br3H3Li5O2
_chemical_formula_sum              "Br3 H3 Li5 O2"
_cell_length_a       4.3208109948280295
_cell_length_b       4.884175573048242
_cell_length_c       5.898529052734375
_cell_angle_alpha    96.5443853850224
_cell_angle_beta     89.5581696243942
_cell_angle_gamma    91.27385850264689

_space_group_name_H-M_alt    "P 1"
_space_group_IT_number       1

loop_
  _space_group_symop_operation_xyz
  'x, y, z'

loop_
  _atom_site_type_symbol
  _atom_site_label
  _atom_site_symmetry_multiplicity
  _atom_site_fract_x
  _atom_site_fract_y
  _atom_site_fract_z
  _atom_site_occupancy
  Br  Br1       1.0  0.3584022521972656  0.7237199544906616  0.26065176725387573  1.0000
  Br  Br2       1.0  0.6656408905982971  0.9849897623062134  0.8160170316696167  1.0000
  Br  Br3       1.0  0.6707814931869507  0.3111784756183624  0.37923353910446167  1.0000
  H   H1        1.0  0.031241901218891144  0.5710277557373047  0.5718126296997069  1.0000
  H   H2        1.0  0.8928371667861938  0.9577813148498535  0.921554684638977  1.0000
  H   H3        1.0  0.6723077297210693  0.4621204137802124  0.4195025563240051  1.0000
  Li  Li1       1.0  0.6734179854393005  0.6642771363258362  0.28616300225257874  1.0000
  Li  Li2       1.0  0.1592213362455368  0.33001819252967834  0.2700747847557068  1.0000
  Li  Li3       1.0  0.000508427619934082  0.5087292790412903  0.10876378417015076  1.0000
  Li  Li4       1.0  0.17039191722869873  0.9849479794502258  0.10291600972414017  1.0000
  Li  Li5       1.0  0.06470319628715515  0.37330490350723267  0.800697386264801  1.0000
  O   O1        1.0  0.37613314390182495  0.3640369474887848  0.8662254214286804  1.0000
  O   O2        1.0  0.9953009486198425  0.666948676109314  0.08654438704252243  1.0000
