data_image0
_chemical_formula_structural       Br2H3I3Li4Yb
_chemical_formula_sum              "Br2 H3 I3 Li4 Yb1"
_cell_length_a       5.358913825829334
_cell_length_b       5.609620040281704
_cell_length_c       6.874348163604736
_cell_angle_alpha    97.31449615579749
_cell_angle_beta     90.78947599690554
_cell_angle_gamma    104.26887342419812

_space_group_name_H-M_alt    "P 1"
_space_group_IT_number       1

loop_
  _space_group_symop_operation_xyz
  'x, y, z'

loop_
  _atom_site_type_symbol
  _atom_site_label
  _atom_site_symmetry_multiplicity
  _atom_site_fract_x
  _atom_site_fract_y
  _atom_site_fract_z
  _atom_site_occupancy
  Br  Br1       1.0  0.4542536437511444  0.2776460647583008  0.1464439183473587  1.0000
  Br  Br2       1.0  0.4674532115459442  0.14215192198753357  0.9691171646118164  1.0000
  H   H1        1.0  0.9597947001457214  0.010276349261403084  0.8502989411354065  1.0000
  H   H2        1.0  0.22473743557929993  0.7228505611419678  0.9908927083015443  1.0000
  H   H3        1.0  0.46478673815727234  0.25621527433395386  0.5736825466156006  1.0000
  I   I1        1.0  0.46398988366127014  0.14686383306980133  0.7007427215576172  1.0000
  I   I2        1.0  0.4564805030822754  0.6539717316627502  0.4358910024166107  1.0000
  I   I3        1.0  0.4572637677192688  0.7057880759239197  0.7481679320335387  1.0000
  Li  Li1       1.0  0.9530398845672607  0.33532819151878357  0.08507172018289566  1.0000
  Li  Li2       1.0  0.9541609883308411  0.17046910524368286  0.5897014737129211  1.0000
  Li  Li3       1.0  0.9644370675086975  0.10016390681266785  0.6621825098991394  1.0000
  Li  Li4       1.0  0.9632121324539185  0.5872148275375366  0.09927371889352798  1.0000
  Yb  Yb1       1.0  0.9549030661582947  0.1914627104997635  0.3617016673088074  1.0000
