data_image0
_chemical_formula_structural       GeH5ILi2O2PbPr
_chemical_formula_sum              "Ge1 H5 I1 Li2 O2 Pb1 Pr1"
_cell_length_a       5.22077490762684
_cell_length_b       6.809664826253223
_cell_length_c       6.729586124420166
_cell_angle_alpha    114.56973446253689
_cell_angle_beta     86.73183611110693
_cell_angle_gamma    90.90016156401573

_space_group_name_H-M_alt    "P 1"
_space_group_IT_number       1

loop_
  _space_group_symop_operation_xyz
  'x, y, z'

loop_
  _atom_site_type_symbol
  _atom_site_label
  _atom_site_symmetry_multiplicity
  _atom_site_fract_x
  _atom_site_fract_y
  _atom_site_fract_z
  _atom_site_occupancy
  Ge  Ge1       1.0  0.21765471994876862  0.20340842008590695  0.7146863937377929  1.0000
  H   H1        1.0  0.21374718844890594  0.0583614632487297  0.7562227249145507  1.0000
  H   H2        1.0  0.7155674695968628  0.5961552262306213  0.1346119046211242  1.0000
  H   H3        1.0  0.22044986486434937  0.8730469942092894  0.871826410293579  1.0000
  H   H4        1.0  0.21456280350685122  0.4487175047397613  0.533234179019928  1.0000
  H   H5        1.0  0.7168831825256348  0.33790239691734314  0.44447183609008784  1.0000
  I   I1        1.0  0.21792826056480408  0.633924663066864  0.25360146164894104  1.0000
  Li  Li1       1.0  0.7219031453132629  0.9777125120162963  0.2625907063484192  1.0000
  Li  Li2       1.0  0.22571131587028503  0.9078985452651976  0.03324863314628601  1.0000
  O   O1        1.0  0.286506325006485  0.3622887134552002  0.26335790753364563  1.0000
  O   O2        1.0  0.7125170826911927  0.9238236546516417  0.7286394834518432  1.0000
  Pb  Pb1       1.0  0.7260617613792419  0.41469612717628473  0.9142343997955321  1.0000
  Pr  Pr1       1.0  0.7178907394409181  0.8521404862403869  0.09439159184694289  1.0000
