data_image0
_chemical_formula_structural       Br3H2Li4O4
_chemical_formula_sum              "Br3 H2 Li4 O4"
_cell_length_a       4.037038991236139
_cell_length_b       4.8748257284102525
_cell_length_c       6.058040142059326
_cell_angle_alpha    90.52031094535432
_cell_angle_beta     91.99183170678762
_cell_angle_gamma    94.29943622152965

_space_group_name_H-M_alt    "P 1"
_space_group_IT_number       1

loop_
  _space_group_symop_operation_xyz
  'x, y, z'

loop_
  _atom_site_type_symbol
  _atom_site_label
  _atom_site_symmetry_multiplicity
  _atom_site_fract_x
  _atom_site_fract_y
  _atom_site_fract_z
  _atom_site_occupancy
  Br  Br1       1.0  0.9672356843948364  0.0028669144958257675  0.05529788136482239  1.0000
  Br  Br2       1.0  0.6945116519927979  0.3789338767528534  0.7333616018295288  1.0000
  Br  Br3       1.0  0.22153618931770325  0.5781190991401672  0.9795674085617065  1.0000
  H   H1        1.0  0.3809223175048828  0.5433416962623596  0.7980834245681763  1.0000
  H   H2        1.0  0.18574686348438263  0.6366087794303894  0.45754191279411316  1.0000
  Li  Li1       1.0  0.6845076084136963  0.2668629586696625  0.5544764995574951  1.0000
  Li  Li2       1.0  0.4689299464225769  0.8580840826034546  0.81992506980896  1.0000
  Li  Li3       1.0  0.6612920761108398  0.5736225247383118  0.401378333568573  1.0000
  Li  Li4       1.0  0.19570733606815338  0.850548505783081  0.2630808651447296  1.0000
  O   O1        1.0  0.6672768592834473  0.08703098446130753  0.4674159288406372  1.0000
  O   O2        1.0  0.21248655021190643  0.025314196944236755  0.8284114003181458  1.0000
  O   O3        1.0  0.6737051010131836  0.3587159812450409  0.04059804975986481  1.0000
  O   O4        1.0  0.6919676065444946  0.16421981155872345  0.03505341336131096  1.0000
