data_image0
_chemical_formula_structural       CaH6La2NaO2
_chemical_formula_sum              "Ca1 H6 La2 Na1 O2"
_cell_length_a       3.5366582873868837
_cell_length_b       1.641331541474219
_cell_length_c       8.887696266174316
_cell_angle_alpha    132.19549427901205
_cell_angle_beta     89.10468689433017
_cell_angle_gamma    71.85476655517049

_space_group_name_H-M_alt    "P 1"
_space_group_IT_number       1

loop_
  _space_group_symop_operation_xyz
  'x, y, z'

loop_
  _atom_site_type_symbol
  _atom_site_label
  _atom_site_symmetry_multiplicity
  _atom_site_fract_x
  _atom_site_fract_y
  _atom_site_fract_z
  _atom_site_occupancy
  Ca  Ca1       1.0  0.31579986214637756  0.23348960280418396  0.3686264455318451  1.0000
  H   H1        1.0  0.2453858107328415  0.28716948628425604  0.38629841804504395  1.0000
  H   H2        1.0  0.5309911966323851  0.3222007751464848  0.4887422323226929  1.0000
  H   H3        1.0  0.07399431616067889  0.04191439971327757  0.5591081976890564  1.0000
  H   H4        1.0  0.8010771870613098  0.6780688166618352  0.6095876693725587  1.0000
  H   H5        1.0  0.329410046339035  0.3757184147834782  0.6959626078605652  1.0000
  H   H6        1.0  0.8302191495895386  0.7643550634384155  0.28016433119773865  1.0000
  La  La1       1.0  0.9230708479881286  0.8366329669952403  0.7046956419944764  1.0000
  La  La2       1.0  0.3747808337211609  0.6693720221519472  0.34952130913734436  1.0000
  Na  Na1       1.0  0.42847660183906555  0.873244345188141  0.09672672301530838  1.0000
  O   O1        1.0  0.3455536067485809  0.5944643616676336  0.7779168486595154  1.0000
  O   O2        1.0  0.9623969197273253  0.49566718935966575  0.527068853378296  1.0000
