data_image0
_chemical_formula_structural       CaCsH4LaO2RbSiV
_chemical_formula_sum              "Ca1 Cs1 H4 La1 O2 Rb1 Si1 V1"
_cell_length_a       4.554859155576399
_cell_length_b       6.295063270093257
_cell_length_c       6.336489677429199
_cell_angle_alpha    125.86670249396846
_cell_angle_beta     92.4883365513822
_cell_angle_gamma    95.90965468534874

_space_group_name_H-M_alt    "P 1"
_space_group_IT_number       1

loop_
  _space_group_symop_operation_xyz
  'x, y, z'

loop_
  _atom_site_type_symbol
  _atom_site_label
  _atom_site_symmetry_multiplicity
  _atom_site_fract_x
  _atom_site_fract_y
  _atom_site_fract_z
  _atom_site_occupancy
  Ca  Ca1       1.0  0.5786131620407104  0.5515881776809692  0.48237633705139155  1.0000
  Cs  Cs1       1.0  0.5558006763458252  0.8112781643867493  0.7089055180549622  1.0000
  H   H1        1.0  0.38690319657325745  0.2074793130159378  0.5630751848220825  1.0000
  H   H2        1.0  0.5954992175102234  0.7550789713859558  0.2149830460548401  1.0000
  H   H3        1.0  0.08868300914764404  0.042702581733465195  0.5759032964706421  1.0000
  H   H4        1.0  0.09136553853750229  0.5905107855796814  0.5718599557876587  1.0000
  La  La1       1.0  0.5922254323959351  0.5596846342086792  0.20003694295883184  1.0000
  O   O1        1.0  0.09536338597536087  0.1812720000743866  0.637482225894928  1.0000
  O   O2        1.0  0.8633163571357727  0.3626800775527954  0.003712835023179685  1.0000
  Rb  Rb1       1.0  0.08794480562210083  0.10206563770771027  0.12660326063632965  1.0000
  Si  Si1       1.0  0.07238601893186569  0.19959060847759247  0.905735194683075  1.0000
  V   V1        1.0  0.08898746967315674  0.3189893662929535  0.8328245282173157  1.0000
