data_image0
_chemical_formula_structural       BH2Na3NiO5
_chemical_formula_sum              "B1 H2 Na3 Ni1 O5"
_cell_length_a       5.793503787818917
_cell_length_b       5.352681276745939
_cell_length_c       5.455438613891602
_cell_angle_alpha    73.75054768080379
_cell_angle_beta     55.44970950729672
_cell_angle_gamma    58.4896833002727

_space_group_name_H-M_alt    "P 1"
_space_group_IT_number       1

loop_
  _space_group_symop_operation_xyz
  'x, y, z'

loop_
  _atom_site_type_symbol
  _atom_site_label
  _atom_site_symmetry_multiplicity
  _atom_site_fract_x
  _atom_site_fract_y
  _atom_site_fract_z
  _atom_site_occupancy
  B   B1        1.0  0.741104245185852  0.4653724730014801  0.23656469583511353  1.0000
  H   H1        1.0  0.6225472688674927  0.8957530856132507  0.9038720726966858  1.0000
  H   H2        1.0  0.8357629179954529  0.6478720903396606  0.30677172541618347  1.0000
  Na  Na1       1.0  0.23029480874538422  0.4648159444332123  0.6452632546424866  1.0000
  Na  Na2       1.0  0.6443740725517273  0.10495777428150177  0.3580568432807922  1.0000
  Na  Na3       1.0  0.7807022333145142  0.5106682777404785  0.9136056900024414  1.0000
  Ni  Ni1       1.0  0.4450479745864868  0.04017782211303711  0.3228946328163147  1.0000
  O   O1        1.0  0.9242743253707886  0.3452330529689789  0.957370936870575  1.0000
  O   O2        1.0  0.8852424025535583  0.008148230612277985  0.1526220291852951  1.0000
  O   O3        1.0  0.4098925292491913  0.21962030231952667  0.7998226881027222  1.0000
  O   O4        1.0  0.4245931804180145  0.17437845468521118  0.5078564882278442  1.0000
  O   O5        1.0  0.32554250955581665  0.16434837877750397  0.602835476398468  1.0000
