data_image0
_chemical_formula_structural       BH4Na2O5
_chemical_formula_sum              "B1 H4 Na2 O5"
_cell_length_a       4.533208896186244
_cell_length_b       3.933819914966531
_cell_length_c       2.4098846912384033
_cell_angle_alpha    53.868709436965844
_cell_angle_beta     103.442247633854
_cell_angle_gamma    63.180165105992394

_space_group_name_H-M_alt    "P 1"
_space_group_IT_number       1

loop_
  _space_group_symop_operation_xyz
  'x, y, z'

loop_
  _atom_site_type_symbol
  _atom_site_label
  _atom_site_symmetry_multiplicity
  _atom_site_fract_x
  _atom_site_fract_y
  _atom_site_fract_z
  _atom_site_occupancy
  B   B1        1.0  0.32999053597450256  0.12637698650360113  0.7005190253257751  1.0000
  H   H1        1.0  0.259406715631485  0.8819908499717712  0.1118777468800545  1.0000
  H   H2        1.0  0.9261346459388733  0.42524275183677673  0.30835267901420593  1.0000
  H   H3        1.0  0.6075202226638794  0.100962482392788  0.593661606311798  1.0000
  H   H4        1.0  0.44245582818984996  0.9660819172859191  0.47319856286048906  1.0000
  Na  Na1       1.0  0.8303462266921997  0.1940399259328842  0.6491478085517883  1.0000
  Na  Na2       1.0  0.8435827493667603  0.16319495439529422  0.2136690020561218  1.0000
  O   O1        1.0  0.16340170800685888  0.42323842644691456  0.9005112051963808  1.0000
  O   O2        1.0  0.5813495516777039  0.19483654201030723  0.484387218952179  1.0000
  O   O3        1.0  0.7432443499565125  0.7999783754348756  0.3826804161071778  1.0000
  O   O4        1.0  0.43535241484642023  0.7225300073623658  0.8172907233238221  1.0000
  O   O5        1.0  0.132994070649147  0.2972248196601868  0.5606459379196167  1.0000
