data_image0
_chemical_formula_structural       CaGe2H5LaMoO2
_chemical_formula_sum              "Ca1 Ge2 H5 La1 Mo1 O2"
_cell_length_a       4.8778073513452815
_cell_length_b       5.920923506813034
_cell_length_c       4.151576042175293
_cell_angle_alpha    99.7611934022169
_cell_angle_beta     144.86529519272034
_cell_angle_gamma    110.28218473654908

_space_group_name_H-M_alt    "P 1"
_space_group_IT_number       1

loop_
  _space_group_symop_operation_xyz
  'x, y, z'

loop_
  _atom_site_type_symbol
  _atom_site_label
  _atom_site_symmetry_multiplicity
  _atom_site_fract_x
  _atom_site_fract_y
  _atom_site_fract_z
  _atom_site_occupancy
  Ca  Ca1       1.0  0.48685324192047114  0.38531768321990967  0.4029800593852997  1.0000
  Ge  Ge1       1.0  0.9604774713516234  0.29044482111930847  0.7932410836219788  1.0000
  Ge  Ge2       1.0  0.27974429726600636  0.882158100605011  0.5593668222427367  1.0000
  H   H1        1.0  0.7532855272293091  0.003925156313925887  0.9275010824203491  1.0000
  H   H2        1.0  0.10665161162614811  0.550072193145752  0.6276760101318358  1.0000
  H   H3        1.0  0.4835867285728454  0.43387332558631897  0.1771582663059235  1.0000
  H   H4        1.0  0.7134628891944885  0.3901089429855347  0.12043758481740957  1.0000
  H   H5        1.0  0.8108626604080201  0.6453181505203247  0.7457963824272157  1.0000
  La  La1       1.0  0.16841408610343922  0.6427889466285706  0.2737539708614348  1.0000
  Mo  Mo1       1.0  0.9167641401290894  0.06972227245569226  0.4229454100131989  1.0000
  O   O1        1.0  0.31557610630989075  0.798348605632782  0.25684854388237  1.0000
  O   O2        1.0  0.15236799418926228  0.4485749304294586  0.6277947425842284  1.0000
