data_image0
_chemical_formula_structural       BH5O4PV
_chemical_formula_sum              "B1 H5 O4 P1 V1"
_cell_length_a       4.3727834832018715
_cell_length_b       5.35833267893269
_cell_length_c       5.79836368560791
_cell_angle_alpha    106.338030850202
_cell_angle_beta     98.8894890627064
_cell_angle_gamma    118.85704504588551

_space_group_name_H-M_alt    "P 1"
_space_group_IT_number       1

loop_
  _space_group_symop_operation_xyz
  'x, y, z'

loop_
  _atom_site_type_symbol
  _atom_site_label
  _atom_site_symmetry_multiplicity
  _atom_site_fract_x
  _atom_site_fract_y
  _atom_site_fract_z
  _atom_site_occupancy
  B   B1        1.0  0.14515745639801025  0.8653932809829712  0.3204534649848938  1.0000
  H   H1        1.0  0.6485654711723328  0.12805624306201935  0.04639001563191414  1.0000
  H   H2        1.0  0.5858866572380066  0.9186829328536987  0.973665177822113  1.0000
  H   H3        1.0  0.1288679540157318  0.7227636575698853  0.7705811262130737  1.0000
  H   H4        1.0  0.16938039660453796  0.49671444296836853  0.9045113325119019  1.0000
  H   H5        1.0  0.11427247524261475  0.5301797389984131  0.1884254813194275  1.0000
  O   O1        1.0  0.6830978989601135  0.40157195925712585  0.8304030895233154  1.0000
  O   O2        1.0  0.9220079183578491  0.17135633528232574  0.7511544227600098  1.0000
  O   O3        1.0  0.3785010874271393  0.5972861647605896  0.19551327824592588  1.0000
  O   O4        1.0  0.6860244870185852  0.7857456207275391  0.013944673351943493  1.0000
  P   P1        1.0  0.1520869880914688  0.48560771346092224  0.6285478472709656  1.0000
  V   V1        1.0  0.6576942205429077  0.5316324830055237  0.31901559233665466  1.0000
