data_image0
_chemical_formula_structural       CGeI3PPbRe2W
_chemical_formula_sum              "C1 Ge1 I3 P1 Pb1 Re2 W1"
_cell_length_a       6.102557727514953
_cell_length_b       6.221934585294298
_cell_length_c       7.7553911209106445
_cell_angle_alpha    83.56216536773918
_cell_angle_beta     75.30749759891776
_cell_angle_gamma    74.22665748025142

_space_group_name_H-M_alt    "P 1"
_space_group_IT_number       1

loop_
  _space_group_symop_operation_xyz
  'x, y, z'

loop_
  _atom_site_type_symbol
  _atom_site_label
  _atom_site_symmetry_multiplicity
  _atom_site_fract_x
  _atom_site_fract_y
  _atom_site_fract_z
  _atom_site_occupancy
  C   C1        1.0  0.10713356733322144  0.3647812306880951  0.23134173452854156  1.0000
  Ge  Ge1       1.0  0.9409950375556946  0.22519628703594205  0.4592680037021637  1.0000
  I   I1        1.0  0.1039949581027031  0.2688775062561035  0.7403473258018494  1.0000
  I   I2        1.0  0.6053683161735535  0.568722665309906  0.20994330942630768  1.0000
  I   I3        1.0  0.6038891077041626  0.4182735979557037  0.86862713098526  1.0000
  P   P1        1.0  0.6057602763175964  0.19181831181049344  0.09536623209714887  1.0000
  Pb  Pb1       1.0  0.11809954792261124  0.7234073877334595  0.7685315012931824  1.0000
  Re  Re1       1.0  0.11318058520555496  0.6580943465232849  0.2560301423072815  1.0000
  Re  Re2       1.0  0.60813307762146  0.5443952679634094  0.47185781598091125  1.0000
  W   W1        1.0  0.6077651381492615  0.5799741744995117  0.8305152058601379  1.0000
