data_image0
_chemical_formula_structural       AlFeI4LiOTbZr
_chemical_formula_sum              "Al1 Fe1 I4 Li1 O1 Tb1 Zr1"
_cell_length_a       7.187830597679746
_cell_length_b       6.860284195099346
_cell_length_c       7.804344654083252
_cell_angle_alpha    74.73124460129075
_cell_angle_beta     69.99481641335753
_cell_angle_gamma    69.42453930638784

_space_group_name_H-M_alt    "P 1"
_space_group_IT_number       1

loop_
  _space_group_symop_operation_xyz
  'x, y, z'

loop_
  _atom_site_type_symbol
  _atom_site_label
  _atom_site_symmetry_multiplicity
  _atom_site_fract_x
  _atom_site_fract_y
  _atom_site_fract_z
  _atom_site_occupancy
  Al  Al1       1.0  0.3590867519378662  0.8048650622367859  0.8287212252616883  1.0000
  Fe  Fe1       1.0  0.5168592929840088  0.16121426224708557  0.5862475037574768  1.0000
  I   I1        1.0  0.5540064573287964  0.6424960494041443  0.5777021050453186  1.0000
  I   I2        1.0  0.5504584312438965  0.48072829842567444  0.7122300863265992  1.0000
  I   I3        1.0  0.5542985200881958  0.7454489469528198  0.7319939732551576  1.0000
  I   I4        1.0  0.035794876515865326  0.6685247421264648  0.2690005898475647  1.0000
  Li  Li1       1.0  0.49462956190109253  0.5665158629417419  0.5416590571403503  1.0000
  O   O1        1.0  0.01890740916132927  0.03914915397763252  0.9790053963661195  1.0000
  Tb  Tb1       1.0  0.05963931605219841  0.7208540439605713  0.3211019337177277  1.0000
  Zr  Zr1       1.0  0.06571698933839798  0.0623585544526577  0.8780222535133363  1.0000
