data_image0
_chemical_formula_structural       Bi3O5Re2
_chemical_formula_sum              "Bi3 O5 Re2"
_cell_length_a       4.2213071131110596
_cell_length_b       4.1033311096834
_cell_length_c       6.651494979858398
_cell_angle_alpha    94.42955761930084
_cell_angle_beta     88.27139524184005
_cell_angle_gamma    89.34053135431193

_space_group_name_H-M_alt    "P 1"
_space_group_IT_number       1

loop_
  _space_group_symop_operation_xyz
  'x, y, z'

loop_
  _atom_site_type_symbol
  _atom_site_label
  _atom_site_symmetry_multiplicity
  _atom_site_fract_x
  _atom_site_fract_y
  _atom_site_fract_z
  _atom_site_occupancy
  Bi  Bi1       1.0  0.8300270438194275  0.9717797040939331  0.5744800567626953  1.0000
  Bi  Bi2       1.0  0.8307769894599915  0.0009659508941695094  0.08584479242563248  1.0000
  Bi  Bi3       1.0  0.3275182247161865  0.7993035316467285  0.1889801174402237  1.0000
  O   O1        1.0  0.3207770586013794  0.5065591335296631  0.2922688126564026  1.0000
  O   O2        1.0  0.31946632266044617  0.8690661787986755  0.6658762693405151  1.0000
  O   O3        1.0  0.8290554285049438  0.5145492553710938  0.07976538687944412  1.0000
  O   O4        1.0  0.810088038444519  0.6190048456192017  0.7499234676361084  1.0000
  O   O5        1.0  0.32681775093078613  0.49971646070480347  0.8902910947799683  1.0000
  Re  Re1       1.0  0.3296450078487396  0.6756420731544495  0.6271263957023621  1.0000
  Re  Re2       1.0  0.3292137384414673  0.4749056100845337  0.13746486604213715  1.0000
