data_image0
_chemical_formula_structural       BiILiO2Re4Sb
_chemical_formula_sum              "Bi1 I1 Li1 O2 Re4 Sb1"
_cell_length_a       5.998811629226805
_cell_length_b       5.931850026421909
_cell_length_c       7.295223236083984
_cell_angle_alpha    73.77381400136285
_cell_angle_beta     66.61885463272074
_cell_angle_gamma    60.99048324131265

_space_group_name_H-M_alt    "P 1"
_space_group_IT_number       1

loop_
  _space_group_symop_operation_xyz
  'x, y, z'

loop_
  _atom_site_type_symbol
  _atom_site_label
  _atom_site_symmetry_multiplicity
  _atom_site_fract_x
  _atom_site_fract_y
  _atom_site_fract_z
  _atom_site_occupancy
  Bi  Bi1       1.0  0.8820983171463012  0.30741170048713684  0.5007520318031311  1.0000
  I   I1        1.0  0.4055859446525574  0.2763027548789978  0.5036936402320862  1.0000
  Li  Li1       1.0  0.27670973539352417  0.7027564644813538  0.5330440402030945  1.0000
  O   O1        1.0  0.13940462470054626  0.8438870906829834  0.8940102458000182  1.0000
  O   O2        1.0  0.8137034177780151  0.3987414836883545  0.9663209915161132  1.0000
  Re  Re1       1.0  0.04613276571035385  0.9922990798950195  0.816496968269348  1.0000
  Re  Re2       1.0  0.9931906461715697  0.09028833359479904  0.8036562204360962  1.0000
  Re  Re3       1.0  0.0031889905221760273  0.8472428917884827  0.5371589064598083  1.0000
  Re  Re4       1.0  0.5075581073760986  0.3409149944782257  0.7631374597549437  1.0000
  Sb  Sb1       1.0  0.9138742089271544  0.9172674417495728  0.5550374984741211  1.0000
