data_image0
_chemical_formula_structural       Bi2O5Re3
_chemical_formula_sum              "Bi2 O5 Re3"
_cell_length_a       4.6774817112341465
_cell_length_b       4.645614196709233
_cell_length_c       6.522239685058594
_cell_angle_alpha    107.29299948150526
_cell_angle_beta     104.34232322792218
_cell_angle_gamma    91.48472654752565

_space_group_name_H-M_alt    "P 1"
_space_group_IT_number       1

loop_
  _space_group_symop_operation_xyz
  'x, y, z'

loop_
  _atom_site_type_symbol
  _atom_site_label
  _atom_site_symmetry_multiplicity
  _atom_site_fract_x
  _atom_site_fract_y
  _atom_site_fract_z
  _atom_site_occupancy
  Bi  Bi1       1.0  0.6250375509262085  0.7052100300788879  0.2556439340114593  1.0000
  Bi  Bi2       1.0  0.9636315107345581  0.13019920885562897  0.9108612537384033  1.0000
  O   O1        1.0  0.46233493089675903  0.2010183334350586  0.2898685932159424  1.0000
  O   O2        1.0  0.47040385007858276  0.5562228560447693  0.9828407168388367  1.0000
  O   O3        1.0  0.7714341878890991  0.7449392080307007  0.3410011827945709  1.0000
  O   O4        1.0  0.9568958282470703  0.17294207215309143  0.6134679317474365  1.0000
  O   O5        1.0  0.9606600403785706  0.4136437475681305  0.3285508155822754  1.0000
  Re  Re1       1.0  0.45797380805015564  0.3950398862361908  0.8946429491043091  1.0000
  Re  Re2       1.0  0.14116071164608002  0.3450867831707001  0.8426063656806946  1.0000
  Re  Re3       1.0  0.9575550556182861  0.3564779460430145  0.4326343834400177  1.0000
