data_image0
_chemical_formula_structural       Cs2S7Sc
_chemical_formula_sum              "Cs2 S7 Sc1"
_cell_length_a       6.150511818336296
_cell_length_b       7.828254723089673
_cell_length_c       7.958423137664795
_cell_angle_alpha    116.02001208210972
_cell_angle_beta     110.02510195608582
_cell_angle_gamma    89.07828898789788

_space_group_name_H-M_alt    "P 1"
_space_group_IT_number       1

loop_
  _space_group_symop_operation_xyz
  'x, y, z'

loop_
  _atom_site_type_symbol
  _atom_site_label
  _atom_site_symmetry_multiplicity
  _atom_site_fract_x
  _atom_site_fract_y
  _atom_site_fract_z
  _atom_site_occupancy
  Cs  Cs1       1.0  0.16603384912014008  0.5445389151573181  0.268924742937088  1.0000
  Cs  Cs2       1.0  0.574032723903656  0.21968007087707522  0.6412060856819153  1.0000
  S   S1        1.0  0.11106697469949724  0.8282219767570497  0.7785531282424928  1.0000
  S   S2        1.0  0.10160690546035768  0.7253574132919313  0.814777433872223  1.0000
  S   S3        1.0  0.5843862891197205  0.3095469474792481  0.3919081389904023  1.0000
  S   S4        1.0  0.7875012755393982  0.8450853228569032  0.9467622041702272  1.0000
  S   S5        1.0  0.07310941070318223  0.68798565864563  0.6799322366714478  1.0000
  S   S6        1.0  0.6042258739471436  0.7697693705558778  0.7715306282043458  1.0000
  S   S7        1.0  0.7972041964530945  0.8070620894432069  0.39422562718391424  1.0000
  Sc  Sc1       1.0  0.5822455286979675  0.2498569190502167  0.8272269964218141  1.0000
