data_image0
_chemical_formula_structural       CoCs2MnS3ScSiTl
_chemical_formula_sum              "Co1 Cs2 Mn1 S3 Sc1 Si1 Tl1"
_cell_length_a       5.8772767232389205
_cell_length_b       6.685013365247309
_cell_length_c       6.753859996795654
_cell_angle_alpha    63.612804833423226
_cell_angle_beta     60.15771029160042
_cell_angle_gamma    59.70222048648314

_space_group_name_H-M_alt    "P 1"
_space_group_IT_number       1

loop_
  _space_group_symop_operation_xyz
  'x, y, z'

loop_
  _atom_site_type_symbol
  _atom_site_label
  _atom_site_symmetry_multiplicity
  _atom_site_fract_x
  _atom_site_fract_y
  _atom_site_fract_z
  _atom_site_occupancy
  Co  Co1       1.0  0.8814815282821655  0.33599230647087097  0.7507395744323732  1.0000
  Cs  Cs1       1.0  0.2111089825630188  0.028241289779543877  0.32575109601020813  1.0000
  Cs  Cs2       1.0  0.645665168762207  0.4992055594921112  0.12856248021125788  1.0000
  Mn  Mn1       1.0  0.524717390537262  0.6482038497924805  0.34076434373855596  1.0000
  S   S1        1.0  0.8443117141723633  0.30840200185775757  0.48178657889366155  1.0000
  S   S2        1.0  0.21249011158943176  0.6466608643531799  0.3138023614883423  1.0000
  S   S3        1.0  0.8540521860122681  0.495184063911438  0.826711654663086  1.0000
  Sc  Sc1       1.0  0.23293918371200562  0.5169864892959595  0.10189118236303331  1.0000
  Si  Si1       1.0  0.5695656538009644  0.686874508857727  0.6564943790435791  1.0000
  Tl  Tl1       1.0  0.8998169302940369  0.04173373058438301  0.8033590912818911  1.0000
