data_image0
_chemical_formula_structural       AgCs2PS4ScSi
_chemical_formula_sum              "Ag1 Cs2 P1 S4 Sc1 Si1"
_cell_length_a       5.467828742538458
_cell_length_b       7.3361622431689035
_cell_length_c       8.237290382385254
_cell_angle_alpha    116.41747094172108
_cell_angle_beta     105.68411530670674
_cell_angle_gamma    88.65306026678257

_space_group_name_H-M_alt    "P 1"
_space_group_IT_number       1

loop_
  _space_group_symop_operation_xyz
  'x, y, z'

loop_
  _atom_site_type_symbol
  _atom_site_label
  _atom_site_symmetry_multiplicity
  _atom_site_fract_x
  _atom_site_fract_y
  _atom_site_fract_z
  _atom_site_occupancy
  Ag  Ag1       1.0  0.5881059169769287  0.9607745409011842  0.564495086669922  1.0000
  Cs  Cs1       1.0  0.43168169260025024  0.396216481924057  0.7512723803520203  1.0000
  Cs  Cs2       1.0  0.9218298196792603  0.715647280216217  0.7396115660667419  1.0000
  P   P1        1.0  0.9493727684020996  0.07114642858505249  0.8779829740524292  1.0000
  S   S1        1.0  0.6663103699684143  0.7834688425064087  0.2810314297676087  1.0000
  S   S2        1.0  0.8858233690261841  0.2246423959732056  0.2840352952480316  1.0000
  S   S3        1.0  0.19523699581623077  0.5908565521240234  0.5268649458885193  1.0000
  S   S4        1.0  0.889508843421936  0.2940712571144104  0.9799154996871948  1.0000
  Sc  Sc1       1.0  0.44590550661087036  0.8648946285247803  0.9392781853675842  1.0000
  Si  Si1       1.0  0.38516899943351746  0.25229284167289734  0.24500860273838043  1.0000
