data_image0
_chemical_formula_structural       Ag5CeS2SbSm
_chemical_formula_sum              "Ag5 Ce1 S2 Sb1 Sm1"
_cell_length_a       5.854384109517702
_cell_length_b       6.197724742776945
_cell_length_c       7.977083683013916
_cell_angle_alpha    106.62830739212106
_cell_angle_beta     104.40795537126269
_cell_angle_gamma    86.23898310845202

_space_group_name_H-M_alt    "P 1"
_space_group_IT_number       1

loop_
  _space_group_symop_operation_xyz
  'x, y, z'

loop_
  _atom_site_type_symbol
  _atom_site_label
  _atom_site_symmetry_multiplicity
  _atom_site_fract_x
  _atom_site_fract_y
  _atom_site_fract_z
  _atom_site_occupancy
  Ag  Ag1       1.0  0.9080910682678223  0.36418280005455017  0.3681826889514923  1.0000
  Ag  Ag2       1.0  0.12203504890203476  0.7259781360626221  0.7831693291664124  1.0000
  Ag  Ag3       1.0  0.6848459243774414  0.5887078046798706  0.9057580828666687  1.0000
  Ag  Ag4       1.0  0.10177077353000641  0.6736123561859131  0.978099524974823  1.0000
  Ag  Ag5       1.0  0.4770556688308716  0.7692188620567322  0.18696457147598267  1.0000
  Ce  Ce1       1.0  0.9655177593231201  0.1249714344739914  0.6676322221755981  1.0000
  S   S1        1.0  0.4333701729774475  0.21449986100196838  0.8966257572174072  1.0000
  S   S2        1.0  0.9740456938743591  0.17685824632644653  0.8787990212440491  1.0000
  Sb  Sb1       1.0  0.6654843091964722  0.09994065761566162  0.946216344833374  1.0000
  Sm  Sm1       1.0  0.7718231678009033  0.8468360304832458  0.22830668091773987  1.0000
