data_image0
_chemical_formula_structural       Ag6BiS3
_chemical_formula_sum              "Ag6 Bi1 S3"
_cell_length_a       5.7916554840767365
_cell_length_b       7.493935006110925
_cell_length_c       8.034817695617676
_cell_angle_alpha    119.66635057051752
_cell_angle_beta     96.27073293424746
_cell_angle_gamma    86.84182680817482

_space_group_name_H-M_alt    "P 1"
_space_group_IT_number       1

loop_
  _space_group_symop_operation_xyz
  'x, y, z'

loop_
  _atom_site_type_symbol
  _atom_site_label
  _atom_site_symmetry_multiplicity
  _atom_site_fract_x
  _atom_site_fract_y
  _atom_site_fract_z
  _atom_site_occupancy
  Ag  Ag1       1.0  0.4340805113315582  0.22613383829593658  0.1730049103498459  1.0000
  Ag  Ag2       1.0  0.17852845788002014  0.9424767494201659  0.04240782558917999  1.0000
  Ag  Ag3       1.0  0.3008742034435272  0.16962353885173798  0.8063415884971619  1.0000
  Ag  Ag4       1.0  0.8618085980415344  0.20671619474887848  0.7677037715911865  1.0000
  Ag  Ag5       1.0  0.6833791732788086  0.23461198806762693  0.5186160206794739  1.0000
  Ag  Ag6       1.0  0.8308970332145691  0.4877151250839233  0.7154873013496399  1.0000
  Bi  Bi1       1.0  0.3058513104915619  0.809113085269928  0.24080844223499298  1.0000
  S   S1        1.0  0.12581567466259003  0.45347699522972107  0.5060335993766785  1.0000
  S   S2        1.0  0.7822064757347107  0.6623494625091553  0.023744057863950674  1.0000
  S   S3        1.0  0.6255342364311218  0.9741389155387877  0.47704827785491943  1.0000
