data_image0
_chemical_formula_structural       Cs2S8
_chemical_formula_sum              "Cs2 S8"
_cell_length_a       6.491072909757763
_cell_length_b       7.836947586931968
_cell_length_c       8.601957321166992
_cell_angle_alpha    117.91650970029148
_cell_angle_beta     112.86799283120868
_cell_angle_gamma    86.80638760700417

_space_group_name_H-M_alt    "P 1"
_space_group_IT_number       1

loop_
  _space_group_symop_operation_xyz
  'x, y, z'

loop_
  _atom_site_type_symbol
  _atom_site_label
  _atom_site_symmetry_multiplicity
  _atom_site_fract_x
  _atom_site_fract_y
  _atom_site_fract_z
  _atom_site_occupancy
  Cs  Cs1       1.0  0.47868674993515015  0.29702329635620117  0.26065948605537415  1.0000
  Cs  Cs2       1.0  0.8723320960998535  0.08278695493936539  0.815011739730835  1.0000
  S   S1        1.0  0.9920298457145691  0.32624706625938416  0.16526304185390472  1.0000
  S   S2        1.0  0.6697036623954773  0.20304541289806366  0.9295186400413513  1.0000
  S   S3        1.0  0.6849294900894165  0.6688418388366699  0.6410300731658936  1.0000
  S   S4        1.0  0.8772649765014648  0.3994675278663635  0.8154425621032715  1.0000
  S   S5        1.0  0.2197524905204773  0.002953510731458664  0.44339272379875183  1.0000
  S   S6        1.0  0.896000325679779  0.890680193901062  0.5612488985061647  1.0000
  S   S7        1.0  0.10324206203222275  0.5692405104637146  0.3829568326473237  1.0000
  S   S8        1.0  0.24994392693042755  0.8110959529876709  0.7642594575881959  1.0000
