data_image0
_chemical_formula_structural       Cl4Cs6HMnMo2NNbO
_chemical_formula_sum              "Cl4 Cs6 H1 Mn1 Mo2 N1 Nb1 O1"
_cell_length_a       7.526687518640559
_cell_length_b       7.246786749962086
_cell_length_c       7.654269695281982
_cell_angle_alpha    57.36398869306003
_cell_angle_beta     58.94365966715848
_cell_angle_gamma    59.58152747580037

_space_group_name_H-M_alt    "P 1"
_space_group_IT_number       1

loop_
  _space_group_symop_operation_xyz
  'x, y, z'

loop_
  _atom_site_type_symbol
  _atom_site_label
  _atom_site_symmetry_multiplicity
  _atom_site_fract_x
  _atom_site_fract_y
  _atom_site_fract_z
  _atom_site_occupancy
  Cl  Cl1       1.0  0.5067755579948425  0.12242164462804794  0.8745540380477905  1.0000
  Cl  Cl2       1.0  0.45231339335441595  0.6191093325614929  0.47081658244132996  1.0000
  Cl  Cl3       1.0  0.033184584230184555  0.620434582233429  0.8784146904945375  1.0000
  Cl  Cl4       1.0  0.7874565720558168  0.9990231990814209  0.6354714632034302  1.0000
  Cs  Cs1       1.0  0.3581896126270295  0.41799911856651306  0.563585102558136  1.0000
  Cs  Cs2       1.0  0.3688830435276032  0.8471841216087341  0.3215638995170593  1.0000
  Cs  Cs3       1.0  0.3568244874477387  0.9239858984947205  0.032630518078804016  1.0000
  Cs  Cs4       1.0  0.684179961681366  0.19144508242607117  0.8001569509506226  1.0000
  Cs  Cs5       1.0  0.021784354001283646  0.13462236523628235  0.999057114124298  1.0000
  Cs  Cs6       1.0  0.37015211582183843  0.6484706997871399  0.0815337747335434  1.0000
  H   H1        1.0  0.8283780217170716  0.08879240602254868  0.5213954448699951  1.0000
  Mn  Mn1       1.0  0.7735590934753419  0.5761176943778992  0.6348592042922974  1.0000
  Mo  Mo1       1.0  0.679672122001648  0.4094639718532562  0.6712502837181091  1.0000
  Mo  Mo2       1.0  0.6902658939361572  0.9006760716438293  0.8400762677192688  1.0000
  N   N1        1.0  0.7074187397956849  0.08071121573448181  0.008027552627026978  1.0000
  Nb  Nb1       1.0  0.026546563953161243  0.6736097931861877  0.6363072395324707  1.0000
  O   O1        1.0  0.38699322938919073  0.5982279181480408  0.36480364203453064  1.0000
