data_image0
_chemical_formula_structural       Cl5Cs5HHfMnMo2NO
_chemical_formula_sum              "Cl5 Cs5 H1 Hf1 Mn1 Mo2 N1 O1"
_cell_length_a       7.853815707951801
_cell_length_b       7.825535687688516
_cell_length_c       7.972049236297607
_cell_angle_alpha    62.0352957634387
_cell_angle_beta     62.3733128892809
_cell_angle_gamma    61.26525981487624

_space_group_name_H-M_alt    "P 1"
_space_group_IT_number       1

loop_
  _space_group_symop_operation_xyz
  'x, y, z'

loop_
  _atom_site_type_symbol
  _atom_site_label
  _atom_site_symmetry_multiplicity
  _atom_site_fract_x
  _atom_site_fract_y
  _atom_site_fract_z
  _atom_site_occupancy
  Cl  Cl1       1.0  0.26413199305534363  0.9049850702285767  0.4833033978939057  1.0000
  Cl  Cl2       1.0  0.5429360270500183  0.19578593969345093  0.05101670697331435  1.0000
  Cl  Cl3       1.0  0.08541756123304367  0.48193904757499695  0.12094741314649583  1.0000
  Cl  Cl4       1.0  0.2127944231033325  0.47717714309692383  0.42112761735916143  1.0000
  Cl  Cl5       1.0  0.0648103728890419  0.645377516746521  0.4861783683300019  1.0000
  Cs  Cs1       1.0  0.129598930478096  0.16867011785507202  0.20030674338340765  1.0000
  Cs  Cs2       1.0  0.8768395781517028  0.6032124161720276  0.30544960498809826  1.0000
  Cs  Cs3       1.0  0.39400705695152277  0.9888352751731873  0.8024032711982728  1.0000
  Cs  Cs4       1.0  0.9001000523567199  0.9820482730865479  0.7634404301643373  1.0000
  Cs  Cs5       1.0  0.12325606495141982  0.6711092591285706  0.0072853756137192536  1.0000
  H   H1        1.0  0.39004805684089655  0.6972998976707458  0.5438796877861023  1.0000
  Hf  Hf1       1.0  0.28187698125839233  0.4843335747718811  0.7276737093925476  1.0000
  Mn  Mn1       1.0  0.556333065032959  0.3041549324989319  0.3238358497619629  1.0000
  Mo  Mo1       1.0  0.4943025410175323  0.19247008860111237  0.8554283380508424  1.0000
  Mo  Mo2       1.0  0.501007616519928  0.7824403047561646  0.3585808575153351  1.0000
  N   N1        1.0  0.4051902592182159  0.19472546875476837  0.6958376169204712  1.0000
  O   O1        1.0  0.1311405599117279  0.5894519090652466  0.03342501074075699  1.0000
