data_image0
_chemical_formula_structural       Cl6Cs3H2Mo4NO
_chemical_formula_sum              "Cl6 Cs3 H2 Mo4 N1 O1"
_cell_length_a       7.617825946940015
_cell_length_b       7.679947296518128
_cell_length_c       7.862687587738037
_cell_angle_alpha    67.71433063795224
_cell_angle_beta     67.12950636494004
_cell_angle_gamma    63.986304098594125

_space_group_name_H-M_alt    "P 1"
_space_group_IT_number       1

loop_
  _space_group_symop_operation_xyz
  'x, y, z'

loop_
  _atom_site_type_symbol
  _atom_site_label
  _atom_site_symmetry_multiplicity
  _atom_site_fract_x
  _atom_site_fract_y
  _atom_site_fract_z
  _atom_site_occupancy
  Cl  Cl1       1.0  0.7979345917701721  0.48622021079063416  0.06492684781551361  1.0000
  Cl  Cl2       1.0  0.565173864364624  0.04154651612043381  0.6006101369857788  1.0000
  Cl  Cl3       1.0  0.03748862072825432  0.17252177000045776  0.5047481060028076  1.0000
  Cl  Cl4       1.0  0.2811638116836548  0.8572830557823181  0.16533280909061435  1.0000
  Cl  Cl5       1.0  0.6362128257751465  0.7387669086456299  0.18068817257881167  1.0000
  Cl  Cl6       1.0  0.5546596646308899  0.7210353016853333  0.6295799612998964  1.0000
  Cs  Cs1       1.0  0.002773761749267578  0.5266686677932739  0.9335143566131593  1.0000
  Cs  Cs2       1.0  0.8031166791915894  0.5317409038543701  0.11390147358179094  1.0000
  Cs  Cs3       1.0  0.01837390474975109  0.06103973090648651  0.9398425221443177  1.0000
  H   H1        1.0  0.6139525175094604  0.96091628074646  0.915151596069336  1.0000
  H   H2        1.0  0.7401305437088013  0.19432781636714935  0.873672902584076  1.0000
  Mo  Mo1       1.0  0.47654807567596436  0.36053311824798584  0.9543728232383729  1.0000
  Mo  Mo2       1.0  0.9214290380477905  0.049566783010959625  0.9154239296913148  1.0000
  Mo  Mo3       1.0  0.5300830602645874  0.5526939630508423  0.002404320286586895  1.0000
  Mo  Mo4       1.0  0.41971200704574585  0.26561760902404785  0.7873034477233888  1.0000
  N   N1        1.0  0.29236242175102234  0.7771718502044678  0.0349605567753315  1.0000
  O   O1        1.0  0.9152950644493103  0.20596306025981903  0.17424722015857705  1.0000
