data_image0
_chemical_formula_structural       Ce3Cl2Mo7NNbO3
_chemical_formula_sum              "Ce3 Cl2 Mo7 N1 Nb1 O3"
_cell_length_a       7.301405225586606
_cell_length_b       7.16086891295761
_cell_length_c       7.255788326263428
_cell_angle_alpha    66.38954832973873
_cell_angle_beta     60.950881672055985
_cell_angle_gamma    61.42742468132752

_space_group_name_H-M_alt    "P 1"
_space_group_IT_number       1

loop_
  _space_group_symop_operation_xyz
  'x, y, z'

loop_
  _atom_site_type_symbol
  _atom_site_label
  _atom_site_symmetry_multiplicity
  _atom_site_fract_x
  _atom_site_fract_y
  _atom_site_fract_z
  _atom_site_occupancy
  Ce  Ce1       1.0  0.7941118478775024  0.3038756549358368  0.2152208834886551  1.0000
  Ce  Ce2       1.0  0.42773064970970154  0.24101221561431882  0.06683722883462906  1.0000
  Ce  Ce3       1.0  0.39568835496902466  0.12097693979740141  0.9231809973716737  1.0000
  Cl  Cl1       1.0  0.5760769844055176  0.7026264071464539  0.23995317518711093  1.0000
  Cl  Cl2       1.0  0.07115875184535982  0.2192418575286865  0.020825278013944626  1.0000
  Mo  Mo1       1.0  0.4396522641181946  0.05765028670430183  0.5604190230369568  1.0000
  Mo  Mo2       1.0  0.7016653418540955  0.5483428239822388  0.28927692770957947  1.0000
  Mo  Mo3       1.0  0.9395972490310669  0.5581055879592896  0.08395681530237198  1.0000
  Mo  Mo4       1.0  0.04186422750353813  0.7852308750152588  0.5011430978775024  1.0000
  Mo  Mo5       1.0  0.3213590085506439  0.4940569698810577  0.7875770926475525  1.0000
  Mo  Mo6       1.0  0.4169551730155945  0.7781788110733032  0.4606866538524628  1.0000
  Mo  Mo7       1.0  0.9112908840179443  0.20009982585906982  0.7359676957130432  1.0000
  N   N1        1.0  0.7764369249343872  0.30836471915245056  0.5524782538414001  1.0000
  Nb  Nb1       1.0  0.7830493450164795  0.8091559410095215  0.45446076989173895  1.0000
  O   O1        1.0  0.9296044707298279  0.5675812363624573  0.2357774078845978  1.0000
  O   O2        1.0  0.7564936876296997  0.8564054369926452  0.06248315423727036  1.0000
  O   O3        1.0  0.11647208780050278  0.6661211848258972  0.6053633093833923  1.0000
