data_image0
_chemical_formula_structural       Cl8Cs3MoNO3U
_chemical_formula_sum              "Cl8 Cs3 Mo1 N1 O3 U1"
_cell_length_a       8.031609266483592
_cell_length_b       7.79114635295563
_cell_length_c       7.640971660614014
_cell_angle_alpha    64.13948282143487
_cell_angle_beta     65.36822097024506
_cell_angle_gamma    65.52865662632242

_space_group_name_H-M_alt    "P 1"
_space_group_IT_number       1

loop_
  _space_group_symop_operation_xyz
  'x, y, z'

loop_
  _atom_site_type_symbol
  _atom_site_label
  _atom_site_symmetry_multiplicity
  _atom_site_fract_x
  _atom_site_fract_y
  _atom_site_fract_z
  _atom_site_occupancy
  Cl  Cl1       1.0  0.17388726770877838  0.5190434455871582  0.5962746143341064  1.0000
  Cl  Cl2       1.0  0.2904279828071594  0.7071494460105896  0.8605437278747559  1.0000
  Cl  Cl3       1.0  0.7714467644691467  0.6716169118881226  0.8578032851219177  1.0000
  Cl  Cl4       1.0  0.03712077438831329  0.19444823265075684  0.22593721747398376  1.0000
  Cl  Cl5       1.0  0.9854916930198669  0.9294978976249695  0.5940281748771667  1.0000
  Cl  Cl6       1.0  0.3757964074611664  0.4160158336162567  0.2656700015068054  1.0000
  Cl  Cl7       1.0  0.20939776301383972  0.16630880534648895  0.5923269987106323  1.0000
  Cl  Cl8       1.0  0.8674525618553162  0.7078974843025208  0.608845055103302  1.0000
  Cs  Cs1       1.0  0.683164119720459  0.20656932890415192  0.23604051768779746  1.0000
  Cs  Cs2       1.0  0.09827842563390732  0.9185765385627747  0.8306875228881836  1.0000
  Cs  Cs3       1.0  0.14769722521305084  0.7297788858413696  0.0350399948656559  1.0000
  Mo  Mo1       1.0  0.18819557130336761  0.1701609194278717  0.5202060341835022  1.0000
  N   N1        1.0  0.6015597581863403  0.7786465287208557  0.09985142946243286  1.0000
  O   O1        1.0  0.7694991230964661  0.24050574004650116  0.8658012747764587  1.0000
  O   O2        1.0  0.2606300115585327  0.7815873622894287  0.6009605526924133  1.0000
  O   O3        1.0  0.37375691533088684  0.09347444772720337  0.3280881345272064  1.0000
  U   U1        1.0  0.38863804936408997  0.9043262004852295  0.7746691703796387  1.0000
