data_image0
_chemical_formula_structural       AlCe2Cl3Mo6NO4
_chemical_formula_sum              "Al1 Ce2 Cl3 Mo6 N1 O4"
_cell_length_a       6.358424093119909
_cell_length_b       7.348352034600424
_cell_length_c       8.340167999267578
_cell_angle_alpha    88.87602558403822
_cell_angle_beta     66.10193925532045
_cell_angle_gamma    68.64684495179858

_space_group_name_H-M_alt    "P 1"
_space_group_IT_number       1

loop_
  _space_group_symop_operation_xyz
  'x, y, z'

loop_
  _atom_site_type_symbol
  _atom_site_label
  _atom_site_symmetry_multiplicity
  _atom_site_fract_x
  _atom_site_fract_y
  _atom_site_fract_z
  _atom_site_occupancy
  Al  Al1       1.0  0.47852790355682373  0.39980506896972656  0.005113848019391298  1.0000
  Ce  Ce1       1.0  0.4998948872089386  0.5925605297088623  0.463492214679718  1.0000
  Ce  Ce2       1.0  0.43267393112182617  0.43416082859039307  0.7333310842514038  1.0000
  Cl  Cl1       1.0  0.20280762016773224  0.6076200008392334  0.06805805116891861  1.0000
  Cl  Cl2       1.0  0.776771605014801  0.33628952503204346  0.0275627002120018  1.0000
  Cl  Cl3       1.0  0.4279320240020752  0.7349696159362793  0.36218541860580444  1.0000
  Mo  Mo1       1.0  0.8260979056358337  0.7147418856620789  0.24766993522644043  1.0000
  Mo  Mo2       1.0  0.7731292247772217  0.1354086846113205  0.7671992182731628  1.0000
  Mo  Mo3       1.0  0.23963408172130585  0.12183793634176254  0.8599105477333069  1.0000
  Mo  Mo4       1.0  0.363318532705307  0.2167140543460846  0.7775314450263976  1.0000
  Mo  Mo5       1.0  0.7553369402885437  0.6168519258499146  0.7055094242095947  1.0000
  Mo  Mo6       1.0  0.8732494115829468  0.7106839418411255  0.29457202553749084  1.0000
  N   N1        1.0  0.4228947162628174  0.06795748323202133  0.23260307312011722  1.0000
  O   O1        1.0  0.5014959573745728  0.9958786964416504  0.015364411287009688  1.0000
  O   O2        1.0  0.9117853045463562  0.8403096199035645  0.11876855045557022  1.0000
  O   O3        1.0  0.3160179555416107  0.08238297700881958  0.16637209057807922  1.0000
  O   O4        1.0  0.3604471683502197  0.7272564172744751  0.28562068939208984  1.0000
