data_image0
_chemical_formula_structural       CoGe4P2PbPr2U
_chemical_formula_sum              "Co1 Ge4 P2 Pb1 Pr2 U1"
_cell_length_a       6.4860458371421466
_cell_length_b       6.937718805048944
_cell_length_c       7.440189838409424
_cell_angle_alpha    67.61347059838177
_cell_angle_beta     65.57077125699871
_cell_angle_gamma    62.86404344452407

_space_group_name_H-M_alt    "P 1"
_space_group_IT_number       1

loop_
  _space_group_symop_operation_xyz
  'x, y, z'

loop_
  _atom_site_type_symbol
  _atom_site_label
  _atom_site_symmetry_multiplicity
  _atom_site_fract_x
  _atom_site_fract_y
  _atom_site_fract_z
  _atom_site_occupancy
  Co  Co1       1.0  0.43928053975105286  0.9708510041236877  0.5071650743484497  1.0000
  Ge  Ge1       1.0  0.45607873797416687  0.18245869874954224  0.29337865114212036  1.0000
  Ge  Ge2       1.0  0.45685556530952454  0.4760400056838989  0.012612308375537454  1.0000
  Ge  Ge3       1.0  0.6675959229469299  0.9220719337463379  0.7286208271980285  1.0000
  Ge  Ge4       1.0  0.8474891185760498  0.6509953737258911  0.9223266839981078  1.0000
  P   P1        1.0  0.4416827857494354  0.6185764670372009  0.000506264390423879  1.0000
  P   P2        1.0  0.6252497434616089  0.6569870710372925  0.6578102111816405  1.0000
  Pb  Pb1       1.0  0.08460911363363266  0.30791595578193665  0.47772988677024836  1.0000
  Pr  Pr1       1.0  0.1444326639175415  0.9763309955596924  0.7414677143096923  1.0000
  Pr  Pr2       1.0  0.8011323809623718  0.8091305494308472  0.3836637139320373  1.0000
  U   U1        1.0  0.16330841183662415  0.2003452181816101  0.16684930026531217  1.0000
