data_image0
_chemical_formula_structural       BrCo2Ge4Pb2Pr2
_chemical_formula_sum              "Br1 Co2 Ge4 Pb2 Pr2"
_cell_length_a       4.845137726445356
_cell_length_b       6.438799012012361
_cell_length_c       8.909653663635254
_cell_angle_alpha    94.72429702238706
_cell_angle_beta     93.20947061508632
_cell_angle_gamma    87.78699236360325

_space_group_name_H-M_alt    "P 1"
_space_group_IT_number       1

loop_
  _space_group_symop_operation_xyz
  'x, y, z'

loop_
  _atom_site_type_symbol
  _atom_site_label
  _atom_site_symmetry_multiplicity
  _atom_site_fract_x
  _atom_site_fract_y
  _atom_site_fract_z
  _atom_site_occupancy
  Br  Br1       1.0  0.8297352194786072  0.45602113008499146  0.24077726900577545  1.0000
  Co  Co1       1.0  0.3233918845653534  0.09465949237346649  0.3454819321632385  1.0000
  Co  Co2       1.0  0.8229877352714539  0.5707488656044006  0.36883416771888733  1.0000
  Ge  Ge1       1.0  0.8205342292785645  0.7500988841056824  0.8452067375183105  1.0000
  Ge  Ge2       1.0  0.8190636038780212  0.5764411091804504  0.8758147358894348  1.0000
  Ge  Ge3       1.0  0.8405570387840271  0.7989909648895264  0.17047031223773956  1.0000
  Ge  Ge4       1.0  0.32096153497695923  0.08302763849496841  0.748939573764801  1.0000
  Pb  Pb1       1.0  0.36010998487472534  0.4712356925010681  0.2986743450164795  1.0000
  Pb  Pb2       1.0  0.31932076811790466  0.5680097937583923  0.9697091579437256  1.0000
  Pr  Pr1       1.0  0.31376147270202637  0.09525961428880692  0.6804452538490295  1.0000
  Pr  Pr2       1.0  0.3495059609413147  0.33474859595298767  0.63045734167099  1.0000
