data_image0
_chemical_formula_structural       Co2Ge6IPPr
_chemical_formula_sum              "Co2 Ge6 I1 P1 Pr1"
_cell_length_a       5.436536155978522
_cell_length_b       5.838520742436542
_cell_length_c       7.721315383911133
_cell_angle_alpha    98.03722347290784
_cell_angle_beta     103.72720315955776
_cell_angle_gamma    112.86347357489593

_space_group_name_H-M_alt    "P 1"
_space_group_IT_number       1

loop_
  _space_group_symop_operation_xyz
  'x, y, z'

loop_
  _atom_site_type_symbol
  _atom_site_label
  _atom_site_symmetry_multiplicity
  _atom_site_fract_x
  _atom_site_fract_y
  _atom_site_fract_z
  _atom_site_occupancy
  Co  Co1       1.0  0.671862781047821  0.39253732562065125  0.05630440264940262  1.0000
  Co  Co2       1.0  0.21873071789741516  0.054741162806749344  0.2185763120651245  1.0000
  Ge  Ge1       1.0  0.7331534624099731  0.9644320607185364  0.06942801922559738  1.0000
  Ge  Ge2       1.0  0.7469775080680847  0.016690406948328018  0.7263271808624268  1.0000
  Ge  Ge3       1.0  0.8375124335289001  0.4743449091911316  0.2016047090291977  1.0000
  Ge  Ge4       1.0  0.6986827850341797  0.24561622738838196  0.6502020359039307  1.0000
  Ge  Ge5       1.0  0.27350282669067383  0.6969343423843384  0.8181864023208618  1.0000
  Ge  Ge6       1.0  0.22648799419403076  0.2503846287727356  0.6159157752990723  1.0000
  I   I1        1.0  0.2132604867219925  0.22306114435195923  0.4148222506046295  1.0000
  P   P1        1.0  0.8548259139060974  0.6372716426849365  0.7761014699935913  1.0000
  Pr  Pr1       1.0  0.20969785749912262  0.7322772741317749  0.14174744486808777  1.0000
