data_image0
_chemical_formula_structural       Co5Ge5Pr
_chemical_formula_sum              "Co5 Ge5 Pr1"
_cell_length_a       4.665158047150617
_cell_length_b       5.178520547335331
_cell_length_c       5.929003715515137
_cell_angle_alpha    89.27481305893654
_cell_angle_beta     87.44794371411044
_cell_angle_gamma    91.00134347818722

_space_group_name_H-M_alt    "P 1"
_space_group_IT_number       1

loop_
  _space_group_symop_operation_xyz
  'x, y, z'

loop_
  _atom_site_type_symbol
  _atom_site_label
  _atom_site_symmetry_multiplicity
  _atom_site_fract_x
  _atom_site_fract_y
  _atom_site_fract_z
  _atom_site_occupancy
  Co  Co1       1.0  0.6776883602142334  0.1965792328119278  0.01123753935098648  1.0000
  Co  Co2       1.0  0.16591618955135345  0.5294557213783264  0.7053424715995789  1.0000
  Co  Co3       1.0  0.16132566332817078  0.7263041734695435  0.08685331791639328  1.0000
  Co  Co4       1.0  0.16028623282909393  0.2671305239200592  0.3582339286804199  1.0000
  Co  Co5       1.0  0.6652451753616333  0.0009892461821436882  0.8507542610168457  1.0000
  Ge  Ge1       1.0  0.6705455183982849  0.8631430864334106  0.5220398902893066  1.0000
  Ge  Ge2       1.0  0.15169328451156616  0.9547770023345947  0.2693440318107605  1.0000
  Ge  Ge3       1.0  0.4128541350364685  0.13301371037960052  0.4991223216056824  1.0000
  Ge  Ge4       1.0  0.6823348999023438  0.20486150681972504  0.28438717126846313  1.0000
  Ge  Ge5       1.0  0.663631796836853  0.09841150045394897  0.8913227319717407  1.0000
  Pr  Pr1       1.0  0.1546606421470642  0.828704833984375  0.10657265782356262  1.0000
