data_image0
_chemical_formula_structural       Co5Ge5Pr
_chemical_formula_sum              "Co5 Ge5 Pr1"
_cell_length_a       5.496217797826141
_cell_length_b       5.6446440915085665
_cell_length_c       6.240309715270996
_cell_angle_alpha    89.57985476900807
_cell_angle_beta     90.54222444734731
_cell_angle_gamma    93.1737994258588

_space_group_name_H-M_alt    "P 1"
_space_group_IT_number       1

loop_
  _space_group_symop_operation_xyz
  'x, y, z'

loop_
  _atom_site_type_symbol
  _atom_site_label
  _atom_site_symmetry_multiplicity
  _atom_site_fract_x
  _atom_site_fract_y
  _atom_site_fract_z
  _atom_site_occupancy
  Co  Co1       1.0  0.975728929042816  0.6513485908508301  0.3229278326034546  1.0000
  Co  Co2       1.0  0.6867190003395081  0.8571350574493408  0.04483778029680252  1.0000
  Co  Co3       1.0  0.18689550459384918  0.8376779556274414  0.5644837617874146  1.0000
  Co  Co4       1.0  0.4685972034931183  0.9554017186164856  0.11794990301132202  1.0000
  Co  Co5       1.0  0.1996484249830246  0.9188432097434998  0.7341102957725525  1.0000
  Ge  Ge1       1.0  0.43160736560821533  0.08267584443092346  0.8362830877304077  1.0000
  Ge  Ge2       1.0  0.7076228857040405  0.12458734959363937  0.9595121741294861  1.0000
  Ge  Ge3       1.0  0.6818162202835083  0.3191390931606293  0.11508631706237793  1.0000
  Ge  Ge4       1.0  0.20566223561763763  0.674608588218689  0.5611333250999451  1.0000
  Ge  Ge5       1.0  0.7196487784385681  0.6119463443756104  0.8383935689926146  1.0000
  Pr  Pr1       1.0  0.24828179180622098  0.424265056848526  0.2922942340373993  1.0000
