data_image0
_chemical_formula_structural       Co2Ge7PPr
_chemical_formula_sum              "Co2 Ge7 P1 Pr1"
_cell_length_a       4.17471411351316
_cell_length_b       6.481613361516596
_cell_length_c       8.627828598022461
_cell_angle_alpha    92.6998180724821
_cell_angle_beta     99.88891921304273
_cell_angle_gamma    93.9581868563406

_space_group_name_H-M_alt    "P 1"
_space_group_IT_number       1

loop_
  _space_group_symop_operation_xyz
  'x, y, z'

loop_
  _atom_site_type_symbol
  _atom_site_label
  _atom_site_symmetry_multiplicity
  _atom_site_fract_x
  _atom_site_fract_y
  _atom_site_fract_z
  _atom_site_occupancy
  Co  Co1       1.0  0.7614145278930664  0.45278000831604004  0.46444377303123474  1.0000
  Co  Co2       1.0  0.23528142273426056  0.06766577810049057  0.7055927515029907  1.0000
  Ge  Ge1       1.0  0.2271265685558319  0.9994186162948608  0.09422863274812698  1.0000
  Ge  Ge2       1.0  0.25024154782295227  0.2197030782699585  0.8303345441818237  1.0000
  Ge  Ge3       1.0  0.7538589835166931  0.8171933889389038  0.6017082929611206  1.0000
  Ge  Ge4       1.0  0.9968376159667969  0.547262966632843  0.3165353238582611  1.0000
  Ge  Ge5       1.0  0.24454742670059204  0.9748715162277222  0.7498307228088379  1.0000
  Ge  Ge6       1.0  0.7286848425865173  0.5462976694107056  0.7628298401832581  1.0000
  Ge  Ge7       1.0  0.7546812891960144  0.19710123538970947  0.8990350961685181  1.0000
  P   P1        1.0  0.2711229622364044  0.7467984557151794  0.12624076008796692  1.0000
  Pr  Pr1       1.0  0.23971475660800934  0.06546195596456528  0.885420560836792  1.0000
