data_image0
_chemical_formula_structural       GaIIn2ZnZr6
_chemical_formula_sum              "Ga1 I1 In2 Zn1 Zr6"
_cell_length_a       5.711645844569108
_cell_length_b       5.5251290695829445
_cell_length_c       7.141422271728516
_cell_angle_alpha    95.91197055790056
_cell_angle_beta     89.74513336254657
_cell_angle_gamma    90.27607747399188

_space_group_name_H-M_alt    "P 1"
_space_group_IT_number       1

loop_
  _space_group_symop_operation_xyz
  'x, y, z'

loop_
  _atom_site_type_symbol
  _atom_site_label
  _atom_site_symmetry_multiplicity
  _atom_site_fract_x
  _atom_site_fract_y
  _atom_site_fract_z
  _atom_site_occupancy
  Ga  Ga1       1.0  0.20343194901943207  0.8130056858062744  0.438459724187851  1.0000
  I   I1        1.0  0.6977881193161011  0.15889127552509308  0.07764427363872528  1.0000
  In  In1       1.0  0.7054396867752075  0.8012123107910156  0.0863638073205948  1.0000
  In  In2       1.0  0.6999770998954773  0.8916441798210144  0.6653571128845216  1.0000
  Zn  Zn1       1.0  0.1996479332447052  0.7290677428245544  0.6963917613029481  1.0000
  Zr  Zr1       1.0  0.6992259621620178  0.4191172122955322  0.08474043011665346  1.0000
  Zr  Zr2       1.0  0.6996530890464783  0.67214035987854  0.5662394762039185  1.0000
  Zr  Zr3       1.0  0.19881939888000488  0.7625755071640015  0.46706211566925054  1.0000
  Zr  Zr4       1.0  0.20046885311603546  0.11177880316972733  0.8158559203147889  1.0000
  Zr  Zr5       1.0  0.699683666229248  0.5059995055198669  0.6538698673248291  1.0000
  Zr  Zr6       1.0  0.2010333091020584  0.2966059148311615  0.08778743445873262  1.0000
