data_image0
_chemical_formula_structural       FInPbZn2Zr6
_chemical_formula_sum              "F1 In1 Pb1 Zn2 Zr6"
_cell_length_a       4.974758588084139
_cell_length_b       5.801201642085213
_cell_length_c       6.908924579620361
_cell_angle_alpha    124.32766628188298
_cell_angle_beta     87.46472042690824
_cell_angle_gamma    90.55982635134272

_space_group_name_H-M_alt    "P 1"
_space_group_IT_number       1

loop_
  _space_group_symop_operation_xyz
  'x, y, z'

loop_
  _atom_site_type_symbol
  _atom_site_label
  _atom_site_symmetry_multiplicity
  _atom_site_fract_x
  _atom_site_fract_y
  _atom_site_fract_z
  _atom_site_occupancy
  F   F1        1.0  0.1730966866016388  0.9637026786804199  0.30540391802787786  1.0000
  In  In1       1.0  0.8150160312652588  0.6142662763595581  0.14908552169799807  1.0000
  Pb  Pb1       1.0  0.31513264775276184  0.6793031096458435  0.17753286659717568  1.0000
  Zn  Zn1       1.0  0.8133944869041443  0.9949485063552856  0.9984434247016909  1.0000
  Zn  Zn2       1.0  0.8130379319190979  0.022844498977065086  0.29428398609161377  1.0000
  Zr  Zr1       1.0  0.07543749362230301  0.6114721298217773  0.5520570874214172  1.0000
  Zr  Zr2       1.0  0.8169153332710266  0.6243097186088562  0.7074803709983826  1.0000
  Zr  Zr3       1.0  0.5766493678092957  0.47104042768478394  0.11122621595859535  1.0000
  Zr  Zr4       1.0  0.31602397561073303  0.030242888256907463  0.9417040944099426  1.0000
  Zr  Zr5       1.0  0.8157688975334167  0.07870463281869888  0.9904829263687135  1.0000
  Zr  Zr6       1.0  0.3507944643497467  0.34574174880981445  0.3906652331352234  1.0000
