data_image0
_chemical_formula_structural       FZnZr9
_chemical_formula_sum              "F1 Zn1 Zr9"
_cell_length_a       4.881919366798816
_cell_length_b       6.0781986565034325
_cell_length_c       6.21491003036499
_cell_angle_alpha    121.479562024794
_cell_angle_beta     87.4989051280317
_cell_angle_gamma    92.0069406077563

_space_group_name_H-M_alt    "P 1"
_space_group_IT_number       1

loop_
  _space_group_symop_operation_xyz
  'x, y, z'

loop_
  _atom_site_type_symbol
  _atom_site_label
  _atom_site_symmetry_multiplicity
  _atom_site_fract_x
  _atom_site_fract_y
  _atom_site_fract_z
  _atom_site_occupancy
  F   F1        1.0  0.7082591652870178  0.2627652585506439  0.8107439875602722  1.0000
  Zn  Zn1       1.0  0.22177758812904358  0.06813310831785202  0.31058013439178467  1.0000
  Zr  Zr1       1.0  0.9882128834724426  0.8100374937057495  0.3779314756393433  1.0000
  Zr  Zr2       1.0  0.239034503698349  0.841391384601593  0.5917009115219116  1.0000
  Zr  Zr3       1.0  0.7290404438972473  0.29109787940979004  0.3113844692707062  1.0000
  Zr  Zr4       1.0  0.9898170828819275  0.3583548665046692  0.917168915271759  1.0000
  Zr  Zr5       1.0  0.726816713809967  0.08328980952501297  0.8275946974754333  1.0000
  Zr  Zr6       1.0  0.2278844565153122  0.7809799909591675  0.7740797996520996  1.0000
  Zr  Zr7       1.0  0.7267680168151855  0.5505226850509644  0.6999075412750244  1.0000
  Zr  Zr8       1.0  0.7260568141937256  0.5583838224411011  0.3467496931552887  1.0000
  Zr  Zr9       1.0  0.23704271018505096  0.9003687500953674  0.8332385420799255  1.0000
