data_image0
_chemical_formula_structural       CuHInPbZr7
_chemical_formula_sum              "Cu1 H1 In1 Pb1 Zr7"
_cell_length_a       5.069779138066096
_cell_length_b       6.889801710070142
_cell_length_c       7.354275703430176
_cell_angle_alpha    123.50463077571997
_cell_angle_beta     90.88749464426816
_cell_angle_gamma    87.22492348636452

_space_group_name_H-M_alt    "P 1"
_space_group_IT_number       1

loop_
  _space_group_symop_operation_xyz
  'x, y, z'

loop_
  _atom_site_type_symbol
  _atom_site_label
  _atom_site_symmetry_multiplicity
  _atom_site_fract_x
  _atom_site_fract_y
  _atom_site_fract_z
  _atom_site_occupancy
  Cu  Cu1       1.0  0.5474108457565308  0.417147159576416  0.15836478769779205  1.0000
  H   H1        1.0  0.5577015280723572  0.10189948230981827  0.6171469688415527  1.0000
  In  In1       1.0  0.042839135974645615  0.1488567441701889  0.33117181062698364  1.0000
  Pb  Pb1       1.0  0.5921601057052612  0.4483608901500702  0.17568108439445496  1.0000
  Zr  Zr1       1.0  0.052475012838840485  0.4117356836795807  0.062446530908346176  1.0000
  Zr  Zr2       1.0  0.06008550524711609  0.28637808561325073  0.10996386408805844  1.0000
  Zr  Zr3       1.0  0.06107905134558678  0.7792991995811462  0.18150822818279266  1.0000
  Zr  Zr4       1.0  0.05592557415366173  0.03265887498855591  0.10592515021562576  1.0000
  Zr  Zr5       1.0  0.05209331214427948  0.0734211727976799  0.8527435064315796  1.0000
  Zr  Zr6       1.0  0.5451393723487854  0.02181166037917137  0.6852477788925171  1.0000
  Zr  Zr7       1.0  0.04840585216879845  0.7774537801742554  0.8948947787284851  1.0000
