data_image0
_chemical_formula_structural       Cu2In2Zr7
_chemical_formula_sum              "Cu2 In2 Zr7"
_cell_length_a       4.49563866377374
_cell_length_b       5.020505711860796
_cell_length_c       5.7525954246521
_cell_angle_alpha    127.12275913848087
_cell_angle_beta     93.89221062775927
_cell_angle_gamma    104.78857393537045

_space_group_name_H-M_alt    "P 1"
_space_group_IT_number       1

loop_
  _space_group_symop_operation_xyz
  'x, y, z'

loop_
  _atom_site_type_symbol
  _atom_site_label
  _atom_site_symmetry_multiplicity
  _atom_site_fract_x
  _atom_site_fract_y
  _atom_site_fract_z
  _atom_site_occupancy
  Cu  Cu1       1.0  0.0020072460174560547  0.6362363696098328  0.6820102334022522  1.0000
  Cu  Cu2       1.0  0.5028362274169922  0.19295693933963776  0.718070924282074  1.0000
  In  In1       1.0  0.14747929573059082  0.24886512756347653  0.8570137619972229  1.0000
  In  In2       1.0  0.7365157604217529  0.7906307578086853  0.8004401922225952  1.0000
  Zr  Zr1       1.0  0.7519196271896362  0.9169607162475585  0.6839432716369629  1.0000
  Zr  Zr2       1.0  0.1647629737854004  0.3910338878631592  0.0010627994779497192  1.0000
  Zr  Zr3       1.0  0.7318296432495117  0.41800987720489496  0.35807475447654724  1.0000
  Zr  Zr4       1.0  0.007377699017524719  0.16526482999324799  0.6431291103363037  1.0000
  Zr  Zr5       1.0  0.4996480345726013  0.3387986123561859  0.680668294429779  1.0000
  Zr  Zr6       1.0  0.2640715539455414  0.6614750027656555  0.147244393825531  1.0000
  Zr  Zr7       1.0  0.6978527903556824  0.3785081207752228  0.49683371186256403  1.0000
