data_image0
_chemical_formula_structural       Cu2In2Zr7
_chemical_formula_sum              "Cu2 In2 Zr7"
_cell_length_a       4.552309469770941
_cell_length_b       7.190073546279826
_cell_length_c       6.94154691696167
_cell_angle_alpha    120.87663801720043
_cell_angle_beta     91.3941085726308
_cell_angle_gamma    97.3176523400464

_space_group_name_H-M_alt    "P 1"
_space_group_IT_number       1

loop_
  _space_group_symop_operation_xyz
  'x, y, z'

loop_
  _atom_site_type_symbol
  _atom_site_label
  _atom_site_symmetry_multiplicity
  _atom_site_fract_x
  _atom_site_fract_y
  _atom_site_fract_z
  _atom_site_occupancy
  Cu  Cu1       1.0  0.06087902188301086  0.2940744161605835  0.5047326087951661  1.0000
  Cu  Cu2       1.0  0.556416928768158  0.14738650619983673  0.09305449575185777  1.0000
  In  In1       1.0  0.5412552952766418  0.22820957005023956  0.1499796062707901  1.0000
  In  In2       1.0  0.551375687122345  0.6042932868003845  0.9006474018096925  1.0000
  Zr  Zr1       1.0  0.053074564784765244  0.3427914083003998  0.1862423419952393  1.0000
  Zr  Zr2       1.0  0.5589866042137146  0.3411635458469391  0.0777450874447823  1.0000
  Zr  Zr3       1.0  0.07842069864273071  0.28558894991874695  0.2658879160881043  1.0000
  Zr  Zr4       1.0  0.5530392527580261  0.025479605421423912  0.04202013090252877  1.0000
  Zr  Zr5       1.0  0.5625523924827576  0.8827658295631409  0.7632159590721131  1.0000
  Zr  Zr6       1.0  0.05843107029795647  0.33139297366142273  0.6700091958045961  1.0000
  Zr  Zr7       1.0  0.04641897976398468  0.4773247241973877  0.7545989155769349  1.0000
