data_image0
_chemical_formula_structural       S2Si4Ti4
_chemical_formula_sum              "S2 Si4 Ti4"
_cell_length_a       5.318752203591389
_cell_length_b       5.71421232541641
_cell_length_c       6.481592655181885
_cell_angle_alpha    65.33753353668206
_cell_angle_beta     64.53962373533275
_cell_angle_gamma    59.927058954031416

_space_group_name_H-M_alt    "P 1"
_space_group_IT_number       1

loop_
  _space_group_symop_operation_xyz
  'x, y, z'

loop_
  _atom_site_type_symbol
  _atom_site_label
  _atom_site_symmetry_multiplicity
  _atom_site_fract_x
  _atom_site_fract_y
  _atom_site_fract_z
  _atom_site_occupancy
  S   S1        1.0  0.2631152272224426  0.9246037006378174  0.9244717359542847  1.0000
  S   S2        1.0  0.7457306981086731  0.8980841040611267  0.6912252306938171  1.0000
  Si  Si1       1.0  0.22372092306613922  0.4138863980770111  0.9178258180618286  1.0000
  Si  Si2       1.0  0.0456387959420681  0.6076815128326416  0.21502310037612915  1.0000
  Si  Si3       1.0  0.7345260977745056  0.0810353085398674  0.06984580308198929  1.0000
  Si  Si4       1.0  0.756678581237793  0.4303848445415497  0.9387627840042114  1.0000
  Ti  Ti1       1.0  0.05533258989453316  0.5995199084281921  0.08074598014354706  1.0000
  Ti  Ti2       1.0  0.5476836562156677  0.5893304944038391  0.585246741771698  1.0000
  Ti  Ti3       1.0  0.5311942100524902  0.6086612939834595  0.1468217372894287  1.0000
  Ti  Ti4       1.0  0.5634188652038574  0.11213816702365875  0.9026168584823608  1.0000
