data_image0
_chemical_formula_structural       LaNSSi2Ti5
_chemical_formula_sum              "La1 N1 S1 Si2 Ti5"
_cell_length_a       5.097869877474826
_cell_length_b       5.671667087534179
_cell_length_c       6.421017169952393
_cell_angle_alpha    65.46625202184379
_cell_angle_beta     66.49704871331646
_cell_angle_gamma    59.34809081186558

_space_group_name_H-M_alt    "P 1"
_space_group_IT_number       1

loop_
  _space_group_symop_operation_xyz
  'x, y, z'

loop_
  _atom_site_type_symbol
  _atom_site_label
  _atom_site_symmetry_multiplicity
  _atom_site_fract_x
  _atom_site_fract_y
  _atom_site_fract_z
  _atom_site_occupancy
  La  La1       1.0  0.07071889936923981  0.3131810426712036  0.7017751932144165  1.0000
  N   N1        1.0  0.8258596062660217  0.02318446710705757  0.8072516918182373  1.0000
  S   S1        1.0  0.2540854513645172  0.17529675364494324  0.2930639088153839  1.0000
  Si  Si1       1.0  0.7669158577919006  0.1527792364358902  0.28971633315086365  1.0000
  Si  Si2       1.0  0.5658466219902039  0.09280014038085938  0.1662505567073822  1.0000
  Ti  Ti1       1.0  0.2757982313632965  0.9799739718437195  0.7272981405258179  1.0000
  Ti  Ti2       1.0  0.5215479731559753  0.5265331864356995  0.44143038988113403  1.0000
  Ti  Ti3       1.0  0.38023582100868225  0.45303648710250854  0.5848512053489685  1.0000
  Ti  Ti4       1.0  0.9884308576583862  0.6039077639579773  0.550407886505127  1.0000
  Ti  Ti5       1.0  0.44834306836128235  0.04394962266087532  0.3906654119491577  1.0000
