data_image0
_chemical_formula_structural       S2Si2Ti6
_chemical_formula_sum              "S2 Si2 Ti6"
_cell_length_a       5.463113230944454
_cell_length_b       5.871079198513641
_cell_length_c       6.723006248474121
_cell_angle_alpha    67.66207771751301
_cell_angle_beta     64.0542479957808
_cell_angle_gamma    60.27942346433431

_space_group_name_H-M_alt    "P 1"
_space_group_IT_number       1

loop_
  _space_group_symop_operation_xyz
  'x, y, z'

loop_
  _atom_site_type_symbol
  _atom_site_label
  _atom_site_symmetry_multiplicity
  _atom_site_fract_x
  _atom_site_fract_y
  _atom_site_fract_z
  _atom_site_occupancy
  S   S1        1.0  0.0022819042205810547  0.4180828630924225  0.17463040351867673  1.0000
  S   S2        1.0  0.6263054013252258  0.9231314659118652  0.699655532836914  1.0000
  Si  Si1       1.0  0.6307708621025085  0.9179167151451111  0.229670375585556  1.0000
  Si  Si2       1.0  0.16060392558574677  0.3538789451122284  0.5908548831939697  1.0000
  Ti  Ti1       1.0  0.7685309648513794  0.5375714302062988  0.9478234648704528  1.0000
  Ti  Ti2       1.0  0.15739478170871735  0.8733921051025391  0.7745969295501708  1.0000
  Ti  Ti3       1.0  0.31067487597465515  0.6131492257118225  0.011684462428092955  1.0000
  Ti  Ti4       1.0  0.6612428426742554  0.9121963977813721  0.7363375425338744  1.0000
  Ti  Ti5       1.0  0.6580808162689209  0.4185318946838379  0.6523314118385314  1.0000
  Ti  Ti6       1.0  0.9868854880332947  0.3020094931125641  0.24665369093418119  1.0000
