data_image0
_chemical_formula_structural       Br3CsNTi5
_chemical_formula_sum              "Br3 Cs1 N1 Ti5"
_cell_length_a       5.331864786537658
_cell_length_b       5.951707664963373
_cell_length_c       7.082108974456787
_cell_angle_alpha    73.73750235712548
_cell_angle_beta     67.8518386082909
_cell_angle_gamma    63.58348270021686

_space_group_name_H-M_alt    "P 1"
_space_group_IT_number       1

loop_
  _space_group_symop_operation_xyz
  'x, y, z'

loop_
  _atom_site_type_symbol
  _atom_site_label
  _atom_site_symmetry_multiplicity
  _atom_site_fract_x
  _atom_site_fract_y
  _atom_site_fract_z
  _atom_site_occupancy
  Br  Br1       1.0  0.7248108983039856  0.7446319460868835  0.0058680335059762  1.0000
  Br  Br2       1.0  0.26280421018600464  0.7655623555183411  0.8240888118743896  1.0000
  Br  Br3       1.0  0.43906688690185547  0.2323267012834549  0.6578250527381897  1.0000
  Cs  Cs1       1.0  0.22048088908195496  0.7367091178894043  0.27602919936180115  1.0000
  N   N1        1.0  0.7153000831604004  0.09521665424108505  0.9476457834243774  1.0000
  Ti  Ti1       1.0  0.2477225363254547  0.9157577753067017  0.6439803838729858  1.0000
  Ti  Ti2       1.0  0.5127772688865662  0.2769373059272766  0.15489225089550018  1.0000
  Ti  Ti3       1.0  0.7442756295204163  0.5500043630599976  0.641109049320221  1.0000
  Ti  Ti4       1.0  0.22851334512233734  0.15825755894184113  0.912580132484436  1.0000
  Ti  Ti5       1.0  0.7409132719039917  0.7632894515991211  0.5528647899627686  1.0000
