data_image0
_chemical_formula_structural       Br3NSiTi5
_chemical_formula_sum              "Br3 N1 Si1 Ti5"
_cell_length_a       5.382109493527945
_cell_length_b       5.690585438814672
_cell_length_c       6.623578071594238
_cell_angle_alpha    69.18402449507641
_cell_angle_beta     66.76592756183781
_cell_angle_gamma    61.92318713382854

_space_group_name_H-M_alt    "P 1"
_space_group_IT_number       1

loop_
  _space_group_symop_operation_xyz
  'x, y, z'

loop_
  _atom_site_type_symbol
  _atom_site_label
  _atom_site_symmetry_multiplicity
  _atom_site_fract_x
  _atom_site_fract_y
  _atom_site_fract_z
  _atom_site_occupancy
  Br  Br1       1.0  0.6092504858970642  0.4315655529499054  0.8047234416007996  1.0000
  Br  Br2       1.0  0.11763318628072739  0.09593082219362259  0.22740508615970612  1.0000
  Br  Br3       1.0  0.587245762348175  0.5927881598472595  0.13283151388168335  1.0000
  N   N1        1.0  0.24187223613262177  0.5209996700286865  0.4707852602005005  1.0000
  Si  Si1       1.0  0.26701614260673523  0.029095767065882683  0.9978448152542114  1.0000
  Ti  Ti1       1.0  0.1686563789844513  0.678846001625061  0.801944375038147  1.0000
  Ti  Ti2       1.0  0.5019612312316895  0.3590766489505768  0.14341112971305847  1.0000
  Ti  Ti3       1.0  0.7756547331809998  0.19031840562820435  0.9772367477416992  1.0000
  Ti  Ti4       1.0  0.5089938044548035  0.053146712481975555  0.4800485372543335  1.0000
  Ti  Ti5       1.0  0.9868439435958862  0.6610939502716064  0.38106632232666016  1.0000
