data_image0
_chemical_formula_structural       AlNSTi7
_chemical_formula_sum              "Al1 N1 S1 Ti7"
_cell_length_a       4.970050901379939
_cell_length_b       5.998971681324767
_cell_length_c       6.283411026000977
_cell_angle_alpha    66.11455838751381
_cell_angle_beta     65.04969817769317
_cell_angle_gamma    63.702679351113034

_space_group_name_H-M_alt    "P 1"
_space_group_IT_number       1

loop_
  _space_group_symop_operation_xyz
  'x, y, z'

loop_
  _atom_site_type_symbol
  _atom_site_label
  _atom_site_symmetry_multiplicity
  _atom_site_fract_x
  _atom_site_fract_y
  _atom_site_fract_z
  _atom_site_occupancy
  Al  Al1       1.0  0.972438395023346  0.08810469508171082  0.15024293959140778  1.0000
  N   N1        1.0  0.679649293422699  0.3409140110015869  0.4233537018299103  1.0000
  S   S1        1.0  0.2273854911327362  0.2362983226776123  0.27139970660209656  1.0000
  Ti  Ti1       1.0  0.5576246380805969  0.736030638217926  0.276091605424881  1.0000
  Ti  Ti2       1.0  0.5569934844970703  0.18311822414398193  0.06001445651054382  1.0000
  Ti  Ti3       1.0  0.5680936574935913  0.17997722327709198  0.9933838248252869  1.0000
  Ti  Ti4       1.0  0.5509753823280334  0.42352473735809326  0.6485902070999146  1.0000
  Ti  Ti5       1.0  0.0011609792709350586  0.440053790807724  0.1602192521095276  1.0000
  Ti  Ti6       1.0  0.0654546469449997  0.2939559817314148  0.8094122409820557  1.0000
  Ti  Ti7       1.0  0.5500917434692383  0.6887625455856323  0.008517698384821415  1.0000
