data_image0
_chemical_formula_structural       Ba4DyGeI2PPbSb
_chemical_formula_sum              "Ba4 Dy1 Ge1 I2 P1 Pb1 Sb1"
_cell_length_a       6.331036328872334
_cell_length_b       8.840281085051947
_cell_length_c       10.77461051940918
_cell_angle_alpha    119.67646043153083
_cell_angle_beta     90.08170314970937
_cell_angle_gamma    89.30745573700426

_space_group_name_H-M_alt    "P 1"
_space_group_IT_number       1

loop_
  _space_group_symop_operation_xyz
  'x, y, z'

loop_
  _atom_site_type_symbol
  _atom_site_label
  _atom_site_symmetry_multiplicity
  _atom_site_fract_x
  _atom_site_fract_y
  _atom_site_fract_z
  _atom_site_occupancy
  Ba  Ba1       1.0  0.32297563552856445  0.5905518531799316  0.7931655049324036  1.0000
  Ba  Ba2       1.0  0.8286376595497131  0.044028203934431076  0.12229552865028381  1.0000
  Ba  Ba3       1.0  0.8277772068977356  0.18621698021888733  0.8725138306617737  1.0000
  Ba  Ba4       1.0  0.32705435156822205  0.0030904680024832487  0.8656086325645447  1.0000
  Dy  Dy1       1.0  0.8224629759788513  0.540356457233429  0.9686684608459475  1.0000
  Ge  Ge1       1.0  0.8252944946289062  0.7469866275787354  0.06659936159849167  1.0000
  I   I1        1.0  0.8215294480323792  0.9527630805969238  0.5134119987487793  1.0000
  I   I2        1.0  0.3271896243095398  0.08243782073259354  0.0348791740834713  1.0000
  P   P1        1.0  0.3298499882221222  0.10549765825271606  0.9478172063827515  1.0000
  Pb  Pb1       1.0  0.8233984112739563  0.062808558344841  0.4800392687320709  1.0000
  Sb  Sb1       1.0  0.8208617568016052  0.7669999003410339  0.4041263163089752  1.0000
