data_image0
_chemical_formula_structural       Ba3GaI3P2PtV
_chemical_formula_sum              "Ba3 Ga1 I3 P2 Pt1 V1"
_cell_length_a       6.111748047866088
_cell_length_b       7.029478160922023
_cell_length_c       9.613754272460938
_cell_angle_alpha    112.91627538856262
_cell_angle_beta     97.57833411161556
_cell_angle_gamma    113.25773464327159

_space_group_name_H-M_alt    "P 1"
_space_group_IT_number       1

loop_
  _space_group_symop_operation_xyz
  'x, y, z'

loop_
  _atom_site_type_symbol
  _atom_site_label
  _atom_site_symmetry_multiplicity
  _atom_site_fract_x
  _atom_site_fract_y
  _atom_site_fract_z
  _atom_site_occupancy
  Ba  Ba1       1.0  0.8202989101409912  0.5184274315834045  0.715688943862915  1.0000
  Ba  Ba2       1.0  0.8325419425964355  0.5110588073730469  0.7628828883171082  1.0000
  Ba  Ba3       1.0  0.3544943034648895  0.10423923283815384  0.631293773651123  1.0000
  Ga  Ga1       1.0  0.8832507729530334  0.1257578432559967  0.17207928001880646  1.0000
  I   I1        1.0  0.5194134712219238  0.22416187822818756  0.1628667563199997  1.0000
  I   I2        1.0  0.8016825914382935  0.09629187732934952  0.2021542191505432  1.0000
  I   I3        1.0  0.8872753977775574  0.6438739895820618  0.8885875940322876  1.0000
  P   P1        1.0  0.048390235751867294  0.9359840750694275  0.22373007237911224  1.0000
  P   P2        1.0  0.8462385535240173  0.8490978479385376  0.5908113121986389  1.0000
  Pt  Pt1       1.0  0.7867183089256287  0.7139697074890137  0.842654824256897  1.0000
  V   V1        1.0  0.40550103783607483  0.1348363608121872  0.9805704355239868  1.0000
