data_image0
_chemical_formula_structural       Ba6GaI2VZn
_chemical_formula_sum              "Ba6 Ga1 I2 V1 Zn1"
_cell_length_a       6.679336321598354
_cell_length_b       7.006742308240613
_cell_length_c       11.527838706970215
_cell_angle_alpha    113.76644721463566
_cell_angle_beta     94.88056533676084
_cell_angle_gamma    103.90941968625307

_space_group_name_H-M_alt    "P 1"
_space_group_IT_number       1

loop_
  _space_group_symop_operation_xyz
  'x, y, z'

loop_
  _atom_site_type_symbol
  _atom_site_label
  _atom_site_symmetry_multiplicity
  _atom_site_fract_x
  _atom_site_fract_y
  _atom_site_fract_z
  _atom_site_occupancy
  Ba  Ba1       1.0  0.07861234992742538  0.3744329512119293  0.7533629536628724  1.0000
  Ba  Ba2       1.0  0.5748511552810669  0.15353356301784515  0.7281140685081482  1.0000
  Ba  Ba3       1.0  0.5796685218811035  0.22662675380706787  0.595246434211731  1.0000
  Ba  Ba4       1.0  0.07116376608610153  0.3159419000148773  0.531249463558197  1.0000
  Ba  Ba5       1.0  0.5721248984336853  0.7876678705215454  0.7188515663146973  1.0000
  Ba  Ba6       1.0  0.5739089250564575  0.23306651413440704  0.22070014476776126  1.0000
  Ga  Ga1       1.0  0.0431881919503212  0.2751714289188385  0.42980155348777777  1.0000
  I   I1        1.0  0.5581865310668945  0.9078887701034546  0.2369427382946015  1.0000
  I   I2        1.0  0.06663653254508972  0.999049961566925  0.6792084574699402  1.0000
  V   V1        1.0  0.5777772665023804  0.6102165579795837  0.09670983999967576  1.0000
  Zn  Zn1       1.0  0.8092220425605774  0.42050713300704956  0.0768875852227211  1.0000
