data_image0
_chemical_formula_structural       AgBa5ClTe4
_chemical_formula_sum              "Ag1 Ba5 Cl1 Te4"
_cell_length_a       6.407187194080005
_cell_length_b       6.394053675772395
_cell_length_c       12.077781677246094
_cell_angle_alpha    102.76115979875391
_cell_angle_beta     97.75429649227146
_cell_angle_gamma    94.96606596078554

_space_group_name_H-M_alt    "P 1"
_space_group_IT_number       1

loop_
  _space_group_symop_operation_xyz
  'x, y, z'

loop_
  _atom_site_type_symbol
  _atom_site_label
  _atom_site_symmetry_multiplicity
  _atom_site_fract_x
  _atom_site_fract_y
  _atom_site_fract_z
  _atom_site_occupancy
  Ag  Ag1       1.0  0.9234132766723633  0.9984325170516969  0.3010047376155853  1.0000
  Ba  Ba1       1.0  0.9295360445976257  0.03314061462879181  0.22948883473873138  1.0000
  Ba  Ba2       1.0  0.9176236987113953  0.26832517981529236  0.5883266925811768  1.0000
  Ba  Ba3       1.0  0.42286384105682373  0.34126910567283636  0.04737274721264839  1.0000
  Ba  Ba4       1.0  0.42216041684150696  0.4224191009998322  0.1255026012659073  1.0000
  Ba  Ba5       1.0  0.42225411534309387  0.6525807976722717  0.754654049873352  1.0000
  Cl  Cl1       1.0  0.4268985390663147  0.45778763294219976  0.884880542755127  1.0000
  Te  Te1       1.0  0.9202504754066467  0.41143992543220526  0.3453423082828522  1.0000
  Te  Te2       1.0  0.8295979499816895  0.11215331405401231  0.3611340820789337  1.0000
  Te  Te3       1.0  0.9264478087425232  0.11639235168695451  0.7388003468513489  1.0000
  Te  Te4       1.0  0.418912798166275  0.5147594213485718  0.3292121887207031  1.0000
