data_image0
_chemical_formula_structural       Ba5ClTe4Tl
_chemical_formula_sum              "Ba5 Cl1 Te4 Tl1"
_cell_length_a       7.559190526216535
_cell_length_b       7.577481174871029
_cell_length_c       12.573765754699707
_cell_angle_alpha    104.93565108979527
_cell_angle_beta     101.4733107347462
_cell_angle_gamma    109.89656429987934

_space_group_name_H-M_alt    "P 1"
_space_group_IT_number       1

loop_
  _space_group_symop_operation_xyz
  'x, y, z'

loop_
  _atom_site_type_symbol
  _atom_site_label
  _atom_site_symmetry_multiplicity
  _atom_site_fract_x
  _atom_site_fract_y
  _atom_site_fract_z
  _atom_site_occupancy
  Ba  Ba1       1.0  0.3073590397834778  0.15367643535137177  0.19783370196819305  1.0000
  Ba  Ba2       1.0  0.8016929626464845  0.32264024019241333  0.15369908511638644  1.0000
  Ba  Ba3       1.0  0.8213501572608949  0.48683020472526545  0.5226562023162842  1.0000
  Ba  Ba4       1.0  0.33036208152770996  0.4500302374362945  0.5600853562355042  1.0000
  Ba  Ba5       1.0  0.8158254027366639  0.8517704606056213  0.3646294176578522  1.0000
  Cl  Cl1       1.0  0.30463260412216187  0.7669064402580261  0.7109545469284058  1.0000
  Te  Te1       1.0  0.811529040336609  0.3109898567199707  0.922799825668335  1.0000
  Te  Te2       1.0  0.3016268610954284  0.9085420966148375  0.963615357875824  1.0000
  Te  Te3       1.0  0.5892655253410339  0.5939882397651672  0.3819662928581238  1.0000
  Te  Te4       1.0  0.3050788938999176  0.2746300995349884  0.9931017160415649  1.0000
  Tl  Tl1       1.0  0.8287681341171266  0.3229360580444336  0.3103305399417877  1.0000
