data_image0
_chemical_formula_structural       AlBa4I3P2Se
_chemical_formula_sum              "Al1 Ba4 I3 P2 Se1"
_cell_length_a       7.937630274427518
_cell_length_b       8.435167967416708
_cell_length_c       11.125994682312012
_cell_angle_alpha    111.51338500960557
_cell_angle_beta     103.40176899924738
_cell_angle_gamma    108.36898764764918

_space_group_name_H-M_alt    "P 1"
_space_group_IT_number       1

loop_
  _space_group_symop_operation_xyz
  'x, y, z'

loop_
  _atom_site_type_symbol
  _atom_site_label
  _atom_site_symmetry_multiplicity
  _atom_site_fract_x
  _atom_site_fract_y
  _atom_site_fract_z
  _atom_site_occupancy
  Al  Al1       1.0  0.28103211522102356  0.21942690014839172  0.4967785179615021  1.0000
  Ba  Ba1       1.0  0.6054193377494812  0.9723418354988098  0.8831215500831604  1.0000
  Ba  Ba2       1.0  0.5308005809783936  0.028884394094347954  0.679943323135376  1.0000
  Ba  Ba3       1.0  0.7953576445579529  0.5603125691413879  0.3986019194126129  1.0000
  Ba  Ba4       1.0  0.7878701090812683  0.08943944424390793  0.5768035650253296  1.0000
  I   I1        1.0  0.3055957853794098  0.9966447949409485  0.30852761864662176  1.0000
  I   I2        1.0  0.6076571941375732  0.05435984954237938  0.7193902134895325  1.0000
  I   I3        1.0  0.11348817497491837  0.8176401257514954  0.8877259492874146  1.0000
  P   P1        1.0  0.5414444208145142  0.96587735414505  0.13398011028766638  1.0000
  P   P2        1.0  0.053003307431936264  0.05193505063652992  0.9542660713195801  1.0000
  Se  Se1       1.0  0.005094590596854687  0.2119871973991394  0.8798983693122864  1.0000
