data_image0
_chemical_formula_structural       GaGeIO3P3Ru
_chemical_formula_sum              "Ga1 Ge1 I1 O3 P3 Ru1"
_cell_length_a       4.5428782600262565
_cell_length_b       5.364816360831909
_cell_length_c       6.352639198303223
_cell_angle_alpha    110.74072801882579
_cell_angle_beta     93.20260867583802
_cell_angle_gamma    89.52331485640458

_space_group_name_H-M_alt    "P 1"
_space_group_IT_number       1

loop_
  _space_group_symop_operation_xyz
  'x, y, z'

loop_
  _atom_site_type_symbol
  _atom_site_label
  _atom_site_symmetry_multiplicity
  _atom_site_fract_x
  _atom_site_fract_y
  _atom_site_fract_z
  _atom_site_occupancy
  Ga  Ga1       1.0  0.3940407335758209  0.7201375961303711  0.16048802435398107  1.0000
  Ge  Ge1       1.0  0.09879560768604279  0.1173539012670517  0.20491032302379608  1.0000
  I   I1        1.0  0.6505785584449768  0.4980169534683228  0.7112911939620972  1.0000
  O   O1        1.0  0.7524011135101318  0.779813289642334  0.19880869984626776  1.0000
  O   O2        1.0  0.44947609305381775  0.87909996509552  0.14571420848369604  1.0000
  O   O3        1.0  0.3600378632545471  0.12892518937587738  0.6681684851646423  1.0000
  P   P1        1.0  0.14578856527805328  0.43823331594467163  0.8006353378295898  1.0000
  P   P2        1.0  0.6610357165336609  0.22266240417957306  0.06280794739723206  1.0000
  P   P3        1.0  0.9437706470489502  0.8520408868789673  0.5306784510612488  1.0000
  Ru  Ru1       1.0  0.6102665066719055  0.27699020504951477  0.24738749861717224  1.0000
