data_image0
_chemical_formula_structural       GaGeIO4P2S
_chemical_formula_sum              "Ga1 Ge1 I1 O4 P2 S1"
_cell_length_a       5.500438121074492
_cell_length_b       5.3930156904998166
_cell_length_c       7.143676280975342
_cell_angle_alpha    106.6050079865024
_cell_angle_beta     104.65720930904192
_cell_angle_gamma    95.56317723456786

_space_group_name_H-M_alt    "P 1"
_space_group_IT_number       1

loop_
  _space_group_symop_operation_xyz
  'x, y, z'

loop_
  _atom_site_type_symbol
  _atom_site_label
  _atom_site_symmetry_multiplicity
  _atom_site_fract_x
  _atom_site_fract_y
  _atom_site_fract_z
  _atom_site_occupancy
  Ga  Ga1       1.0  0.7356196641921997  0.4763534367084504  0.5918908715248108  1.0000
  Ge  Ge1       1.0  0.13974972069263458  0.783515453338623  0.04704302176833153  1.0000
  I   I1        1.0  0.22894689440727234  0.5209535360336304  0.35560229420661926  1.0000
  O   O1        1.0  0.18804986774921417  0.15233254432678223  0.7437106370925903  1.0000
  O   O2        1.0  0.6234140992164612  0.17672184109687805  0.22885701060295108  1.0000
  O   O3        1.0  0.8433842658996582  0.5033583045005798  0.5068653225898743  1.0000
  O   O4        1.0  0.4972228705883026  0.9078227877616883  0.2912816107273102  1.0000
  P   P1        1.0  0.6464012861251831  0.05553796514868737  0.035273246467113495  1.0000
  P   P2        1.0  0.3247900903224945  0.1088462918996811  0.5563022494316101  1.0000
  S   S1        1.0  0.8343551754951477  0.7675420641899109  0.6288109421730042  1.0000
