data_image0
_chemical_formula_structural       GaGeInO3P2SZn
_chemical_formula_sum              "Ga1 Ge1 In1 O3 P2 S1 Zn1"
_cell_length_a       5.385121481300148
_cell_length_b       5.310357662988463
_cell_length_c       8.30224323272705
_cell_angle_alpha    85.78755655851717
_cell_angle_beta     81.69755288781687
_cell_angle_gamma    63.11432623784516

_space_group_name_H-M_alt    "P 1"
_space_group_IT_number       1

loop_
  _space_group_symop_operation_xyz
  'x, y, z'

loop_
  _atom_site_type_symbol
  _atom_site_label
  _atom_site_symmetry_multiplicity
  _atom_site_fract_x
  _atom_site_fract_y
  _atom_site_fract_z
  _atom_site_occupancy
  Ga  Ga1       1.0  0.9031481742858887  0.9606525301933289  0.2679746747016907  1.0000
  Ge  Ge1       1.0  0.024347538128495216  0.2497856318950653  0.9694064259529114  1.0000
  In  In1       1.0  0.39452341198921204  0.5629005432128906  0.8585541844367981  1.0000
  O   O1        1.0  0.05486384034156799  0.24922026693820953  0.9373325705528259  1.0000
  O   O2        1.0  0.5387169718742371  0.7368735671043396  0.7636019587516785  1.0000
  O   O3        1.0  0.6383599638938904  0.39721375703811646  0.8684727549552917  1.0000
  P   P1        1.0  0.9993510842323303  0.28934037685394287  0.32468676567077637  1.0000
  P   P2        1.0  0.497591108083725  0.740652322769165  0.4647941589355469  1.0000
  S   S1        1.0  0.5563017725944519  0.29805946350097656  0.6288275718688965  1.0000
  Zn  Zn1       1.0  0.010537938214838505  0.6280301809310913  0.7955567240715027  1.0000
