data_image0
_chemical_formula_structural       InO2P3PdS3
_chemical_formula_sum              "In1 O2 P3 Pd1 S3"
_cell_length_a       6.0217340053368975
_cell_length_b       5.499000540080071
_cell_length_c       5.911281108856201
_cell_angle_alpha    72.03462064395138
_cell_angle_beta     70.76946567918824
_cell_angle_gamma    66.63195004058733

_space_group_name_H-M_alt    "P 1"
_space_group_IT_number       1

loop_
  _space_group_symop_operation_xyz
  'x, y, z'

loop_
  _atom_site_type_symbol
  _atom_site_label
  _atom_site_symmetry_multiplicity
  _atom_site_fract_x
  _atom_site_fract_y
  _atom_site_fract_z
  _atom_site_occupancy
  In  In1       1.0  0.772265613079071  0.643517017364502  0.9844186305999756  1.0000
  O   O1        1.0  0.46871358156204224  0.2322758138179779  0.5268984436988831  1.0000
  O   O2        1.0  0.9092217087745667  0.682157039642334  0.4189823567867279  1.0000
  P   P1        1.0  0.7402060031890869  0.9360291361808777  0.4375627040863037  1.0000
  P   P2        1.0  0.2528190612792969  0.9252161979675293  0.16959047317504883  1.0000
  P   P3        1.0  0.2631875276565552  0.2718068063259125  0.17621545493602753  1.0000
  Pd  Pd1       1.0  0.27719345688819885  0.47865962982177734  0.21429066359996796  1.0000
  S   S1        1.0  0.753547191619873  0.5135416984558105  0.12710517644882202  1.0000
  S   S2        1.0  0.28160974383354187  0.5426148176193237  0.2048368602991104  1.0000
  S   S3        1.0  0.739607036113739  0.7581118941307068  0.6223369836807251  1.0000
