data_image0
_chemical_formula_structural       OPr3PuS4Si
_chemical_formula_sum              "O1 Pr3 Pu1 S4 Si1"
_cell_length_a       5.695736083744392
_cell_length_b       5.3101135281627805
_cell_length_c       5.623177528381348
_cell_angle_alpha    115.57908307883746
_cell_angle_beta     113.50292872831557
_cell_angle_gamma    91.8046729850628

_space_group_name_H-M_alt    "P 1"
_space_group_IT_number       1

loop_
  _space_group_symop_operation_xyz
  'x, y, z'

loop_
  _atom_site_type_symbol
  _atom_site_label
  _atom_site_symmetry_multiplicity
  _atom_site_fract_x
  _atom_site_fract_y
  _atom_site_fract_z
  _atom_site_occupancy
  O   O1        1.0  0.7143523097038269  0.5990356206893921  0.8855437636375426  1.0000
  Pr  Pr1       1.0  0.8404815793037415  0.17048415541648865  0.020877163857221524  1.0000
  Pr  Pr2       1.0  0.5817658305168152  0.5761973857879639  0.45455297827720637  1.0000
  Pr  Pr3       1.0  0.5683102607727051  0.1308036744594574  0.7206498980522156  1.0000
  Pu  Pu1       1.0  0.5825782418251038  0.2405022382736206  0.2013481259346008  1.0000
  S   S1        1.0  0.3518606126308441  0.3996644914150238  0.8479532003402709  1.0000
  S   S2        1.0  0.8501396775245667  0.6502639055252075  0.12119247019290923  1.0000
  S   S3        1.0  0.33283019065856934  0.7063103914260864  0.5879873037338256  1.0000
  S   S4        1.0  0.8428742289543152  0.8256543874740601  0.06243608519434928  1.0000
  Si  Si1       1.0  0.34328770637512207  0.9113416075706482  0.8533033728599547  1.0000
