data_image0
_chemical_formula_structural       OPr3PuS4Si
_chemical_formula_sum              "O1 Pr3 Pu1 S4 Si1"
_cell_length_a       4.816281062840485
_cell_length_b       4.782324043033009
_cell_length_c       5.0398688316345215
_cell_angle_alpha    118.61745718622485
_cell_angle_beta     117.72318726549592
_cell_angle_gamma    93.31894374196378

_space_group_name_H-M_alt    "P 1"
_space_group_IT_number       1

loop_
  _space_group_symop_operation_xyz
  'x, y, z'

loop_
  _atom_site_type_symbol
  _atom_site_label
  _atom_site_symmetry_multiplicity
  _atom_site_fract_x
  _atom_site_fract_y
  _atom_site_fract_z
  _atom_site_occupancy
  O   O1        1.0  0.7821874022483826  0.08759930729866028  0.5820561051368713  1.0000
  Pr  Pr1       1.0  0.79558265209198  0.9470608830451966  0.26809751987457275  1.0000
  Pr  Pr2       1.0  0.28947851061820984  0.009170004166662693  0.7120814919471741  1.0000
  Pr  Pr3       1.0  0.2865672707557679  0.8547515273094178  0.8102895021438599  1.0000
  Pu  Pu1       1.0  0.7868025898933411  0.459102749824524  0.9448476433753967  1.0000
  S   S1        1.0  0.7804973721504211  0.9836488366127015  0.40505683422088623  1.0000
  S   S2        1.0  0.2895924746990204  0.5046769380569458  0.05379422754049305  1.0000
  S   S3        1.0  0.2841660082340241  0.900417447090149  0.9768208265304565  1.0000
  S   S4        1.0  0.28316786885261536  0.3440576195716858  0.6485303044319153  1.0000
  Si  Si1       1.0  0.7905661463737488  0.7201095819473267  0.8216657638549805  1.0000
