data_image0
_chemical_formula_structural       GaHIOP6PbPdZr2
_chemical_formula_sum              "Ga1 H1 I1 O1 P6 Pb1 Pd1 Zr2"
_cell_length_a       6.646824098160694
_cell_length_b       7.011460656447901
_cell_length_c       7.659115314483643
_cell_angle_alpha    68.75099170087009
_cell_angle_beta     66.42167209160122
_cell_angle_gamma    69.83190622159935

_space_group_name_H-M_alt    "P 1"
_space_group_IT_number       1

loop_
  _space_group_symop_operation_xyz
  'x, y, z'

loop_
  _atom_site_type_symbol
  _atom_site_label
  _atom_site_symmetry_multiplicity
  _atom_site_fract_x
  _atom_site_fract_y
  _atom_site_fract_z
  _atom_site_occupancy
  Ga  Ga1       1.0  0.20681516826152804  0.16983574628829956  0.8543090224266052  1.0000
  H   H1        1.0  0.9354698657989503  0.9614061713218689  0.18313392996788025  1.0000
  I   I1        1.0  0.6193733811378479  0.6992180943489075  0.6831997632980347  1.0000
  O   O1        1.0  0.27508339285850525  0.09129056334495544  0.13494491577148438  1.0000
  P   P1        1.0  0.7780198454856873  0.027773266658186913  0.8803866505622863  1.0000
  P   P2        1.0  0.8581050038337709  0.13700810074806213  0.7384263277053833  1.0000
  P   P3        1.0  0.6342722177505493  0.4112904667854309  0.08990199118852615  1.0000
  P   P4        1.0  0.9496334791183473  0.42231354117393494  0.6931484937667847  1.0000
  P   P5        1.0  0.45010426640510565  0.31869956851005554  0.20574015378952026  1.0000
  P   P6        1.0  0.041664328426122665  0.995668351650238  0.10951734334230423  1.0000
  Pb  Pb1       1.0  0.6801496744155884  0.16957196593284607  0.8312716484069824  1.0000
  Pd  Pd1       1.0  0.17454007267951965  0.8620157837867737  0.5011952519416809  1.0000
  Zr  Zr1       1.0  0.7555521130561829  0.9648756384849548  0.002840544097125588  1.0000
  Zr  Zr2       1.0  0.7116148471832275  0.7889943718910217  0.24836280941963196  1.0000
