data_image0
_chemical_formula_structural       AsGeIMo2P8Pd
_chemical_formula_sum              "As1 Ge1 I1 Mo2 P8 Pd1"
_cell_length_a       6.174014129084912
_cell_length_b       7.710258225604007
_cell_length_c       8.220852851867676
_cell_angle_alpha    118.6121488967272
_cell_angle_beta     90.00632278692011
_cell_angle_gamma    91.61324019104985

_space_group_name_H-M_alt    "P 1"
_space_group_IT_number       1

loop_
  _space_group_symop_operation_xyz
  'x, y, z'

loop_
  _atom_site_type_symbol
  _atom_site_label
  _atom_site_symmetry_multiplicity
  _atom_site_fract_x
  _atom_site_fract_y
  _atom_site_fract_z
  _atom_site_occupancy
  As  As1       1.0  0.8027515411376953  0.5353677868843079  0.9256075024604797  1.0000
  Ge  Ge1       1.0  0.022107083350419998  0.07115252315998077  0.9548536539077759  1.0000
  I   I1        1.0  0.515397548675537  0.19677539169788358  0.5075553059577942  1.0000
  Mo  Mo1       1.0  0.028394028544425964  0.19664448499679563  0.6845805644989014  1.0000
  Mo  Mo2       1.0  0.5213540196418762  0.08062469959259032  0.9581707119941711  1.0000
  P   P1        1.0  0.00010323524475097206  0.9034411311149596  0.19920770823955536  1.0000
  P   P2        1.0  0.2514502704143524  0.8813200592994689  0.31444802880287165  1.0000
  P   P3        1.0  0.2606608271598816  0.8164841532707213  0.7820726037025452  1.0000
  P   P4        1.0  0.32673659920692444  0.9125643372535704  0.3334710299968719  1.0000
  P   P5        1.0  0.02371150441467762  0.3402677476406097  0.42818358540534973  1.0000
  P   P6        1.0  0.7799965143203735  0.8797578215599059  0.11516984552144999  1.0000
  P   P7        1.0  0.5198073387145996  0.5415447354316711  0.2262577265501022  1.0000
  P   P8        1.0  0.5461714863777161  0.7134169340133666  0.15562616288661957  1.0000
  Pd  Pd1       1.0  0.03230373561382294  0.4116321206092834  0.8637485504150391  1.0000
