data_image0
_chemical_formula_structural       Mo3O5P6
_chemical_formula_sum              "Mo3 O5 P6"
_cell_length_a       5.453642339443329
_cell_length_b       8.032331311173408
_cell_length_c       8.479939460754395
_cell_angle_alpha    125.16362513687963
_cell_angle_beta     94.12966270719735
_cell_angle_gamma    79.42726142206509

_space_group_name_H-M_alt    "P 1"
_space_group_IT_number       1

loop_
  _space_group_symop_operation_xyz
  'x, y, z'

loop_
  _atom_site_type_symbol
  _atom_site_label
  _atom_site_symmetry_multiplicity
  _atom_site_fract_x
  _atom_site_fract_y
  _atom_site_fract_z
  _atom_site_occupancy
  Mo  Mo1       1.0  0.4262609779834747  0.05188671872019768  0.5085387229919434  1.0000
  Mo  Mo2       1.0  0.14256791770458221  0.2717650830745697  0.919223964214325  1.0000
  Mo  Mo3       1.0  0.9369966983795165  0.5427808165550232  0.09062476456165308  1.0000
  O   O1        1.0  0.9901025891304015  0.03324555605649948  0.725553035736084  1.0000
  O   O2        1.0  0.3319316804409027  0.355669230222702  0.4808768033981323  1.0000
  O   O3        1.0  0.7299807071685791  0.6400399804115295  0.4896498918533325  1.0000
  O   O4        1.0  0.4525175988674163  0.6828230023384094  0.9626036286354065  1.0000
  O   O5        1.0  0.9893466234207152  0.7247109413146973  0.5325452089309692  1.0000
  P   P1        1.0  0.11663311719894408  0.8627352118492126  0.6872715950012207  1.0000
  P   P2        1.0  0.13759495317935944  0.816798210144043  0.5842983722686768  1.0000
  P   P3        1.0  0.9842692017555236  0.9230238199234009  0.051028370857238665  1.0000
  P   P4        1.0  0.6826664805412292  0.5116894245147705  0.7238385677337646  1.0000
  P   P5        1.0  0.6468442678451538  0.9705561399459839  0.18307507038116444  1.0000
  P   P6        1.0  0.6754930019378662  0.05400749295949936  0.7081770896911621  1.0000
