data_image0
_chemical_formula_structural       GeH2IMoO3P6
_chemical_formula_sum              "Ge1 H2 I1 Mo1 O3 P6"
_cell_length_a       5.033195260868151
_cell_length_b       5.138649850177903
_cell_length_c       8.641251564025879
_cell_angle_alpha    90.70639159976606
_cell_angle_beta     88.96609074615483
_cell_angle_gamma    132.27687808894777

_space_group_name_H-M_alt    "P 1"
_space_group_IT_number       1

loop_
  _space_group_symop_operation_xyz
  'x, y, z'

loop_
  _atom_site_type_symbol
  _atom_site_label
  _atom_site_symmetry_multiplicity
  _atom_site_fract_x
  _atom_site_fract_y
  _atom_site_fract_z
  _atom_site_occupancy
  Ge  Ge1       1.0  0.7129110097885132  0.17962338030338287  0.5345384478569031  1.0000
  H   H1        1.0  0.3120920956134796  0.9567690491676331  0.887824296951294  1.0000
  H   H2        1.0  0.9162602424621582  0.3576960265636444  0.37083846330642695  1.0000
  I   I1        1.0  0.7634080648422241  0.3962871730327606  0.8481071591377258  1.0000
  Mo  Mo1       1.0  0.8562613725662231  0.2992476522922516  0.4323831796646118  1.0000
  O   O1        1.0  0.6770671010017395  0.3131997287273407  0.9216572642326356  1.0000
  O   O2        1.0  0.11143883317708969  0.861379086971283  0.21151696145534515  1.0000
  O   O3        1.0  0.31676623225212097  0.236211895942688  0.1641785353422165  1.0000
  P   P1        1.0  0.5999816060066223  0.2524998188018799  0.9414219260215759  1.0000
  P   P2        1.0  0.06838734447956085  0.64080411195755  0.774154007434845  1.0000
  P   P3        1.0  0.29263490438461304  0.046234190464019775  0.8843010663986206  1.0000
  P   P4        1.0  0.373252809047699  0.6419256925582886  0.3966766595840454  1.0000
  P   P5        1.0  0.8193040490150452  0.5012633204460144  0.9467509984970093  1.0000
  P   P6        1.0  0.26527267694473267  0.5538771748542786  0.43361806869506836  1.0000
