data_image0
_chemical_formula_structural       GeI2NiO2P8
_chemical_formula_sum              "Ge1 I2 Ni1 O2 P8"
_cell_length_a       7.082913098575801
_cell_length_b       7.35986668647285
_cell_length_c       8.243941307067871
_cell_angle_alpha    81.68665013204114
_cell_angle_beta     69.35843285478394
_cell_angle_gamma    68.49601129113415

_space_group_name_H-M_alt    "P 1"
_space_group_IT_number       1

loop_
  _space_group_symop_operation_xyz
  'x, y, z'

loop_
  _atom_site_type_symbol
  _atom_site_label
  _atom_site_symmetry_multiplicity
  _atom_site_fract_x
  _atom_site_fract_y
  _atom_site_fract_z
  _atom_site_occupancy
  Ge  Ge1       1.0  0.28499239683151245  0.7768203020095825  0.3178754448890686  1.0000
  I   I1        1.0  0.8036594390869141  0.21861286461353302  0.5237941741943359  1.0000
  I   I2        1.0  0.2774958312511444  0.6653693318367004  0.7826092839241028  1.0000
  Ni  Ni1       1.0  0.3297819495201111  0.3518240749835968  0.5416227579116821  1.0000
  O   O1        1.0  0.32916292548179626  0.20829224586486816  0.9591845273971558  1.0000
  O   O2        1.0  0.8111919164657593  0.8917365074157715  0.012541774660348892  1.0000
  P   P1        1.0  0.907423734664917  0.7669649720191956  0.9908591508865356  1.0000
  P   P2        1.0  0.8954750299453735  0.7753736972808838  0.8489168882369995  1.0000
  P   P3        1.0  0.4823366701602936  0.44447609782218933  0.395990252494812  1.0000
  P   P4        1.0  0.890112042427063  0.45064374804496765  0.018773188814520836  1.0000
  P   P5        1.0  0.030687693506479263  0.2077992707490921  0.8375762104988098  1.0000
  P   P6        1.0  0.11472772806882858  0.27323636412620544  0.6892140507698059  1.0000
  P   P7        1.0  0.8481317758560181  0.4001673758029938  0.9604268670082092  1.0000
  P   P8        1.0  0.8850997090339661  0.31485500931739807  0.24472162127494812  1.0000
