data_image0
_chemical_formula_structural       Mo6NaO4P3
_chemical_formula_sum              "Mo6 Na1 O4 P3"
_cell_length_a       6.131076410071382
_cell_length_b       8.033599719131491
_cell_length_c       8.033982276916504
_cell_angle_alpha    129.52228650360078
_cell_angle_beta     91.26771688102771
_cell_angle_gamma    86.63012447753049

_space_group_name_H-M_alt    "P 1"
_space_group_IT_number       1

loop_
  _space_group_symop_operation_xyz
  'x, y, z'

loop_
  _atom_site_type_symbol
  _atom_site_label
  _atom_site_symmetry_multiplicity
  _atom_site_fract_x
  _atom_site_fract_y
  _atom_site_fract_z
  _atom_site_occupancy
  Mo  Mo1       1.0  0.5161872506141663  0.6705363988876343  0.03366149216890335  1.0000
  Mo  Mo2       1.0  0.7617714405059814  0.9308511018753052  0.12798646092414856  1.0000
  Mo  Mo3       1.0  0.6909247040748596  0.136017844080925  0.3643425405025482  1.0000
  Mo  Mo4       1.0  0.22634300589561462  0.7732541561126709  0.5760861039161682  1.0000
  Mo  Mo5       1.0  0.10700158029794693  0.11418016254901886  0.5883813500404358  1.0000
  Mo  Mo6       1.0  0.04998994246125221  0.26742762327194214  0.06824991852045062  1.0000
  Na  Na1       1.0  0.19495712220668793  0.12560206651687622  0.20221683382987976  1.0000
  O   O1        1.0  0.7320299744606018  0.6698752641677856  0.49922606348991394  1.0000
  O   O2        1.0  0.7922183871269226  0.8899214863777161  0.3115280866622925  1.0000
  O   O3        1.0  0.3001837432384491  0.42697420716285706  0.9122946858406067  1.0000
  O   O4        1.0  0.2622857689857483  0.1771809309720993  0.9117472767829895  1.0000
  P   P1        1.0  0.02489311620593071  0.6249099373817444  0.19927074015140528  1.0000
  P   P2        1.0  0.5517506003379822  0.1240413635969162  0.9936133623123169  1.0000
  P   P3        1.0  0.5728434920310974  0.8297677636146545  0.9727873206138611  1.0000
