data_image0
_chemical_formula_structural       BaCCe6CoOPS
_chemical_formula_sum              "Ba1 C1 Ce6 Co1 O1 P1 S1"
_cell_length_a       6.114585477820157
_cell_length_b       6.730286362999268
_cell_length_c       9.401253700256348
_cell_angle_alpha    70.9811731979984
_cell_angle_beta     70.08700884513622
_cell_angle_gamma    63.444965746595095

_space_group_name_H-M_alt    "P 1"
_space_group_IT_number       1

loop_
  _space_group_symop_operation_xyz
  'x, y, z'

loop_
  _atom_site_type_symbol
  _atom_site_label
  _atom_site_symmetry_multiplicity
  _atom_site_fract_x
  _atom_site_fract_y
  _atom_site_fract_z
  _atom_site_occupancy
  Ba  Ba1       1.0  0.7255260944366455  0.6742038726806641  0.004129499197006226  1.0000
  C   C1        1.0  0.7961927652359009  0.2746634781360626  0.9561553597450256  1.0000
  Ce  Ce1       1.0  0.39429864287376404  0.1478421986103058  0.9544528722763062  1.0000
  Ce  Ce2       1.0  0.3528887927532196  0.1456606388092041  0.17464609444141388  1.0000
  Ce  Ce3       1.0  0.4738430082798004  0.9850825071334839  0.7083435654640198  1.0000
  Ce  Ce4       1.0  0.21369147300720215  0.7367194294929504  0.4162696301937103  1.0000
  Ce  Ce5       1.0  0.8785321116447449  0.46484896540641785  0.2223420888185501  1.0000
  Ce  Ce6       1.0  0.9241774082183838  0.7808476686477661  0.3458211421966553  1.0000
  Co  Co1       1.0  0.7055153846740723  0.2933906018733978  0.2280496209859848  1.0000
  O   O1        1.0  0.27230513095855713  0.6813151240348816  0.06912320852279663  1.0000
  P   P1        1.0  0.9811336398124695  0.50343918800354  0.3611910939216614  1.0000
  S   S1        1.0  0.045913152396678925  0.8412520885467529  0.4647694528102875  1.0000
