data_image0
_chemical_formula_structural       CCe2CoCsGeIO2PrSSb
_chemical_formula_sum              "C1 Ce2 Co1 Cs1 Ge1 I1 O2 Pr1 S1 Sb1"
_cell_length_a       5.898552026560307
_cell_length_b       6.864345848873678
_cell_length_c       7.956195831298828
_cell_angle_alpha    79.09131357272095
_cell_angle_beta     67.9754351817749
_cell_angle_gamma    64.49620166731991

_space_group_name_H-M_alt    "P 1"
_space_group_IT_number       1

loop_
  _space_group_symop_operation_xyz
  'x, y, z'

loop_
  _atom_site_type_symbol
  _atom_site_label
  _atom_site_symmetry_multiplicity
  _atom_site_fract_x
  _atom_site_fract_y
  _atom_site_fract_z
  _atom_site_occupancy
  C   C1        1.0  0.6633873581886292  0.18592117726802826  0.8758400082588196  1.0000
  Ce  Ce1       1.0  0.3815738558769226  0.05526647716760635  0.22823944687843323  1.0000
  Ce  Ce2       1.0  0.883017361164093  0.9783011078834533  0.3414233326911926  1.0000
  Co  Co1       1.0  0.6223153471946716  0.42800560593605036  0.8771544098854065  1.0000
  Cs  Cs1       1.0  0.09306091815233239  0.9454362392425536  0.1931324154138565  1.0000
  Ge  Ge1       1.0  0.6312934160232544  0.17310138046741486  0.48023563623428345  1.0000
  I   I1        1.0  0.1305324137210846  0.6109573841094971  0.4315248131752014  1.0000
  O   O1        1.0  0.3129404485225678  0.8293688297271727  0.993196964263916  1.0000
  O   O2        1.0  0.8716685771942139  0.08749519288539886  0.9177923202514648  1.0000
  Pr  Pr1       1.0  0.6385621428489685  0.2744562327861786  0.42334455251693726  1.0000
  S   S1        1.0  0.39556068181991577  0.33541619777679443  0.14441509544849396  1.0000
  Sb  Sb1       1.0  0.900912344455719  0.9965651035308837  0.1382531225681305  1.0000
