data_image0
_chemical_formula_structural       Ce3CoErO5STi
_chemical_formula_sum              "Ce3 Co1 Er1 O5 S1 Ti1"
_cell_length_a       4.4585610671165075
_cell_length_b       7.834695848271285
_cell_length_c       8.712579727172852
_cell_angle_alpha    117.31585879679572
_cell_angle_beta     90.16390508078939
_cell_angle_gamma    89.12563625433032

_space_group_name_H-M_alt    "P 1"
_space_group_IT_number       1

loop_
  _space_group_symop_operation_xyz
  'x, y, z'

loop_
  _atom_site_type_symbol
  _atom_site_label
  _atom_site_symmetry_multiplicity
  _atom_site_fract_x
  _atom_site_fract_y
  _atom_site_fract_z
  _atom_site_occupancy
  Ce  Ce1       1.0  0.5161488652229309  0.5200703740119934  0.5827082395553589  1.0000
  Ce  Ce2       1.0  0.5266606211662292  0.4231373071670532  0.08506158739328384  1.0000
  Ce  Ce3       1.0  0.024485377594828606  0.6654446721076965  0.5248426198959351  1.0000
  Co  Co1       1.0  0.5316235423088074  0.4294709265232086  0.16286391019821167  1.0000
  Er  Er1       1.0  0.00981219857931137  0.5357541441917419  0.8393886089324951  1.0000
  O   O1        1.0  0.5303247570991516  0.8935756087303162  0.8078914880752563  1.0000
  O   O2        1.0  0.5042984485626221  0.04799192026257515  0.37342557311058044  1.0000
  O   O3        1.0  0.544701099395752  0.5344030261039734  0.08584796637296677  1.0000
  O   O4        1.0  0.004727602005004883  0.07079865038394928  0.15146765112876892  1.0000
  O   O5        1.0  0.9774519205093385  0.8266359567642212  0.7620229125022888  1.0000
  S   S1        1.0  0.5279406905174255  0.7803950905799866  0.44844818115234375  1.0000
  Ti  Ti1       1.0  0.01913277804851532  0.878740131855011  0.3336980044841767  1.0000
