data_image0
_chemical_formula_structural       Ce3ErHI2LiO3Zr
_chemical_formula_sum              "Ce3 Er1 H1 I2 Li1 O3 Zr1"
_cell_length_a       5.14931136001591
_cell_length_b       7.304627831455256
_cell_length_c       7.663131237030029
_cell_angle_alpha    122.4275063192552
_cell_angle_beta     88.4234893363623
_cell_angle_gamma    91.5172398567757

_space_group_name_H-M_alt    "P 1"
_space_group_IT_number       1

loop_
  _space_group_symop_operation_xyz
  'x, y, z'

loop_
  _atom_site_type_symbol
  _atom_site_label
  _atom_site_symmetry_multiplicity
  _atom_site_fract_x
  _atom_site_fract_y
  _atom_site_fract_z
  _atom_site_occupancy
  Ce  Ce1       1.0  0.21178708970546722  0.929608941078186  0.1766054332256317  1.0000
  Ce  Ce2       1.0  0.7069720029830933  0.4351434111595154  0.06941480934619904  1.0000
  Ce  Ce3       1.0  0.2099498212337494  0.10518293082714081  0.9658403396606445  1.0000
  Er  Er1       1.0  0.20611357688903809  0.9847448468208313  0.5839529633522034  1.0000
  H   H1        1.0  0.713487446308136  0.12410293519496918  0.6907564997673035  1.0000
  I   I1        1.0  0.7058327794075012  0.49805811047554016  0.2311374545097351  1.0000
  I   I2        1.0  0.20660622417926788  0.25638827681541443  0.39113402366638184  1.0000
  Li  Li1       1.0  0.7064712643623352  0.9434858560562134  0.7650884389877319  1.0000
  O   O1        1.0  0.7193323373794556  0.18097589910030365  0.5433161854743958  1.0000
  O   O2        1.0  0.20861752331256866  0.2777559161186218  0.31344687938690186  1.0000
  O   O3        1.0  0.21305398643016815  0.1659691333770752  0.6120503544807434  1.0000
  Zr  Zr1       1.0  0.7088044881820679  0.22812208533287048  0.37777435779571533  1.0000
