data_image0
_chemical_formula_structural       Ce3LaO2S6
_chemical_formula_sum              "Ce3 La1 O2 S6"
_cell_length_a       6.154275000734389
_cell_length_b       5.7741727133316845
_cell_length_c       6.487802505493164
_cell_angle_alpha    62.20431953828491
_cell_angle_beta     62.864606200226504
_cell_angle_gamma    64.55157610384099

_space_group_name_H-M_alt    "P 1"
_space_group_IT_number       1

loop_
  _space_group_symop_operation_xyz
  'x, y, z'

loop_
  _atom_site_type_symbol
  _atom_site_label
  _atom_site_symmetry_multiplicity
  _atom_site_fract_x
  _atom_site_fract_y
  _atom_site_fract_z
  _atom_site_occupancy
  Ce  Ce1       1.0  0.47554063796997076  0.13330967724323273  0.7992919087409974  1.0000
  Ce  Ce2       1.0  0.5008997917175293  0.1611829698085785  0.015126499347388746  1.0000
  Ce  Ce3       1.0  0.9875937700271608  0.9967101216316223  0.1474086344242096  1.0000
  La  La1       1.0  0.9869056344032289  0.7371209263801575  0.048277407884597785  1.0000
  O   O1        1.0  0.3845696747303009  0.9965607523918152  0.18903036415576938  1.0000
  O   O2        1.0  0.6768107414245605  0.024645451456308365  0.7195001244544983  1.0000
  S   S1        1.0  0.509682834148407  0.5803602933883667  0.824819326400757  1.0000
  S   S2        1.0  0.988702952861786  0.014161408878862858  0.3567301928997039  1.0000
  S   S3        1.0  0.49229311943054205  0.7746448516845703  0.871464490890503  1.0000
  S   S4        1.0  0.4855784177780152  0.6225725412368774  0.9147158265113832  1.0000
  S   S5        1.0  0.0063787722028791904  0.4001178741455078  0.7028238773345947  1.0000
  S   S6        1.0  0.9935832023620607  0.41849491000175476  0.16387529671192164  1.0000
