data_image0
_chemical_formula_structural       Ce5O2S5
_chemical_formula_sum              "Ce5 O2 S5"
_cell_length_a       4.902363382958626
_cell_length_b       3.8532282574392562
_cell_length_c       6.039331912994385
_cell_angle_alpha    84.41427600810681
_cell_angle_beta     70.68579597914741
_cell_angle_gamma    72.23303890552556

_space_group_name_H-M_alt    "P 1"
_space_group_IT_number       1

loop_
  _space_group_symop_operation_xyz
  'x, y, z'

loop_
  _atom_site_type_symbol
  _atom_site_label
  _atom_site_symmetry_multiplicity
  _atom_site_fract_x
  _atom_site_fract_y
  _atom_site_fract_z
  _atom_site_occupancy
  Ce  Ce1       1.0  0.21671973168849945  0.9074894189834595  0.9751355051994324  1.0000
  Ce  Ce2       1.0  0.7181960940361023  0.6963886618614197  0.8423138856887817  1.0000
  Ce  Ce3       1.0  0.7140517234802246  0.2519912123680115  0.09946973621845245  1.0000
  Ce  Ce4       1.0  0.7187531590461731  0.7768740653991699  0.5139500498771667  1.0000
  Ce  Ce5       1.0  0.6913689970970154  0.6189275979995728  0.5651170611381531  1.0000
  O   O1        1.0  0.6809872984886169  0.07257307320833206  0.8672890067100525  1.0000
  O   O2        1.0  0.9673532247543335  0.8685968518257141  0.0799066349864006  1.0000
  S   S1        1.0  0.20035864412784576  0.04093710333108902  0.1088716983795166  1.0000
  S   S2        1.0  0.6962829232215881  0.4489085376262665  0.4612736999988556  1.0000
  S   S3        1.0  0.21454045176506042  0.2504483759403229  0.9379359483718872  1.0000
  S   S4        1.0  0.6982986927032471  0.709697961807251  0.26941952109336853  1.0000
  S   S5        1.0  0.21579521894454956  0.7047100067138672  0.8340726494789124  1.0000
