data_image0
_chemical_formula_structural       AsCoGa2HIPt3ZnZr
_chemical_formula_sum              "As1 Co1 Ga2 H1 I1 Pt3 Zn1 Zr1"
_cell_length_a       6.472350591137024
_cell_length_b       6.808731462170923
_cell_length_c       7.852610111236572
_cell_angle_alpha    89.07432425621644
_cell_angle_beta     79.3605142575752
_cell_angle_gamma    68.90863314088583

_space_group_name_H-M_alt    "P 1"
_space_group_IT_number       1

loop_
  _space_group_symop_operation_xyz
  'x, y, z'

loop_
  _atom_site_type_symbol
  _atom_site_label
  _atom_site_symmetry_multiplicity
  _atom_site_fract_x
  _atom_site_fract_y
  _atom_site_fract_z
  _atom_site_occupancy
  As  As1       1.0  0.09876782447099687  0.6343322396278381  0.13464020192623136  1.0000
  Co  Co1       1.0  0.5737550854682922  0.5429049730300903  0.31017991900444025  1.0000
  Ga  Ga1       1.0  0.21846616268157962  0.5424659252166748  0.059879042208194726  1.0000
  Ga  Ga2       1.0  0.9433176517486573  0.47907188534736633  0.8880602121353148  1.0000
  H   H1        1.0  0.9454100728034974  0.9524356126785278  0.19776515662670133  1.0000
  I   I1        1.0  0.6839575171470643  0.9170909523963928  0.4848514795303344  1.0000
  Pt  Pt1       1.0  0.6714193224906922  0.1798427700996399  0.6330698132514953  1.0000
  Pt  Pt2       1.0  0.08015928417444229  0.5072212815284729  0.8111979961395263  1.0000
  Pt  Pt3       1.0  0.8302146792411805  0.6841102242469788  0.8061674833297728  1.0000
  Zn  Zn1       1.0  0.576260507106781  0.0976141169667244  0.5594453215599059  1.0000
  Zr  Zr1       1.0  0.6661951541900636  0.930450975894928  0.5982341766357421  1.0000
