data_image0
_chemical_formula_structural       As2CGa5HgPTi
_chemical_formula_sum              "As2 C1 Ga5 Hg1 P1 Ti1"
_cell_length_a       6.0126318844871
_cell_length_b       5.817990476341402
_cell_length_c       8.157052040100098
_cell_angle_alpha    97.73473796017032
_cell_angle_beta     92.24415790953911
_cell_angle_gamma    106.16816209538705

_space_group_name_H-M_alt    "P 1"
_space_group_IT_number       1

loop_
  _space_group_symop_operation_xyz
  'x, y, z'

loop_
  _atom_site_type_symbol
  _atom_site_label
  _atom_site_symmetry_multiplicity
  _atom_site_fract_x
  _atom_site_fract_y
  _atom_site_fract_z
  _atom_site_occupancy
  As  As1       1.0  0.24273684620857236  0.9470176100730896  0.9169488549232483  1.0000
  As  As2       1.0  0.9545919895172118  0.11640430241823196  0.05035153403878212  1.0000
  C   C1        1.0  0.2887512743473053  0.4352112114429474  0.6623011827468872  1.0000
  Ga  Ga1       1.0  0.30803462862968445  0.06749469041824341  0.5784966945648193  1.0000
  Ga  Ga2       1.0  0.8002709746360778  0.8200793266296387  0.30720070004463196  1.0000
  Ga  Ga3       1.0  0.8072156310081481  0.09937804937362671  0.25658026337623596  1.0000
  Ga  Ga4       1.0  0.31283169984817505  0.06685777008533478  0.14370930194854736  1.0000
  Ga  Ga5       1.0  0.5583760142326355  0.001052379491738975  0.8541437983512878  1.0000
  Hg  Hg1       1.0  0.7926555275917052  0.5488089323043823  0.6222692728042603  1.0000
  P   P1        1.0  0.8199821710586547  0.20418992638587952  0.9329704642295837  1.0000
  Ti  Ti1       1.0  0.4392686188220977  0.5305328965187073  0.2926662266254425  1.0000
