data_image0
_chemical_formula_structural       AgAu2BCsGa5Se
_chemical_formula_sum              "Ag1 Au2 B1 Cs1 Ga5 Se1"
_cell_length_a       5.461732815712715
_cell_length_b       7.151279597489911
_cell_length_c       7.899957656860352
_cell_angle_alpha    106.53412972284768
_cell_angle_beta     92.74355125565197
_cell_angle_gamma    89.82372220662494

_space_group_name_H-M_alt    "P 1"
_space_group_IT_number       1

loop_
  _space_group_symop_operation_xyz
  'x, y, z'

loop_
  _atom_site_type_symbol
  _atom_site_label
  _atom_site_symmetry_multiplicity
  _atom_site_fract_x
  _atom_site_fract_y
  _atom_site_fract_z
  _atom_site_occupancy
  Ag  Ag1       1.0  0.5762633085250854  0.0948866605758667  0.7085949778556824  1.0000
  Au  Au1       1.0  0.05949705094099044  0.5499701499938965  0.8249816894531251  1.0000
  Au  Au2       1.0  0.5681840777397156  0.24173109233379364  0.9750205278396608  1.0000
  B   B1        1.0  0.5751047134399414  0.7152911424636841  0.4771162867546082  1.0000
  Cs  Cs1       1.0  0.06814692169427872  0.6593567728996277  0.5629955530166626  1.0000
  Ga  Ga1       1.0  0.5525988340377808  0.03215450793504715  0.9225247502326966  1.0000
  Ga  Ga2       1.0  0.07419588416814804  0.30685940384864807  0.15343037247657776  1.0000
  Ga  Ga3       1.0  0.5580113530158997  0.9532119035720825  0.9071759581565858  1.0000
  Ga  Ga4       1.0  0.07299144566059113  0.5348437428474426  0.9202975630760194  1.0000
  Ga  Ga5       1.0  0.06710407882928848  0.5444311499595642  0.006197194568812848  1.0000
  Se  Se1       1.0  0.06496799737215042  0.0995803251862526  0.3752437829971314  1.0000
