data_image0
_chemical_formula_structural       Au3Cs4ErGa2Sn
_chemical_formula_sum              "Au3 Cs4 Er1 Ga2 Sn1"
_cell_length_a       7.070946289890098
_cell_length_b       7.625966292633407
_cell_length_c       7.900084018707275
_cell_angle_alpha    114.66578437159038
_cell_angle_beta     102.6766321142491
_cell_angle_gamma    99.16441733705113

_space_group_name_H-M_alt    "P 1"
_space_group_IT_number       1

loop_
  _space_group_symop_operation_xyz
  'x, y, z'

loop_
  _atom_site_type_symbol
  _atom_site_label
  _atom_site_symmetry_multiplicity
  _atom_site_fract_x
  _atom_site_fract_y
  _atom_site_fract_z
  _atom_site_occupancy
  Au  Au1       1.0  0.26475170254707336  0.41203579306602484  0.7369691729545593  1.0000
  Au  Au2       1.0  0.05102481320500374  0.6294868588447571  0.4297349750995636  1.0000
  Au  Au3       1.0  0.980991542339325  0.5634313821792603  0.4006026089191437  1.0000
  Cs  Cs1       1.0  0.61260986328125  0.8859561681747438  0.7348157167434692  1.0000
  Cs  Cs2       1.0  0.05076849833130839  0.8384241461753846  0.02739223651587963  1.0000
  Cs  Cs3       1.0  0.6444352865219116  0.6902542710304261  0.7521235346794128  1.0000
  Cs  Cs4       1.0  0.12134019285440448  0.7840381264686586  0.1537751853466034  1.0000
  Er  Er1       1.0  0.6111458539962769  0.8838549852371217  0.27484399080276495  1.0000
  Ga  Ga1       1.0  0.08044346421957019  0.912449598312378  0.8995650410652161  1.0000
  Ga  Ga2       1.0  0.6645358800888062  0.5844911336898804  0.5855473875999451  1.0000
  Sn  Sn1       1.0  0.12734138965606692  0.9197193980216981  0.03293848782777786  1.0000
