data_image0
_chemical_formula_structural       As2Au2CsGaPtTiZnZr2
_chemical_formula_sum              "As2 Au2 Cs1 Ga1 Pt1 Ti1 Zn1 Zr2"
_cell_length_a       6.646307840154768
_cell_length_b       7.160448872553724
_cell_length_c       7.342765808105469
_cell_angle_alpha    116.48600767216193
_cell_angle_beta     99.06582120782811
_cell_angle_gamma    101.2011132525856

_space_group_name_H-M_alt    "P 1"
_space_group_IT_number       1

loop_
  _space_group_symop_operation_xyz
  'x, y, z'

loop_
  _atom_site_type_symbol
  _atom_site_label
  _atom_site_symmetry_multiplicity
  _atom_site_fract_x
  _atom_site_fract_y
  _atom_site_fract_z
  _atom_site_occupancy
  As  As1       1.0  0.7134220600128175  0.23042005300521853  0.7283903956413268  1.0000
  As  As2       1.0  0.7834749817848207  0.004778883419930935  0.9920338392257689  1.0000
  Au  Au1       1.0  0.2699168622493744  0.6483978629112244  0.07261104881763464  1.0000
  Au  Au2       1.0  0.2686425447463989  0.41931399703025823  0.5193037390708923  1.0000
  Cs  Cs1       1.0  0.9398793578147889  0.034851379692554474  0.4250610768795013  1.0000
  Ga  Ga1       1.0  0.7602536082267762  0.6593809127807617  0.6673568487167357  1.0000
  Pt  Pt1       1.0  0.25219646096229553  0.01207543257623911  0.5959299206733704  1.0000
  Ti  Ti1       1.0  0.2715127766132355  0.5170450806617737  0.56456059217453  1.0000
  Zn  Zn1       1.0  0.7355017662048341  0.2528832256793976  0.6138100028038024  1.0000
  Zr  Zr1       1.0  0.5503696799278259  0.7325939536094667  0.7110305428504943  1.0000
  Zr  Zr2       1.0  0.669711172580719  0.310661643743515  0.40248829126358027  1.0000
