data_image0
_chemical_formula_structural       As3AuCoGa2IPbPtZn
_chemical_formula_sum              "As3 Au1 Co1 Ga2 I1 Pb1 Pt1 Zn1"
_cell_length_a       6.353899068502399
_cell_length_b       6.231616442914951
_cell_length_c       9.429593086242676
_cell_angle_alpha    97.77517330148515
_cell_angle_beta     90.68566345913665
_cell_angle_gamma    111.25476803756212

_space_group_name_H-M_alt    "P 1"
_space_group_IT_number       1

loop_
  _space_group_symop_operation_xyz
  'x, y, z'

loop_
  _atom_site_type_symbol
  _atom_site_label
  _atom_site_symmetry_multiplicity
  _atom_site_fract_x
  _atom_site_fract_y
  _atom_site_fract_z
  _atom_site_occupancy
  As  As1       1.0  0.6601541042327881  0.1326281726360321  0.32155245542526245  1.0000
  As  As2       1.0  0.8145350217819214  0.3054945766925812  0.6913989186286926  1.0000
  As  As3       1.0  0.10866756737232208  0.40334680676460266  0.8652834296226501  1.0000
  Au  Au1       1.0  0.5817397236824036  0.08294273167848587  0.12967108190059662  1.0000
  Co  Co1       1.0  0.30360516905784607  0.8755952715873718  0.24153247475624082  1.0000
  Ga  Ga1       1.0  0.05150265246629715  0.8891820311546326  0.6049867272377014  1.0000
  Ga  Ga2       1.0  0.795742928981781  0.995436429977417  0.5863418579101561  1.0000
  I   I1        1.0  0.6341531276702881  0.18195024132728577  0.8782031536102294  1.0000
  Pb  Pb1       1.0  0.5736080408096313  0.9604281783103943  0.18922032415866852  1.0000
  Pt  Pt1       1.0  0.5617561936378479  0.21249857544898987  0.1352762132883072  1.0000
  Zn  Zn1       1.0  0.06795346736907959  0.9570174813270569  0.7714910507202148  1.0000
