data_image0
_chemical_formula_structural       O5PbPrPtSSb
_chemical_formula_sum              "O5 Pb1 Pr1 Pt1 S1 Sb1"
_cell_length_a       4.893641911784807
_cell_length_b       6.404185328447146
_cell_length_c       6.258547306060791
_cell_angle_alpha    119.60993361250772
_cell_angle_beta     96.27323080871753
_cell_angle_gamma    91.7566550553786

_space_group_name_H-M_alt    "P 1"
_space_group_IT_number       1

loop_
  _space_group_symop_operation_xyz
  'x, y, z'

loop_
  _atom_site_type_symbol
  _atom_site_label
  _atom_site_symmetry_multiplicity
  _atom_site_fract_x
  _atom_site_fract_y
  _atom_site_fract_z
  _atom_site_occupancy
  O   O1        1.0  0.23387368023395538  0.2040768414735794  0.9540078043937683  1.0000
  O   O2        1.0  0.38121330738067627  0.7289279103279114  0.10348886251449585  1.0000
  O   O3        1.0  0.8736843466758728  0.21951274573802948  0.41605401039123535  1.0000
  O   O4        1.0  0.8886886835098267  0.8398424386978149  0.10171015560626984  1.0000
  O   O5        1.0  0.3884887397289276  0.7192788124084473  0.5734779834747314  1.0000
  Pb  Pb1       1.0  0.11281073093414307  0.3152340054512024  0.0815945416688919  1.0000
  Pr  Pr1       1.0  0.274711012840271  0.07068464905023575  0.7655155062675476  1.0000
  Pt  Pt1       1.0  0.8494604229927063  0.6931024789810181  0.07905186712741852  1.0000
  S   S1        1.0  0.7305696606636047  0.09112874418497086  0.47491082549095154  1.0000
  Sb  Sb1       1.0  0.3595333397388458  0.7637945413589478  0.8947884440422058  1.0000
