data_image0
_chemical_formula_structural       O5Pr3PtSc
_chemical_formula_sum              "O5 Pr3 Pt1 Sc1"
_cell_length_a       4.586575183598457
_cell_length_b       6.636289771642655
_cell_length_c       6.9407525062561035
_cell_angle_alpha    119.12273385570876
_cell_angle_beta     91.87542281708805
_cell_angle_gamma    89.47975867630755

_space_group_name_H-M_alt    "P 1"
_space_group_IT_number       1

loop_
  _space_group_symop_operation_xyz
  'x, y, z'

loop_
  _atom_site_type_symbol
  _atom_site_label
  _atom_site_symmetry_multiplicity
  _atom_site_fract_x
  _atom_site_fract_y
  _atom_site_fract_z
  _atom_site_occupancy
  O   O1        1.0  0.5095183849334717  0.8587155938148499  0.22179821133613586  1.0000
  O   O2        1.0  0.018124153837561607  0.6711810231208801  0.3196473121643067  1.0000
  O   O3        1.0  0.4983070492744446  0.34981074929237366  0.9489514827728271  1.0000
  O   O4        1.0  0.7094612121582031  0.15338201820850372  0.42677628993988037  1.0000
  O   O5        1.0  0.004616785328835249  0.6861286163330078  0.14054737985134125  1.0000
  Pr  Pr1       1.0  0.009537721984088421  0.3745478689670563  0.9304808974266052  1.0000
  Pr  Pr2       1.0  0.49881014227867126  0.6657915711402893  0.6004213690757751  1.0000
  Pr  Pr3       1.0  0.5025634765625  0.3609527349472046  0.8368462324142456  1.0000
  Pt  Pt1       1.0  0.005107549950480461  0.981474757194519  0.5453901290893555  1.0000
  Sc  Sc1       1.0  0.5068575143814087  0.6714422702789307  0.23956048488616943  1.0000
