data_image0
_chemical_formula_structural       CrO6PbPtSb
_chemical_formula_sum              "Cr1 O6 Pb1 Pt1 Sb1"
_cell_length_a       5.487408969290579
_cell_length_b       4.756800633070289
_cell_length_c       6.270805358886719
_cell_angle_alpha    142.21199462629664
_cell_angle_beta     115.6704886957796
_cell_angle_gamma    90.50654390299148

_space_group_name_H-M_alt    "P 1"
_space_group_IT_number       1

loop_
  _space_group_symop_operation_xyz
  'x, y, z'

loop_
  _atom_site_type_symbol
  _atom_site_label
  _atom_site_symmetry_multiplicity
  _atom_site_fract_x
  _atom_site_fract_y
  _atom_site_fract_z
  _atom_site_occupancy
  Cr  Cr1       1.0  0.4802696108818055  0.049069784581661446  0.5952457189559938  1.0000
  O   O1        1.0  0.6315122246742249  0.6234773397445679  0.0894489958882332  1.0000
  O   O2        1.0  0.8531584739685059  0.7427945137023927  0.6196479201316833  1.0000
  O   O3        1.0  0.8778026700019836  0.32134154438972484  0.492832362651825  1.0000
  O   O4        1.0  0.6672016978263855  0.8483647704124451  0.008404046297073389  1.0000
  O   O5        1.0  0.540023446083069  0.4490257799625399  0.8827908039093019  1.0000
  O   O6        1.0  0.04317975416779527  0.9819456934928896  0.7687065601348878  1.0000
  Pb  Pb1       1.0  0.7028653621673584  0.1456614285707474  0.3298526406288147  1.0000
  Pt  Pt1       1.0  0.2196536511182785  0.5354474186897278  0.15650807321071625  1.0000
  Sb  Sb1       1.0  0.011708397418260685  0.23945346474647553  0.8566104769706728  1.0000
