data_image0
_chemical_formula_structural       ClCr2O6Pb
_chemical_formula_sum              "Cl1 Cr2 O6 Pb1"
_cell_length_a       5.889022400690616
_cell_length_b       6.631531002268212
_cell_length_c       7.180624485015869
_cell_angle_alpha    119.09516301161987
_cell_angle_beta     112.09436191676923
_cell_angle_gamma    91.14385448440844

_space_group_name_H-M_alt    "P 1"
_space_group_IT_number       1

loop_
  _space_group_symop_operation_xyz
  'x, y, z'

loop_
  _atom_site_type_symbol
  _atom_site_label
  _atom_site_symmetry_multiplicity
  _atom_site_fract_x
  _atom_site_fract_y
  _atom_site_fract_z
  _atom_site_occupancy
  Cl  Cl1       1.0  0.03135622292757034  0.2517315745353699  0.9574846625328064  1.0000
  Cr  Cr1       1.0  0.6739326119422913  0.06882327049970627  0.4304955005645752  1.0000
  Cr  Cr2       1.0  0.0010918523184955222  0.24727447330951693  0.6172861456871033  1.0000
  O   O1        1.0  0.28759342432022095  0.5404900908470154  0.2633510828018189  1.0000
  O   O2        1.0  0.7800887823104858  0.611487627029419  0.29595664143562317  1.0000
  O   O3        1.0  0.5708316564559937  0.29424482583999634  0.9484672546386719  1.0000
  O   O4        1.0  0.7552490234375  0.23882201313972476  0.6216860413551331  1.0000
  O   O5        1.0  0.16143397986888885  0.7672140598297119  0.48510098457336426  1.0000
  O   O6        1.0  0.4870832264423371  0.734555721282959  0.6109005808830261  1.0000
  Pb  Pb1       1.0  0.36301708221435547  0.5648574233055115  0.9281540513038635  1.0000
