data_image0
_chemical_formula_structural       BrO5Pr2PtSc
_chemical_formula_sum              "Br1 O5 Pr2 Pt1 Sc1"
_cell_length_a       5.5873065898514795
_cell_length_b       6.159833964972345
_cell_length_c       6.52118444442749
_cell_angle_alpha    117.34693495966499
_cell_angle_beta     103.26600139570434
_cell_angle_gamma    91.49730209834452

_space_group_name_H-M_alt    "P 1"
_space_group_IT_number       1

loop_
  _space_group_symop_operation_xyz
  'x, y, z'

loop_
  _atom_site_type_symbol
  _atom_site_label
  _atom_site_symmetry_multiplicity
  _atom_site_fract_x
  _atom_site_fract_y
  _atom_site_fract_z
  _atom_site_occupancy
  Br  Br1       1.0  0.6515246033668518  0.48379367589950556  0.5560771226882935  1.0000
  O   O1        1.0  0.8663167953491211  0.1323588341474533  0.35954681038856506  1.0000
  O   O2        1.0  0.4642427861690521  0.31853634119033813  0.9179405570030212  1.0000
  O   O3        1.0  0.1330743134021759  0.48988634347915644  0.16758984327316287  1.0000
  O   O4        1.0  0.4854738712310791  0.15511734783649445  0.2901158630847931  1.0000
  O   O5        1.0  0.21660713851451874  0.7522326707839966  0.7116542458534241  1.0000
  Pr  Pr1       1.0  0.021505190059542656  0.3059035539627075  0.9336332678794861  1.0000
  Pr  Pr2       1.0  0.06264019012451172  0.6737634539604187  0.936730146408081  1.0000
  Pt  Pt1       1.0  0.7659127712249756  0.9843158125877379  0.4287457168102265  1.0000
  Sc  Sc1       1.0  0.3830414116382599  0.6506800055503845  0.17285776138305664  1.0000
