data_image0
_chemical_formula_structural       AgClO4PbPtSbSi
_chemical_formula_sum              "Ag1 Cl1 O4 Pb1 Pt1 Sb1 Si1"
_cell_length_a       5.680274165931053
_cell_length_b       6.1133357382150475
_cell_length_c       6.2176337242126465
_cell_angle_alpha    64.67934699313017
_cell_angle_beta     62.85300563795152
_cell_angle_gamma    60.58793886295403

_space_group_name_H-M_alt    "P 1"
_space_group_IT_number       1

loop_
  _space_group_symop_operation_xyz
  'x, y, z'

loop_
  _atom_site_type_symbol
  _atom_site_label
  _atom_site_symmetry_multiplicity
  _atom_site_fract_x
  _atom_site_fract_y
  _atom_site_fract_z
  _atom_site_occupancy
  Ag  Ag1       1.0  0.09907029569149017  0.37231436371803284  0.12129776179790498  1.0000
  Cl  Cl1       1.0  0.28187495470046997  0.5838212370872498  0.37413084506988525  1.0000
  O   O1        1.0  0.8678225874900818  0.4004560112953186  0.5090276598930359  1.0000
  O   O2        1.0  0.2608652412891388  0.9490416049957275  0.7914732694625854  1.0000
  O   O3        1.0  0.920904815196991  0.11940617859363556  0.36923548579216003  1.0000
  O   O4        1.0  0.4145311415195465  0.6599650979042053  0.3720799684524536  1.0000
  Pb  Pb1       1.0  0.9987953901290894  0.3630855977535248  0.6182270050048828  1.0000
  Pt  Pt1       1.0  0.5984348654747009  0.36920100450515747  0.11756643652915956  1.0000
  Sb  Sb1       1.0  0.8014430999755859  0.16440612077713013  0.9085639119148256  1.0000
  Si  Si1       1.0  0.5285635590553284  0.8971433639526367  0.8801974058151246  1.0000
