data_image0
_chemical_formula_structural       O3Pb4VZr2
_chemical_formula_sum              "O3 Pb4 V1 Zr2"
_cell_length_a       5.662260657751454
_cell_length_b       5.982818996312364
_cell_length_c       7.418107509613037
_cell_angle_alpha    81.83884196568056
_cell_angle_beta     73.57003258368594
_cell_angle_gamma    76.33706586120343

_space_group_name_H-M_alt    "P 1"
_space_group_IT_number       1

loop_
  _space_group_symop_operation_xyz
  'x, y, z'

loop_
  _atom_site_type_symbol
  _atom_site_label
  _atom_site_symmetry_multiplicity
  _atom_site_fract_x
  _atom_site_fract_y
  _atom_site_fract_z
  _atom_site_occupancy
  O   O1        1.0  0.13435021042823792  0.2787928283214569  0.41825905442237854  1.0000
  O   O2        1.0  0.8687034845352173  0.16035233438014984  0.08468379080295563  1.0000
  O   O3        1.0  0.1290593147277832  0.3375841975212097  0.005944497883319855  1.0000
  Pb  Pb1       1.0  0.38284429907798767  0.31118372082710266  0.7606135010719299  1.0000
  Pb  Pb2       1.0  0.13874226808547974  0.1516745239496231  0.3709039092063904  1.0000
  Pb  Pb3       1.0  0.6380593180656433  0.7244793176651001  0.7634884119033813  1.0000
  Pb  Pb4       1.0  0.8564988374710083  0.31872597336769104  0.8274179100990295  1.0000
  V   V1        1.0  0.13606777787208557  0.4548712968826294  0.8644929528236389  1.0000
  Zr  Zr1       1.0  0.13882774114608765  0.22726286947727203  0.36035946011543274  1.0000
  Zr  Zr2       1.0  0.6421124935150146  0.22055980563163757  0.4705364406108856  1.0000
