data_image0
_chemical_formula_structural       GaOPb4Zr4
_chemical_formula_sum              "Ga1 O1 Pb4 Zr4"
_cell_length_a       7.752635173804045
_cell_length_b       7.465915585866369
_cell_length_c       7.9082112312316895
_cell_angle_alpha    60.474868230740405
_cell_angle_beta     61.89266569904153
_cell_angle_gamma    59.38409952788677

_space_group_name_H-M_alt    "P 1"
_space_group_IT_number       1

loop_
  _space_group_symop_operation_xyz
  'x, y, z'

loop_
  _atom_site_type_symbol
  _atom_site_label
  _atom_site_symmetry_multiplicity
  _atom_site_fract_x
  _atom_site_fract_y
  _atom_site_fract_z
  _atom_site_occupancy
  Ga  Ga1       1.0  0.6956861615180969  0.1192372515797615  0.5098346471786499  1.0000
  O   O1        1.0  0.07562307268381119  0.5005385875701904  0.8426762223243713  1.0000
  Pb  Pb1       1.0  0.1119491308927536  0.28901633620262146  0.3877919614315033  1.0000
  Pb  Pb2       1.0  0.10274529457092285  0.5408892035484314  0.9739055037498474  1.0000
  Pb  Pb3       1.0  0.6338288187980652  0.3463906943798065  0.028081929311156273  1.0000
  Pb  Pb4       1.0  0.13528412580490112  0.039677783846855164  0.06231578812003136  1.0000
  Zr  Zr1       1.0  0.10076151043176651  0.300588458776474  0.78411865234375  1.0000
  Zr  Zr2       1.0  0.03891283646225929  0.4949684739112854  0.4331071376800537  1.0000
  Zr  Zr3       1.0  0.6328958868980408  0.8338391184806824  0.008352580480277594  1.0000
  Zr  Zr4       1.0  0.6282286047935486  0.8104989528656006  0.0009427171316929267  1.0000
