data_image0
_chemical_formula_structural       GeHIOPPb3Zr2
_chemical_formula_sum              "Ge1 H1 I1 O1 P1 Pb3 Zr2"
_cell_length_a       7.406804713760544
_cell_length_b       7.09027539188391
_cell_length_c       7.630498886108398
_cell_angle_alpha    59.56220876113972
_cell_angle_beta     60.68172477433666
_cell_angle_gamma    59.11712102986647

_space_group_name_H-M_alt    "P 1"
_space_group_IT_number       1

loop_
  _space_group_symop_operation_xyz
  'x, y, z'

loop_
  _atom_site_type_symbol
  _atom_site_label
  _atom_site_symmetry_multiplicity
  _atom_site_fract_x
  _atom_site_fract_y
  _atom_site_fract_z
  _atom_site_occupancy
  Ge  Ge1       1.0  0.7972192764282227  0.645357608795166  0.733610451221466  1.0000
  H   H1        1.0  0.4545428454875946  0.7079628705978394  0.9078013896942138  1.0000
  I   I1        1.0  0.9986123442649841  0.30472567677497864  0.07933202385902405  1.0000
  O   O1        1.0  0.47221142053604126  0.8959161639213562  0.5954258441925049  1.0000
  P   P1        1.0  0.7327702641487122  0.8696901798248291  0.8828297853469848  1.0000
  Pb  Pb1       1.0  0.743126630783081  0.22612647712230682  0.4554187655448913  1.0000
  Pb  Pb2       1.0  0.7134885191917419  0.3099974989891052  0.9497900009155272  1.0000
  Pb  Pb3       1.0  0.4631181061267853  0.18697814643383026  0.5288376808166504  1.0000
  Zr  Zr1       1.0  0.23099477589130402  0.4311940670013428  0.0509347915649414  1.0000
  Zr  Zr2       1.0  0.19363808631896973  0.7338792085647583  0.6028414964675903  1.0000
