data_image0
_chemical_formula_structural       GeHIO2Pb4Si
_chemical_formula_sum              "Ge1 H1 I1 O2 Pb4 Si1"
_cell_length_a       6.928626553075459
_cell_length_b       7.1850861220924624
_cell_length_c       7.375076770782471
_cell_angle_alpha    60.34882601256795
_cell_angle_beta     62.41502206069443
_cell_angle_gamma    59.88752949498648

_space_group_name_H-M_alt    "P 1"
_space_group_IT_number       1

loop_
  _space_group_symop_operation_xyz
  'x, y, z'

loop_
  _atom_site_type_symbol
  _atom_site_label
  _atom_site_symmetry_multiplicity
  _atom_site_fract_x
  _atom_site_fract_y
  _atom_site_fract_z
  _atom_site_occupancy
  Ge  Ge1       1.0  0.3185446858406067  0.19121727347373962  0.6381382346153259  1.0000
  H   H1        1.0  0.17419911921024325  0.23133689165115356  0.22472123801708221  1.0000
  I   I1        1.0  0.027007184922695163  0.5228705406188965  0.6679729223251343  1.0000
  O   O1        1.0  0.650939404964447  0.4536535441875458  0.5177298188209534  1.0000
  O   O2        1.0  0.24543999135494235  0.1275116503238678  0.3666142225265503  1.0000
  Pb  Pb1       1.0  0.6709114909172058  0.7098262906074524  0.022992992773652077  1.0000
  Pb  Pb2       1.0  0.4815861880779267  0.8140770792961121  0.3615853190422058  1.0000
  Pb  Pb3       1.0  0.7050901651382447  0.6120911240577698  0.2634263038635254  1.0000
  Pb  Pb4       1.0  0.5205381512641907  0.5049280524253845  0.7387321591377258  1.0000
  Si  Si1       1.0  0.040562793612480164  0.6363626718521118  0.42970454692840576  1.0000
