data_image0
_chemical_formula_structural       Cr3O4Pb3
_chemical_formula_sum              "Cr3 O4 Pb3"
_cell_length_a       4.4071153852823
_cell_length_b       5.617775968560775
_cell_length_c       8.496466636657715
_cell_angle_alpha    113.45486813428244
_cell_angle_beta     89.47985936133846
_cell_angle_gamma    89.85634867313682

_space_group_name_H-M_alt    "P 1"
_space_group_IT_number       1

loop_
  _space_group_symop_operation_xyz
  'x, y, z'

loop_
  _atom_site_type_symbol
  _atom_site_label
  _atom_site_symmetry_multiplicity
  _atom_site_fract_x
  _atom_site_fract_y
  _atom_site_fract_z
  _atom_site_occupancy
  Cr  Cr1       1.0  0.6105711460113525  0.29877376556396484  0.7803382873535156  1.0000
  Cr  Cr2       1.0  0.38888874650001526  0.016564473509788513  0.3499411940574646  1.0000
  Cr  Cr3       1.0  0.38301146030426025  0.12460692971944809  0.6328098177909851  1.0000
  O   O1        1.0  0.8843910694122314  0.7797338962554932  0.5038368701934814  1.0000
  O   O2        1.0  0.5678048133850098  0.6270262002944946  0.03762779012322426  1.0000
  O   O3        1.0  0.3785143792629242  0.880036473274231  0.0987833961844444  1.0000
  O   O4        1.0  0.8926682472229004  0.974787175655365  0.3839796781539917  1.0000
  Pb  Pb1       1.0  0.8892583847045898  0.8751041889190674  0.054206505417823764  1.0000
  Pb  Pb2       1.0  0.8858219385147095  0.7758984565734863  0.4840885102748871  1.0000
  Pb  Pb3       1.0  0.14471018314361572  0.916881799697876  0.04944305494427676  1.0000
