data_image0
_chemical_formula_structural       Cr2O6Pb2
_chemical_formula_sum              "Cr2 O6 Pb2"
_cell_length_a       4.58744441389734
_cell_length_b       4.850000986498914
_cell_length_c       4.687082767486572
_cell_angle_alpha    125.24182315628872
_cell_angle_beta     100.20830338629915
_cell_angle_gamma    124.61390794434855

_space_group_name_H-M_alt    "P 1"
_space_group_IT_number       1

loop_
  _space_group_symop_operation_xyz
  'x, y, z'

loop_
  _atom_site_type_symbol
  _atom_site_label
  _atom_site_symmetry_multiplicity
  _atom_site_fract_x
  _atom_site_fract_y
  _atom_site_fract_z
  _atom_site_occupancy
  Cr  Cr1       1.0  0.7923980355262755  0.6578744053840636  0.7927477955818176  1.0000
  Cr  Cr2       1.0  0.272720605134964  0.14546658098697662  0.2924405634403229  1.0000
  O   O1        1.0  0.2835060954093933  0.002258612774312524  0.16249443590641025  1.0000
  O   O2        1.0  0.4856708347797396  0.4221238195896151  0.8552972078323365  1.0000
  O   O3        1.0  0.11087968200445175  0.6416326761245728  0.5472211241722107  1.0000
  O   O4        1.0  0.6638652682304382  0.12823541462421414  0.5254859924316406  1.0000
  O   O5        1.0  0.3775521516799928  0.3209417760372163  0.7895795106887818  1.0000
  O   O6        1.0  0.262656033039093  0.3988020420074463  0.37364661693573  1.0000
  Pb  Pb1       1.0  0.8130320906639099  0.5939794182777405  0.9192437529563904  1.0000
  Pb  Pb2       1.0  0.30738714337348927  0.17341186106204975  0.7681154012680053  1.0000
