data_image0
_chemical_formula_structural       CCoDy5GeILiReSr2Zn
_chemical_formula_sum              "C1 Co1 Dy5 Ge1 I1 Li1 Re1 Sr2 Zn1"
_cell_length_a       6.649290026431122
_cell_length_b       6.733862399762125
_cell_length_c       7.626520156860352
_cell_angle_alpha    115.31666782346016
_cell_angle_beta     114.03385230049788
_cell_angle_gamma    90.28555547928677

_space_group_name_H-M_alt    "P 1"
_space_group_IT_number       1

loop_
  _space_group_symop_operation_xyz
  'x, y, z'

loop_
  _atom_site_type_symbol
  _atom_site_label
  _atom_site_symmetry_multiplicity
  _atom_site_fract_x
  _atom_site_fract_y
  _atom_site_fract_z
  _atom_site_occupancy
  C   C1        1.0  0.9560835957527161  0.7092549800872803  0.5677611827850342  1.0000
  Co  Co1       1.0  0.7807841300964355  0.45117375254631037  0.11358220130205154  1.0000
  Dy  Dy1       1.0  0.4568677842617035  0.23896582424640653  0.5446150898933411  1.0000
  Dy  Dy2       1.0  0.9613350033760071  0.1500360071659088  0.06765894591808319  1.0000
  Dy  Dy3       1.0  0.2723761796951294  0.44959992170333857  0.48133811354637146  1.0000
  Dy  Dy4       1.0  0.46435144543647766  0.6948132514953613  0.3115038573741913  1.0000
  Dy  Dy5       1.0  0.46930667757987976  0.8698700070381163  0.7031784653663635  1.0000
  Ge  Ge1       1.0  0.7018737196922302  0.19924513995647428  0.9695647358894348  1.0000
  I   I1        1.0  0.95274418592453  0.2895321547985077  0.6323068141937256  1.0000
  Li  Li1       1.0  0.45444363355636597  0.07603131979703903  0.20305180549621582  1.0000
  Re  Re1       1.0  0.9541611671447754  0.7494581937789916  0.3674626350402832  1.0000
  Sr  Sr1       1.0  0.9682736992835999  0.8266034126281737  0.855744481086731  1.0000
  Sr  Sr2       1.0  0.022516032680869068  0.8616670370101928  0.7752742767333984  1.0000
  Zn  Zn1       1.0  0.4576762616634369  0.12858471274375916  0.45200854539871216  1.0000
