data_image0
_chemical_formula_structural       Dy2Ge3Li2OPSr3Zr2
_chemical_formula_sum              "Dy2 Ge3 Li2 O1 P1 Sr3 Zr2"
_cell_length_a       6.5330011218542925
_cell_length_b       6.8443770242715285
_cell_length_c       7.501590728759766
_cell_angle_alpha    80.35078763634678
_cell_angle_beta     66.09642004621182
_cell_angle_gamma    64.14515921616018

_space_group_name_H-M_alt    "P 1"
_space_group_IT_number       1

loop_
  _space_group_symop_operation_xyz
  'x, y, z'

loop_
  _atom_site_type_symbol
  _atom_site_label
  _atom_site_symmetry_multiplicity
  _atom_site_fract_x
  _atom_site_fract_y
  _atom_site_fract_z
  _atom_site_occupancy
  Dy  Dy1       1.0  0.5630048513412476  0.43504348397254944  0.8406736850738525  1.0000
  Dy  Dy2       1.0  0.06942403316497803  0.12284129112958907  0.487135261297226  1.0000
  Ge  Ge1       1.0  0.12522302567958837  0.9698951244354247  0.14484499394893646  1.0000
  Ge  Ge2       1.0  0.5085045099258423  0.7643352150917053  0.2671024203300476  1.0000
  Ge  Ge3       1.0  0.04675818234682083  0.690250039100647  0.885091543197632  1.0000
  Li  Li1       1.0  0.11483865231275557  0.29128503799438477  0.5741301774978638  1.0000
  Li  Li2       1.0  0.7812994718551636  0.2588181793689728  0.23310591280460366  1.0000
  O   O1        1.0  0.541817307472229  0.9159590601921082  0.4116746783256531  1.0000
  P   P1        1.0  0.5323432683944702  0.30011147260665894  0.21710094809532168  1.0000
  Sr  Sr1       1.0  0.5533009171485901  0.16005033254623413  0.13403888046741486  1.0000
  Sr  Sr2       1.0  0.2685096859931946  0.00294109876267612  0.21615326404571536  1.0000
  Sr  Sr3       1.0  0.054810330271720886  0.33916330337524414  0.5638056397438049  1.0000
  Zr  Zr1       1.0  0.5662656426429749  0.4324552118778229  0.29888850450515747  1.0000
  Zr  Zr2       1.0  0.8605515360832214  0.7994604110717773  0.836108386516571  1.0000
