data_image0
_chemical_formula_structural       ClDy2O4Re3Sr4
_chemical_formula_sum              "Cl1 Dy2 O4 Re3 Sr4"
_cell_length_a       5.935786492091513
_cell_length_b       5.703167127987251
_cell_length_c       6.007580280303955
_cell_angle_alpha    67.41538936783385
_cell_angle_beta     61.807436297938246
_cell_angle_gamma    63.27032791156467

_space_group_name_H-M_alt    "P 1"
_space_group_IT_number       1

loop_
  _space_group_symop_operation_xyz
  'x, y, z'

loop_
  _atom_site_type_symbol
  _atom_site_label
  _atom_site_symmetry_multiplicity
  _atom_site_fract_x
  _atom_site_fract_y
  _atom_site_fract_z
  _atom_site_occupancy
  Cl  Cl1       1.0  0.9986279010772705  0.36947518587112427  0.9007747173309326  1.0000
  Dy  Dy1       1.0  0.48957303166389465  0.2638665735721588  0.3538404107093811  1.0000
  Dy  Dy2       1.0  0.2257845401763916  0.5667903423309326  0.03295881673693657  1.0000
  O   O1        1.0  0.8516526222229004  0.5022751092910767  0.43064290285110474  1.0000
  O   O2        1.0  0.020554644986987114  0.7627649307250977  0.6049917340278625  1.0000
  O   O3        1.0  0.3902416527271271  0.013529794290661812  0.348245769739151  1.0000
  O   O4        1.0  0.4565366506576538  0.2198871523141861  0.3636944591999054  1.0000
  Re  Re1       1.0  0.7253411412239075  0.3587368130683899  0.6686425805091858  1.0000
  Re  Re2       1.0  0.7172868847846985  0.07649651169776917  0.33640626072883606  1.0000
  Re  Re3       1.0  0.9401031732559204  0.3387998640537262  0.031787753105163644  1.0000
  Sr  Sr1       1.0  0.6849900484085083  0.7636609077453613  0.15523290634155273  1.0000
  Sr  Sr2       1.0  0.2046010047197342  0.6235265135765076  0.46583020687103266  1.0000
  Sr  Sr3       1.0  0.008799318224191666  0.6907511353492737  0.10614439100027084  1.0000
  Sr  Sr4       1.0  0.8116393685340881  0.5422826409339905  0.5937607884407043  1.0000
