data_image0
_chemical_formula_structural       GeO8Sr5
_chemical_formula_sum              "Ge1 O8 Sr5"
_cell_length_a       6.026147646662479
_cell_length_b       5.936591655008772
_cell_length_c       5.804242134094238
_cell_angle_alpha    106.39866970462688
_cell_angle_beta     107.56423532506238
_cell_angle_gamma    109.88544746725965

_space_group_name_H-M_alt    "P 1"
_space_group_IT_number       1

loop_
  _space_group_symop_operation_xyz
  'x, y, z'

loop_
  _atom_site_type_symbol
  _atom_site_label
  _atom_site_symmetry_multiplicity
  _atom_site_fract_x
  _atom_site_fract_y
  _atom_site_fract_z
  _atom_site_occupancy
  Ge  Ge1       1.0  0.7747957110404968  0.5585614442825317  0.18565645813941956  1.0000
  O   O1        1.0  0.7781153321266174  0.6103450655937195  0.6715584397315979  1.0000
  O   O2        1.0  0.27724021673202515  0.34070083498954773  0.6490840315818787  1.0000
  O   O3        1.0  0.7934914827346802  0.980412483215332  0.03956910967826851  1.0000
  O   O4        1.0  0.27639371156692505  0.6561009287834167  0.8405791521072388  1.0000
  O   O5        1.0  0.7828317284584045  0.6470158696174622  0.27076709270477306  1.0000
  O   O6        1.0  0.2801598310470581  0.26544827222824097  0.7565276026725769  1.0000
  O   O7        1.0  0.28191235661506653  0.07287465035915375  0.023545540869235992  1.0000
  O   O8        1.0  0.2812753915786743  0.3300482928752899  0.05797465518116955  1.0000
  Sr  Sr1       1.0  0.7602881789207458  0.19137485325336456  0.6969434022903442  1.0000
  Sr  Sr2       1.0  0.27172964811325073  0.13318727910518646  0.9415115118026733  1.0000
  Sr  Sr3       1.0  0.2901695668697357  0.9121526479721069  0.05450548231601723  1.0000
  Sr  Sr4       1.0  0.516362190246582  0.1811601221561432  0.9161444902420044  1.0000
  Sr  Sr5       1.0  0.7817265391349792  0.6363784074783325  0.37135231494903564  1.0000
