data_image0
_chemical_formula_structural       CoDy4GeIO3PPrSbZn
_chemical_formula_sum              "Co1 Dy4 Ge1 I1 O3 P1 Pr1 Sb1 Zn1"
_cell_length_a       5.877399113044123
_cell_length_b       6.184155364228825
_cell_length_c       7.482324600219727
_cell_angle_alpha    92.81845472931369
_cell_angle_beta     89.68413246336864
_cell_angle_gamma    91.17346942815806

_space_group_name_H-M_alt    "P 1"
_space_group_IT_number       1

loop_
  _space_group_symop_operation_xyz
  'x, y, z'

loop_
  _atom_site_type_symbol
  _atom_site_label
  _atom_site_symmetry_multiplicity
  _atom_site_fract_x
  _atom_site_fract_y
  _atom_site_fract_z
  _atom_site_occupancy
  Co  Co1       1.0  0.8216696381568909  0.5803284645080566  0.9627735018730165  1.0000
  Dy  Dy1       1.0  0.3266158401966095  0.31900614500045776  0.07144299149513245  1.0000
  Dy  Dy2       1.0  0.8319143056869507  0.7834661602973937  0.6995956897735596  1.0000
  Dy  Dy3       1.0  0.821638822555542  0.7484087944030761  0.8365142941474916  1.0000
  Dy  Dy4       1.0  0.33107948303222656  0.8930516242980956  0.39157941937446594  1.0000
  Ge  Ge1       1.0  0.31740042567253113  0.37420603632926935  0.7406900525093079  1.0000
  I   I1        1.0  0.31524303555488586  0.16023987531661987  0.23114296793937686  1.0000
  O   O1        1.0  0.31761959195137024  0.23745995759963986  0.44277539849281317  1.0000
  O   O2        1.0  0.8194045424461365  0.17941530048847198  0.15268710255622864  1.0000
  O   O3        1.0  0.3189833462238312  0.27135777473449707  0.6006402373313903  1.0000
  P   P1        1.0  0.8324742317199707  0.9075627326965331  0.8307572007179261  1.0000
  Pr  Pr1       1.0  0.8196502327919006  0.5399186611175537  0.5029852986335754  1.0000
  Sb  Sb1       1.0  0.3196924328804016  0.24322725832462308  0.01205738727003336  1.0000
  Zn  Zn1       1.0  0.8112016320228577  0.39819476008415217  0.49781000614166265  1.0000
