data_image0
_chemical_formula_structural       AlHfLaO5PRe2Sr2Zn
_chemical_formula_sum              "Al1 Hf1 La1 O5 P1 Re2 Sr2 Zn1"
_cell_length_a       5.355348059066246
_cell_length_b       4.635370155037945
_cell_length_c       5.456044673919678
_cell_angle_alpha    114.47901447153802
_cell_angle_beta     108.84474638423248
_cell_angle_gamma    94.49499157515554

_space_group_name_H-M_alt    "P 1"
_space_group_IT_number       1

loop_
  _space_group_symop_operation_xyz
  'x, y, z'

loop_
  _atom_site_type_symbol
  _atom_site_label
  _atom_site_symmetry_multiplicity
  _atom_site_fract_x
  _atom_site_fract_y
  _atom_site_fract_z
  _atom_site_occupancy
  Al  Al1       1.0  0.765792965888977  0.9736273884773254  0.10513653606176376  1.0000
  Hf  Hf1       1.0  0.40094393491744995  0.8213714957237244  0.1419605165719986  1.0000
  La  La1       1.0  0.8919636011123657  0.0052328528836369514  0.1327542662620545  1.0000
  O   O1        1.0  0.970233142375946  0.9220510125160217  0.7515356540679932  1.0000
  O   O2        1.0  0.9504393935203552  0.35054534673690796  0.055081143975257874  1.0000
  O   O3        1.0  0.8724451661109924  0.29311874508857727  0.8304297924041748  1.0000
  O   O4        1.0  0.9757986068725586  0.8071165084838867  0.021337635815143585  1.0000
  O   O5        1.0  0.44370973110198975  0.7282572388648987  0.4446474611759186  1.0000
  P   P1        1.0  0.42941296100616455  0.16915535926818848  0.9038200974464417  1.0000
  Re  Re1       1.0  0.42197930812835693  0.18948523700237274  0.4686284065246582  1.0000
  Re  Re2       1.0  0.3973173201084137  0.9915627837181091  0.443544864654541  1.0000
  Sr  Sr1       1.0  0.2337653785943985  0.9134445190429688  0.17135195434093475  1.0000
  Sr  Sr2       1.0  0.7600895762443542  0.8214869499206543  0.93149334192276  1.0000
  Zn  Zn1       1.0  0.4277193248271942  0.7567074298858643  0.3067705035209656  1.0000
