data_image0
_chemical_formula_structural       Ca3Ge2I4P2
_chemical_formula_sum              "Ca3 Ge2 I4 P2"
_cell_length_a       6.559756712047811
_cell_length_b       6.6498150090559305
_cell_length_c       7.595487594604492
_cell_angle_alpha    71.5368447993526
_cell_angle_beta     74.71713223520635
_cell_angle_gamma    82.76468781981498

_space_group_name_H-M_alt    "P 1"
_space_group_IT_number       1

loop_
  _space_group_symop_operation_xyz
  'x, y, z'

loop_
  _atom_site_type_symbol
  _atom_site_label
  _atom_site_symmetry_multiplicity
  _atom_site_fract_x
  _atom_site_fract_y
  _atom_site_fract_z
  _atom_site_occupancy
  Ca  Ca1       1.0  0.19955667853355408  0.4035193920135498  0.852008581161499  1.0000
  Ca  Ca2       1.0  0.8400375247001648  0.5490570068359375  0.5713944435119629  1.0000
  Ca  Ca3       1.0  0.8429808616638184  0.6885316371917725  0.0898575559258461  1.0000
  Ge  Ge1       1.0  0.5903751850128174  0.9200172424316406  0.40893277525901794  1.0000
  Ge  Ge2       1.0  0.7638933658599854  0.9246934652328491  0.9294923543930053  1.0000
  I   I1        1.0  0.5779365301132202  0.6435595750808716  0.349155455827713  1.0000
  I   I2        1.0  0.5767809152603149  0.2956620454788208  0.7579779624938965  1.0000
  I   I3        1.0  0.18990887701511383  0.8477543592453003  0.9047410488128661  1.0000
  I   I4        1.0  0.753579318523407  0.9764545559883118  0.7029330134391785  1.0000
  P   P1        1.0  0.2881389260292053  0.9667982459068298  0.19877450168132782  1.0000
  P   P2        1.0  0.32376420497894287  0.5296324491500854  0.3393073081970215  1.0000
