data_image0
_chemical_formula_structural       Ca5GaGeI3Li
_chemical_formula_sum              "Ca5 Ga1 Ge1 I3 Li1"
_cell_length_a       5.08166979737671
_cell_length_b       4.955142899589684
_cell_length_c       10.978652954101562
_cell_angle_alpha    84.90674000785329
_cell_angle_beta     80.66679340970683
_cell_angle_gamma    67.35578466845564

_space_group_name_H-M_alt    "P 1"
_space_group_IT_number       1

loop_
  _space_group_symop_operation_xyz
  'x, y, z'

loop_
  _atom_site_type_symbol
  _atom_site_label
  _atom_site_symmetry_multiplicity
  _atom_site_fract_x
  _atom_site_fract_y
  _atom_site_fract_z
  _atom_site_occupancy
  Ca  Ca1       1.0  0.39813941717147827  0.14883285760879517  0.18989716470241547  1.0000
  Ca  Ca2       1.0  0.846764862537384  0.7245084643363953  0.06072015687823295  1.0000
  Ca  Ca3       1.0  0.8675686120986938  0.36138835549354553  0.9254561662673949  1.0000
  Ca  Ca4       1.0  0.42350253462791443  0.5790294408798218  0.5022228360176086  1.0000
  Ca  Ca5       1.0  0.34806522727012634  0.260036826133728  0.4836371541023254  1.0000
  Ga  Ga1       1.0  0.09093024581670761  0.5705780386924744  0.10533732175827026  1.0000
  Ge  Ge1       1.0  0.4021192789077759  0.4872060716152191  0.05784197524189948  1.0000
  I   I1        1.0  0.20657768845558167  0.5926513671875  0.8432222008705139  1.0000
  I   I2        1.0  0.3099597096443176  0.2911912500858307  0.10088113695383072  1.0000
  I   I3        1.0  0.7672556638717651  0.642997145652771  0.9007471203804015  1.0000
  Li  Li1       1.0  0.6256657838821411  0.5643014907836914  0.9000378251075744  1.0000
