data_image0
_chemical_formula_structural       Ca9Ge2
_chemical_formula_sum              "Ca9 Ge2"
_cell_length_a       6.3957892140486905
_cell_length_b       7.615845104805259
_cell_length_c       7.989017009735107
_cell_angle_alpha    114.6179867977025
_cell_angle_beta     107.86697196826529
_cell_angle_gamma    107.51910624175198

_space_group_name_H-M_alt    "P 1"
_space_group_IT_number       1

loop_
  _space_group_symop_operation_xyz
  'x, y, z'

loop_
  _atom_site_type_symbol
  _atom_site_label
  _atom_site_symmetry_multiplicity
  _atom_site_fract_x
  _atom_site_fract_y
  _atom_site_fract_z
  _atom_site_occupancy
  Ca  Ca1       1.0  0.2420957088470459  0.3013085126876831  0.06502021849155429  1.0000
  Ca  Ca2       1.0  0.7831369638442993  0.9585047960281373  0.022956505417823906  1.0000
  Ca  Ca3       1.0  0.2683787047863007  0.9255225658416749  0.6323233842849734  1.0000
  Ca  Ca4       1.0  0.3102051019668579  0.20827679336071017  0.8320314884185792  1.0000
  Ca  Ca5       1.0  0.8185519576072693  0.6176723837852478  0.3406611084938051  1.0000
  Ca  Ca6       1.0  0.36036983132362366  0.039846427738666534  0.571989119052887  1.0000
  Ca  Ca7       1.0  0.42904579639434826  0.9124669432640077  0.0027403470594437184  1.0000
  Ca  Ca8       1.0  0.6999956965446472  0.8005884885787965  0.8300247788429261  1.0000
  Ca  Ca9       1.0  0.3674574196338654  0.9665990471839906  0.041351843625307146  1.0000
  Ge  Ge1       1.0  0.9777029156684875  0.3939159214496613  0.15678897500038155  1.0000
  Ge  Ge2       1.0  0.8466492891311646  0.6928685307502747  0.8296862840652467  1.0000
