data_image0
_chemical_formula_structural       Al2Ca7Ge2
_chemical_formula_sum              "Al2 Ca7 Ge2"
_cell_length_a       5.787018020294032
_cell_length_b       6.0038374569647175
_cell_length_c       8.717830657958984
_cell_angle_alpha    101.89225892491882
_cell_angle_beta     94.28647110716854
_cell_angle_gamma    122.35412633876042

_space_group_name_H-M_alt    "P 1"
_space_group_IT_number       1

loop_
  _space_group_symop_operation_xyz
  'x, y, z'

loop_
  _atom_site_type_symbol
  _atom_site_label
  _atom_site_symmetry_multiplicity
  _atom_site_fract_x
  _atom_site_fract_y
  _atom_site_fract_z
  _atom_site_occupancy
  Al  Al1       1.0  0.6628318428993225  0.11707886308431625  0.8635416626930237  1.0000
  Al  Al2       1.0  0.9923077821731567  0.8998368978500366  0.44239652156829834  1.0000
  Ca  Ca1       1.0  0.48899275064468384  0.5015751719474792  0.603023886680603  1.0000
  Ca  Ca2       1.0  0.46923184394836426  0.41062843799591064  0.12563550472259521  1.0000
  Ca  Ca3       1.0  0.8313427567481995  0.07596971094608307  0.5898224711418152  1.0000
  Ca  Ca4       1.0  0.4686267077922821  0.570773720741272  0.5820881724357605  1.0000
  Ca  Ca5       1.0  0.497300386428833  0.486942857503891  0.2782050371170044  1.0000
  Ca  Ca6       1.0  0.04140434041619301  0.7241809964179993  0.12932726740837097  1.0000
  Ca  Ca7       1.0  0.011304662562906742  0.8619735240936279  0.5056920051574707  1.0000
  Ge  Ge1       1.0  0.9749153852462769  0.0643157809972763  0.1045173779129982  1.0000
  Ge  Ge2       1.0  0.4896344840526581  0.09221445024013519  0.9441828727722168  1.0000
