data_image0
_chemical_formula_structural       Ca4Ge3I3P
_chemical_formula_sum              "Ca4 Ge3 I3 P1"
_cell_length_a       5.888530008309191
_cell_length_b       5.833457208186949
_cell_length_c       8.013625144958496
_cell_angle_alpha    89.45868180006673
_cell_angle_beta     90.49694229722515
_cell_angle_gamma    108.67019581207427

_space_group_name_H-M_alt    "P 1"
_space_group_IT_number       1

loop_
  _space_group_symop_operation_xyz
  'x, y, z'

loop_
  _atom_site_type_symbol
  _atom_site_label
  _atom_site_symmetry_multiplicity
  _atom_site_fract_x
  _atom_site_fract_y
  _atom_site_fract_z
  _atom_site_occupancy
  Ca  Ca1       1.0  0.38368621468544  0.3842048645019531  0.7470946311950682  1.0000
  Ca  Ca2       1.0  0.9026778936386107  0.6732245087623596  0.06446243822574615  1.0000
  Ca  Ca3       1.0  0.3977771401405334  0.17692025005817413  0.6151465177536011  1.0000
  Ca  Ca4       1.0  0.39739558100700373  0.9894927740097046  0.04251914098858833  1.0000
  Ge  Ge1       1.0  0.6381080150604248  0.9992213845252991  0.11227793246507645  1.0000
  Ge  Ge2       1.0  0.4264776408672332  0.893932580947876  0.3301045894622803  1.0000
  Ge  Ge3       1.0  0.6237260103225708  0.7549695372581482  0.37851542234420776  1.0000
  I   I1        1.0  0.9062052369117736  0.11530152708292007  0.2943423092365265  1.0000
  I   I2        1.0  0.9046734571456908  0.24429573118686676  0.514661967754364  1.0000
  I   I3        1.0  0.9166038036346434  0.5409294366836548  0.6211440563201904  1.0000
  P   P1        1.0  0.40058141946792597  0.3556807041168213  0.8827983736991882  1.0000
