data_image0
_chemical_formula_structural       Ca6Ge2I2O
_chemical_formula_sum              "Ca6 Ge2 I2 O1"
_cell_length_a       5.883602827225788
_cell_length_b       6.188146477935427
_cell_length_c       7.851673603057861
_cell_angle_alpha    94.27640319500698
_cell_angle_beta     89.56941020350072
_cell_angle_gamma    126.06715189285228

_space_group_name_H-M_alt    "P 1"
_space_group_IT_number       1

loop_
  _space_group_symop_operation_xyz
  'x, y, z'

loop_
  _atom_site_type_symbol
  _atom_site_label
  _atom_site_symmetry_multiplicity
  _atom_site_fract_x
  _atom_site_fract_y
  _atom_site_fract_z
  _atom_site_occupancy
  Ca  Ca1       1.0  0.8670573830604553  0.48727190494537354  0.9037894606590271  1.0000
  Ca  Ca2       1.0  0.8332974910736084  0.0636773332953453  0.7191346287727356  1.0000
  Ca  Ca3       1.0  0.31572338938713074  0.23601676523685455  0.44382810592651367  1.0000
  Ca  Ca4       1.0  0.3332115113735199  0.13708387315273285  0.3069271147251129  1.0000
  Ca  Ca5       1.0  0.36914360523223877  0.2885739803314209  0.40291762351989746  1.0000
  Ca  Ca6       1.0  0.3219771683216095  0.07609165459871292  0.41638168692588806  1.0000
  Ge  Ge1       1.0  0.8827795386314392  0.043703027069568634  0.6692544221878052  1.0000
  Ge  Ge2       1.0  0.8267183303833008  0.1904783993959427  0.20868276059627533  1.0000
  I   I1        1.0  0.3638772666454315  0.2562142312526703  0.5862665772438049  1.0000
  I   I2        1.0  0.8143830299377441  0.3923901319503784  0.7968449592590332  1.0000
  O   O1        1.0  0.7762884497642517  0.5140082836151123  0.8903708457946777  1.0000
