data_image0
_chemical_formula_structural       Co3FHf2I2Si2Zn
_chemical_formula_sum              "Co3 F1 Hf2 I2 Si2 Zn1"
_cell_length_a       5.74772477961554
_cell_length_b       5.56536134884556
_cell_length_c       8.406064987182617
_cell_angle_alpha    90.01764335419365
_cell_angle_beta     88.73741970278833
_cell_angle_gamma    98.41690188394918

_space_group_name_H-M_alt    "P 1"
_space_group_IT_number       1

loop_
  _space_group_symop_operation_xyz
  'x, y, z'

loop_
  _atom_site_type_symbol
  _atom_site_label
  _atom_site_symmetry_multiplicity
  _atom_site_fract_x
  _atom_site_fract_y
  _atom_site_fract_z
  _atom_site_occupancy
  Co  Co1       1.0  0.3400082588195801  0.3263551592826843  0.025324910879135132  1.0000
  Co  Co2       1.0  0.33382245898246765  0.7019778490066528  0.8662179112434387  1.0000
  Co  Co3       1.0  0.8375715017318726  0.17404069006443024  0.316677987575531  1.0000
  F   F1        1.0  0.8067068457603455  0.6133520007133484  0.8655779361724854  1.0000
  Hf  Hf1       1.0  0.8339235782623291  0.28565850853919983  0.09327581524848938  1.0000
  Hf  Hf2       1.0  0.3393405079841614  0.5971805453300476  0.3937521278858185  1.0000
  I   I1        1.0  0.8314117789268494  0.7987005710601806  0.3651885688304901  1.0000
  I   I2        1.0  0.8387194871902466  0.4975887537002563  0.03217368572950363  1.0000
  Si  Si1       1.0  0.34301015734672546  0.35157448053359985  0.03180485963821411  1.0000
  Si  Si2       1.0  0.8327406644821167  0.22454017400741574  0.644723117351532  1.0000
  Zn  Zn1       1.0  0.33768972754478455  0.16022898256778717  0.9472252726554871  1.0000
