data_image0
_chemical_formula_structural       Co2FHf2I2PbPtSi2
_chemical_formula_sum              "Co2 F1 Hf2 I2 Pb1 Pt1 Si2"
_cell_length_a       4.677816158535353
_cell_length_b       5.048268667047332
_cell_length_c       9.564955711364746
_cell_angle_alpha    93.33876001155028
_cell_angle_beta     97.21745435418325
_cell_angle_gamma    91.8899241184861

_space_group_name_H-M_alt    "P 1"
_space_group_IT_number       1

loop_
  _space_group_symop_operation_xyz
  'x, y, z'

loop_
  _atom_site_type_symbol
  _atom_site_label
  _atom_site_symmetry_multiplicity
  _atom_site_fract_x
  _atom_site_fract_y
  _atom_site_fract_z
  _atom_site_occupancy
  Co  Co1       1.0  0.8549984097480774  0.5996734499931335  0.3375866711139679  1.0000
  Co  Co2       1.0  0.3532922565937042  0.5273098349571228  0.4879142343997955  1.0000
  F   F1        1.0  0.8484213948249817  0.6676611304283142  0.23685909807682037  1.0000
  Hf  Hf1       1.0  0.8568761944770813  0.0919627696275711  0.400456041097641  1.0000
  Hf  Hf2       1.0  0.3417607843875885  0.29153871536254883  0.27346113324165344  1.0000
  I   I1        1.0  0.3720896542072296  0.8430291414260864  0.29776713252067566  1.0000
  I   I2        1.0  0.36009421944618225  0.23229369521141052  0.7887584567070007  1.0000
  Pb  Pb1       1.0  0.36130329966545105  0.06594522297382355  0.9498795866966248  1.0000
  Pt  Pt1       1.0  0.8481442928314209  0.4953506886959076  0.7562439441680908  1.0000
  Si  Si1       1.0  0.3627000153064728  0.46851879358291626  0.8691771626472473  1.0000
  Si  Si2       1.0  0.861093282699585  0.6659151911735535  0.9051946997642517  1.0000
