data_image0
_chemical_formula_structural       CaCo3CrHf5Si
_chemical_formula_sum              "Ca1 Co3 Cr1 Hf5 Si1"
_cell_length_a       4.435679285819446
_cell_length_b       4.906654127844526
_cell_length_c       6.621392726898193
_cell_angle_alpha    89.07530584658326
_cell_angle_beta     90.04353759949412
_cell_angle_gamma    89.29101631739843

_space_group_name_H-M_alt    "P 1"
_space_group_IT_number       1

loop_
  _space_group_symop_operation_xyz
  'x, y, z'

loop_
  _atom_site_type_symbol
  _atom_site_label
  _atom_site_symmetry_multiplicity
  _atom_site_fract_x
  _atom_site_fract_y
  _atom_site_fract_z
  _atom_site_occupancy
  Ca  Ca1       1.0  0.4264758229255676  0.6861587762832642  0.012243635952472689  1.0000
  Co  Co1       1.0  0.927817702293396  0.9000042676925659  0.20042070746421814  1.0000
  Co  Co2       1.0  0.9244085550308228  0.6939853429794312  0.6927949786186218  1.0000
  Co  Co3       1.0  0.4266899526119232  0.9600571990013123  0.3223083019256592  1.0000
  Cr  Cr1       1.0  0.42516279220581055  0.5646724104881287  0.09080251306295395  1.0000
  Hf  Hf1       1.0  0.9263289570808411  0.6023661494255066  0.9286049604415894  1.0000
  Hf  Hf2       1.0  0.9261046051979065  0.26030582189559937  0.23028261959552765  1.0000
  Hf  Hf3       1.0  0.42530205845832825  0.5705523490905762  0.3677103519439697  1.0000
  Hf  Hf4       1.0  0.4269154965877533  0.9308905005455017  0.8560835123062134  1.0000
  Hf  Hf5       1.0  0.9213509559631348  0.7274056077003479  0.37793609499931335  1.0000
  Si  Si1       1.0  0.42639628052711487  0.9092280864715576  0.2615402638912201  1.0000
