data_image0
_chemical_formula_structural       Co4F2Hf2IPtZr
_chemical_formula_sum              "Co4 F2 Hf2 I1 Pt1 Zr1"
_cell_length_a       5.025054598460086
_cell_length_b       4.986546603094035
_cell_length_c       7.719180107116699
_cell_angle_alpha    95.64277916483778
_cell_angle_beta     89.9160895706906
_cell_angle_gamma    90.69764581969918

_space_group_name_H-M_alt    "P 1"
_space_group_IT_number       1

loop_
  _space_group_symop_operation_xyz
  'x, y, z'

loop_
  _atom_site_type_symbol
  _atom_site_label
  _atom_site_symmetry_multiplicity
  _atom_site_fract_x
  _atom_site_fract_y
  _atom_site_fract_z
  _atom_site_occupancy
  Co  Co1       1.0  0.03539742901921272  0.18154089152812958  0.2510232627391815  1.0000
  Co  Co2       1.0  0.5317937731742859  0.7398260235786438  0.8369243144989015  1.0000
  Co  Co3       1.0  0.5446175932884216  0.8672503232955933  0.06059197336435319  1.0000
  Co  Co4       1.0  0.05559834465384483  0.04577488452196121  0.7684312462806703  1.0000
  F   F1        1.0  0.5372142791748047  0.4795481562614441  0.940404236316681  1.0000
  F   F2        1.0  0.5749415755271912  0.47611692547798157  0.10985781252384187  1.0000
  Hf  Hf1       1.0  0.5449388027191162  0.6059203147888184  0.6406627893447876  1.0000
  Hf  Hf2       1.0  0.9930952787399292  0.10507015138864517  0.4572935104370118  1.0000
  I   I1        1.0  0.05370613932609558  0.5863742828369141  0.1528860628604889  1.0000
  Pt  Pt1       1.0  0.02774166874587536  0.21882733702659607  0.5520652532577515  1.0000
  Zr  Zr1       1.0  0.5537706613540649  0.39642250537872314  0.6243717074394226  1.0000
