data_image0
_chemical_formula_structural       Co4Cr2Hf4Si
_chemical_formula_sum              "Co4 Cr2 Hf4 Si1"
_cell_length_a       5.76000244078093
_cell_length_b       5.952251446119137
_cell_length_c       6.446538925170898
_cell_angle_alpha    62.85905882168765
_cell_angle_beta     67.9159935984523
_cell_angle_gamma    67.40927363715065

_space_group_name_H-M_alt    "P 1"
_space_group_IT_number       1

loop_
  _space_group_symop_operation_xyz
  'x, y, z'

loop_
  _atom_site_type_symbol
  _atom_site_label
  _atom_site_symmetry_multiplicity
  _atom_site_fract_x
  _atom_site_fract_y
  _atom_site_fract_z
  _atom_site_occupancy
  Co  Co1       1.0  0.4268866777420044  0.8984886407852173  0.1406843662261963  1.0000
  Co  Co2       1.0  0.944049060344696  0.11487903445959091  0.47463619709014887  1.0000
  Co  Co3       1.0  0.43896642327308655  0.0898493230342865  0.7574388384819031  1.0000
  Co  Co4       1.0  0.9184320569038391  0.368397980928421  0.6893289089202881  1.0000
  Cr  Cr1       1.0  0.9445646405220032  0.44478118419647217  0.06624909490346909  1.0000
  Cr  Cr2       1.0  0.44823580980300903  0.1869964599609375  0.9490641355514525  1.0000
  Hf  Hf1       1.0  0.44839200377464294  0.20584292709827423  0.040353246033191646  1.0000
  Hf  Hf2       1.0  0.4318915009498596  0.4171851873397827  0.5912688970565796  1.0000
  Hf  Hf3       1.0  0.4440978467464447  0.08296706527471542  0.9690292477607726  1.0000
  Hf  Hf4       1.0  0.951607346534729  0.18579061329364777  0.7252697944641113  1.0000
  Si  Si1       1.0  0.9498054385185242  0.48084691166877747  0.044872719794511795  1.0000
