data_image0
_chemical_formula_structural       Co3F2Hf3I2Si
_chemical_formula_sum              "Co3 F2 Hf3 I2 Si1"
_cell_length_a       5.2065188581093835
_cell_length_b       4.870683706472552
_cell_length_c       6.731870651245117
_cell_angle_alpha    110.15746068051648
_cell_angle_beta     102.04290880404191
_cell_angle_gamma    111.11588163694707

_space_group_name_H-M_alt    "P 1"
_space_group_IT_number       1

loop_
  _space_group_symop_operation_xyz
  'x, y, z'

loop_
  _atom_site_type_symbol
  _atom_site_label
  _atom_site_symmetry_multiplicity
  _atom_site_fract_x
  _atom_site_fract_y
  _atom_site_fract_z
  _atom_site_occupancy
  Co  Co1       1.0  0.11066438257694244  0.3580548167228699  0.3396669030189514  1.0000
  Co  Co2       1.0  0.6166355609893799  0.6145914196968079  0.29621595144271856  1.0000
  Co  Co3       1.0  0.6049246191978455  0.21911095082759857  0.22095949947834018  1.0000
  F   F1        1.0  0.037461936473846436  0.8938643336296082  0.731579601764679  1.0000
  F   F2        1.0  0.5351977348327637  0.7068600654602051  0.9363228678703309  1.0000
  Hf  Hf1       1.0  0.14723269641399384  0.29651355743408203  0.03783785179257395  1.0000
  Hf  Hf2       1.0  0.4778367578983307  0.12167131155729294  0.8498820662498475  1.0000
  Hf  Hf3       1.0  0.8639922738075256  0.5301966071128845  0.59442538022995  1.0000
  I   I1        1.0  0.16957993805408478  0.9771571159362793  0.26212105154991155  1.0000
  I   I2        1.0  0.1506757289171219  0.7374829649925232  0.5608793497085571  1.0000
  Si  Si1       1.0  0.6357329487800598  0.6372523307800293  0.23429037630558017  1.0000
