data_image0
_chemical_formula_structural       BClGe2InPPt
_chemical_formula_sum              "B1 Cl1 Ge2 In1 P1 Pt1"
_cell_length_a       4.535454549219689
_cell_length_b       4.9015423053842815
_cell_length_c       5.181258201599121
_cell_angle_alpha    123.95500238478468
_cell_angle_beta     92.5222322708758
_cell_angle_gamma    90.36773007895782

_space_group_name_H-M_alt    "P 1"
_space_group_IT_number       1

loop_
  _space_group_symop_operation_xyz
  'x, y, z'

loop_
  _atom_site_type_symbol
  _atom_site_label
  _atom_site_symmetry_multiplicity
  _atom_site_fract_x
  _atom_site_fract_y
  _atom_site_fract_z
  _atom_site_occupancy
  B   B1        1.0  0.6351803541183472  0.7268011569976807  0.3069993257522583  1.0000
  Cl  Cl1       1.0  0.3422485888004303  0.8813700079917908  0.2225271463394165  1.0000
  Ge  Ge1       1.0  0.13970059156417847  0.6668266654014587  0.8982173204421997  1.0000
  Ge  Ge2       1.0  0.09718705713748932  0.6400715708732605  0.3787723779678345  1.0000
  In  In1       1.0  0.633416473865509  0.4680255949497223  0.3066653609275818  1.0000
  P   P1        1.0  0.12941904366016388  0.7801981568336487  0.6533612608909607  1.0000
  Pt  Pt1       1.0  0.650739848613739  0.987894594669342  0.7352313995361328  1.0000
