data_image0
_chemical_formula_structural       AlLa5Ni3SZn
_chemical_formula_sum              "Al1 La5 Ni3 S1 Zn1"
_cell_length_a       4.880877300656831
_cell_length_b       7.70968046590041
_cell_length_c       8.048928260803223
_cell_angle_alpha    118.07485226793449
_cell_angle_beta     95.85786232298815
_cell_angle_gamma    86.19438792500452

_space_group_name_H-M_alt    "P 1"
_space_group_IT_number       1

loop_
  _space_group_symop_operation_xyz
  'x, y, z'

loop_
  _atom_site_type_symbol
  _atom_site_label
  _atom_site_symmetry_multiplicity
  _atom_site_fract_x
  _atom_site_fract_y
  _atom_site_fract_z
  _atom_site_occupancy
  Al  Al1       1.0  0.511832058429718  0.12062563747167587  0.8072177767753601  1.0000
  La  La1       1.0  0.5154690742492676  0.35751456022262573  0.9756861329078674  1.0000
  La  La2       1.0  0.990921676158905  0.8252120018005371  0.2983386218547821  1.0000
  La  La3       1.0  0.5015284419059753  0.12585173547267914  0.8254324793815613  1.0000
  La  La4       1.0  0.012325472198426723  0.701796293258667  0.5558838248252869  1.0000
  La  La5       1.0  0.9800455570220947  0.3418336808681488  0.22306714951992035  1.0000
  Ni  Ni1       1.0  0.0032808780670166016  0.3347569704055786  0.41811248660087585  1.0000
  Ni  Ni2       1.0  0.01331343688070774  0.804399847984314  0.8370307683944702  1.0000
  Ni  Ni3       1.0  0.010510468855500221  0.5624317526817322  0.6708422899246216  1.0000
  S   S1        1.0  0.5120053887367249  0.9368698000907898  0.8847495913505554  1.0000
  Zn  Zn1       1.0  0.5177176594734192  0.41802507638931274  0.5935447812080383  1.0000
