data_image0
_chemical_formula_structural       BLa6Ni3S
_chemical_formula_sum              "B1 La6 Ni3 S1"
_cell_length_a       5.24301375008707
_cell_length_b       7.434151991361271
_cell_length_c       7.600451946258545
_cell_angle_alpha    117.4870354448779
_cell_angle_beta     102.63354218018875
_cell_angle_gamma    87.65655326013396

_space_group_name_H-M_alt    "P 1"
_space_group_IT_number       1

loop_
  _space_group_symop_operation_xyz
  'x, y, z'

loop_
  _atom_site_type_symbol
  _atom_site_label
  _atom_site_symmetry_multiplicity
  _atom_site_fract_x
  _atom_site_fract_y
  _atom_site_fract_z
  _atom_site_occupancy
  B   B1        1.0  0.28294169902801514  0.9703061580657959  0.730663001537323  1.0000
  La  La1       1.0  0.27075034379959106  0.9594250917434692  0.2683385908603668  1.0000
  La  La2       1.0  0.9858274459838866  0.6985250115394592  0.04000527039170265  1.0000
  La  La3       1.0  0.5006998181343079  0.7351123094558716  0.09721582382917404  1.0000
  La  La4       1.0  0.7552578449249268  0.46582791209220886  0.8379377722740173  1.0000
  La  La5       1.0  0.2737168073654175  0.47077706456184387  0.872405469417572  1.0000
  La  La6       1.0  0.3089057207107544  0.13222263753414154  0.6429629921913147  1.0000
  Ni  Ni1       1.0  0.2212078124284744  0.16061308979988098  0.5551601052284241  1.0000
  Ni  Ni2       1.0  0.7154898643493652  0.44488635659217834  0.36352023482322693  1.0000
  Ni  Ni3       1.0  0.7649713754653931  0.9674845337867737  0.8776440024375916  1.0000
  S   S1        1.0  0.980495512485504  0.45780235528945923  0.0572674497961998  1.0000
