data_image0
_chemical_formula_structural       As2ILa6Ni2
_chemical_formula_sum              "As2 I1 La6 Ni2"
_cell_length_a       5.048175493721623
_cell_length_b       7.297539363130406
_cell_length_c       7.085777282714844
_cell_angle_alpha    119.79803490112344
_cell_angle_beta     90.5231667905217
_cell_angle_gamma    88.15273212969726

_space_group_name_H-M_alt    "P 1"
_space_group_IT_number       1

loop_
  _space_group_symop_operation_xyz
  'x, y, z'

loop_
  _atom_site_type_symbol
  _atom_site_label
  _atom_site_symmetry_multiplicity
  _atom_site_fract_x
  _atom_site_fract_y
  _atom_site_fract_z
  _atom_site_occupancy
  As  As1       1.0  0.379898339509964  0.0272768959403038  0.626808226108551  1.0000
  As  As2       1.0  0.37954363226890564  0.6058036088943481  0.4655979871749878  1.0000
  I   I1        1.0  0.8818020224571229  0.9143402576446532  0.8588618636131287  1.0000
  La  La1       1.0  0.3740498721599579  0.2922276258468628  0.13984043896198273  1.0000
  La  La2       1.0  0.876331388950348  0.9352203607559203  0.6066339612007141  1.0000
  La  La3       1.0  0.8801281452178956  0.522565484046936  0.901740312576294  1.0000
  La  La4       1.0  0.3748401701450348  0.6353035569190979  0.6353020668029785  1.0000
  La  La5       1.0  0.8768126964569093  0.3912737965583801  0.36239123344421387  1.0000
  La  La6       1.0  0.3776048719882965  0.7789791822433472  0.5909761786460876  1.0000
  Ni  Ni1       1.0  0.8755446672439576  0.20461581647396088  0.09021120518445969  1.0000
  Ni  Ni2       1.0  0.3757563829421997  0.0327746719121933  0.16005852818489075  1.0000
