data_image0
_chemical_formula_structural       AlLa5Ni4S
_chemical_formula_sum              "Al1 La5 Ni4 S1"
_cell_length_a       4.842599452324807
_cell_length_b       7.800727806764037
_cell_length_c       7.850061416625977
_cell_angle_alpha    118.18070833321427
_cell_angle_beta     89.94242951211312
_cell_angle_gamma    88.57976197219556

_space_group_name_H-M_alt    "P 1"
_space_group_IT_number       1

loop_
  _space_group_symop_operation_xyz
  'x, y, z'

loop_
  _atom_site_type_symbol
  _atom_site_label
  _atom_site_symmetry_multiplicity
  _atom_site_fract_x
  _atom_site_fract_y
  _atom_site_fract_z
  _atom_site_occupancy
  Al  Al1       1.0  0.5648826360702515  0.4239861369132995  0.8833526968955993  1.0000
  La  La1       1.0  0.567889928817749  0.20707929134368894  0.3895581662654876  1.0000
  La  La2       1.0  0.05816531926393509  0.8433414101600646  0.5701370239257811  1.0000
  La  La3       1.0  0.5650336146354675  0.9202241301536559  0.19002513587474817  1.0000
  La  La4       1.0  0.05429711937904358  0.3978892564773559  0.9119794368743896  1.0000
  La  La5       1.0  0.5575025081634521  0.9163420200347899  0.7577261924743651  1.0000
  Ni  Ni1       1.0  0.07798831909894943  0.4390710592269897  0.5408891439437866  1.0000
  Ni  Ni2       1.0  0.5661584138870239  0.926148772239685  0.5792255401611328  1.0000
  Ni  Ni3       1.0  0.07139701396226883  0.655941367149353  0.8972754478454589  1.0000
  Ni  Ni4       1.0  0.5663678646087646  0.9214246869087218  0.5214163064956665  1.0000
  S   S1        1.0  0.06589562445878983  0.1291387975215912  0.7686078548431396  1.0000
