data_image0
_chemical_formula_structural       As2BLa6Ni2
_chemical_formula_sum              "As2 B1 La6 Ni2"
_cell_length_a       5.461057479068666
_cell_length_b       6.889406310415396
_cell_length_c       7.297910690307617
_cell_angle_alpha    116.84875369294232
_cell_angle_beta     103.73769969000703
_cell_angle_gamma    89.28833423994631

_space_group_name_H-M_alt    "P 1"
_space_group_IT_number       1

loop_
  _space_group_symop_operation_xyz
  'x, y, z'

loop_
  _atom_site_type_symbol
  _atom_site_label
  _atom_site_symmetry_multiplicity
  _atom_site_fract_x
  _atom_site_fract_y
  _atom_site_fract_z
  _atom_site_occupancy
  As  As1       1.0  0.5200667977333069  0.6128818392753601  0.09929826110601425  1.0000
  As  As2       1.0  0.04581843316555023  0.8706541061401367  0.1760108917951584  1.0000
  B   B1        1.0  0.5313659906387329  0.3762010335922241  0.24548889696598053  1.0000
  La  La1       1.0  0.7909370064735413  0.2381267547607422  0.35736754536628723  1.0000
  La  La2       1.0  0.02185836248099804  0.6153860092163086  0.354841023683548  1.0000
  La  La3       1.0  0.5044457912445068  0.08574259281158447  0.17336207628250122  1.0000
  La  La4       1.0  0.026522943750023842  0.8744492530822754  0.24593025445938116  1.0000
  La  La5       1.0  0.5090427398681641  0.23093673586845398  0.4270508587360382  1.0000
  La  La6       1.0  0.01766951009631157  0.6187824010848999  0.013041892088949712  1.0000
  Ni  Ni1       1.0  0.024518143385648727  0.09304005652666092  0.8614829778671265  1.0000
  Ni  Ni2       1.0  0.4957622289657593  0.7051917314529419  0.8469470143318176  1.0000
