data_image0
_chemical_formula_structural       As3La7Ni
_chemical_formula_sum              "As3 La7 Ni1"
_cell_length_a       4.5938779879071
_cell_length_b       7.826159272051822
_cell_length_c       7.88787317276001
_cell_angle_alpha    120.83020531118848
_cell_angle_beta     90.32439292468132
_cell_angle_gamma    88.6144358046228

_space_group_name_H-M_alt    "P 1"
_space_group_IT_number       1

loop_
  _space_group_symop_operation_xyz
  'x, y, z'

loop_
  _atom_site_type_symbol
  _atom_site_label
  _atom_site_symmetry_multiplicity
  _atom_site_fract_x
  _atom_site_fract_y
  _atom_site_fract_z
  _atom_site_occupancy
  As  As1       1.0  0.32109540700912476  0.7987247705459595  0.03833075985312462  1.0000
  As  As2       1.0  0.8142237663269043  0.41541960835456854  0.7896337509155273  1.0000
  As  As3       1.0  0.3136012852191925  0.32663580775260925  0.610856831073761  1.0000
  La  La1       1.0  0.3092067539691925  0.7934245467185974  0.5722196102142334  1.0000
  La  La2       1.0  0.8184956908226013  0.2783380448818207  0.6631384491920472  1.0000
  La  La3       1.0  0.32349851727485657  0.18364942073822021  0.39234477281570435  1.0000
  La  La4       1.0  0.8164099454879761  0.017627885565161705  0.4056709408760071  1.0000
  La  La5       1.0  0.8176875710487366  0.8662496805191041  0.8251472115516663  1.0000
  La  La6       1.0  0.3129430413246155  0.18930375576019287  0.30015215277671814  1.0000
  La  La7       1.0  0.305609792470932  0.7476213574409485  0.8680399656295776  1.0000
  Ni  Ni1       1.0  0.8222850561141968  0.5268877744674683  0.10925938189029699  1.0000
