data_image0
_chemical_formula_structural       DyGeInLuVZn3
_chemical_formula_sum              "Dy1 Ge1 In1 Lu1 V1 Zn3"
_cell_length_a       5.343042023110194
_cell_length_b       5.404050322283933
_cell_length_c       7.6787004470825195
_cell_angle_alpha    91.3171883989796
_cell_angle_beta     89.56951813024844
_cell_angle_gamma    91.60341172706356

_space_group_name_H-M_alt    "P 1"
_space_group_IT_number       1

loop_
  _space_group_symop_operation_xyz
  'x, y, z'

loop_
  _atom_site_type_symbol
  _atom_site_label
  _atom_site_symmetry_multiplicity
  _atom_site_fract_x
  _atom_site_fract_y
  _atom_site_fract_z
  _atom_site_occupancy
  Dy  Dy1       1.0  0.35280248522758484  0.9591950178146362  0.04049045965075493  1.0000
  Ge  Ge1       1.0  0.3519235849380493  0.2547566592693329  0.37495994567871094  1.0000
  In  In1       1.0  0.3534982204437256  0.29218417406082153  0.3652849495410919  1.0000
  Lu  Lu1       1.0  0.8532583117485046  0.8651254773139954  0.5153952240943909  1.0000
  V   V1        1.0  0.8552465438842773  0.2682523727416992  0.9935685992240905  1.0000
  Zn  Zn1       1.0  0.8529438376426697  0.8815262913703918  0.23180188238620755  1.0000
  Zn  Zn2       1.0  0.346351683139801  0.6865081787109375  0.15481561422348022  1.0000
  Zn  Zn3       1.0  0.8506253957748413  0.3319498896598816  0.28710150718688965  1.0000
