data_image0
_chemical_formula_structural       AsDy2FZn4
_chemical_formula_sum              "As1 Dy2 F1 Zn4"
_cell_length_a       4.451460287473749
_cell_length_b       4.527961789532657
_cell_length_c       8.769109725952148
_cell_angle_alpha    92.4799160592462
_cell_angle_beta     91.48298483354206
_cell_angle_gamma    91.46354386806934

_space_group_name_H-M_alt    "P 1"
_space_group_IT_number       1

loop_
  _space_group_symop_operation_xyz
  'x, y, z'

loop_
  _atom_site_type_symbol
  _atom_site_label
  _atom_site_symmetry_multiplicity
  _atom_site_fract_x
  _atom_site_fract_y
  _atom_site_fract_z
  _atom_site_occupancy
  As  As1       1.0  0.22171476483345032  0.583568811416626  0.32482773065567017  1.0000
  Dy  Dy1       1.0  0.23477303981781006  0.8104417324066162  0.6932334899902344  1.0000
  Dy  Dy2       1.0  0.9165616631507874  0.36061760783195496  0.36999332904815674  1.0000
  F   F1        1.0  0.24948470294475555  0.3616577088832855  0.45844048261642456  1.0000
  Zn  Zn1       1.0  0.7342746257781982  0.10841728746891022  0.21743758022785187  1.0000
  Zn  Zn2       1.0  0.39241474866867065  0.5830652117729187  0.7818322777748108  1.0000
  Zn  Zn3       1.0  0.23003140091896057  0.8249972462654114  0.6905191540718079  1.0000
  Zn  Zn4       1.0  0.7350331544876099  0.508008599281311  0.1646282821893692  1.0000
