data_image0
_chemical_formula_structural       Dy2WY2Zn3
_chemical_formula_sum              "Dy2 W1 Y2 Zn3"
_cell_length_a       5.201043391833046
_cell_length_b       4.552537018623572
_cell_length_c       5.6228532791137695
_cell_angle_alpha    106.82497029353446
_cell_angle_beta     98.72978116135018
_cell_angle_gamma    118.64430277484857

_space_group_name_H-M_alt    "P 1"
_space_group_IT_number       1

loop_
  _space_group_symop_operation_xyz
  'x, y, z'

loop_
  _atom_site_type_symbol
  _atom_site_label
  _atom_site_symmetry_multiplicity
  _atom_site_fract_x
  _atom_site_fract_y
  _atom_site_fract_z
  _atom_site_occupancy
  Dy  Dy1       1.0  0.41395217180252075  0.6246150135993958  0.6617634892463684  1.0000
  Dy  Dy2       1.0  0.9458045959472655  0.04923798888921738  0.8472490310668945  1.0000
  W   W1        1.0  0.9261502027511596  0.8838945627212524  0.5513152480125427  1.0000
  Y   Y1        1.0  0.4295009672641754  0.4305618107318878  0.5754878520965576  1.0000
  Y   Y2        1.0  0.923104703426361  0.14734913408756256  0.6254209876060486  1.0000
  Zn  Zn1       1.0  0.44086602330207825  0.9496423006057739  0.8999884128570557  1.0000
  Zn  Zn2       1.0  0.9314069747924804  0.05445580929517746  0.2880079746246338  1.0000
  Zn  Zn3       1.0  0.9251139163970946  0.3712228536605835  0.5928102731704712  1.0000
