data_image0
_chemical_formula_structural       Dy2GeLuVZn3
_chemical_formula_sum              "Dy2 Ge1 Lu1 V1 Zn3"
_cell_length_a       4.160525473904931
_cell_length_b       5.428372696986256
_cell_length_c       6.796891689300537
_cell_angle_alpha    93.19419401924284
_cell_angle_beta     90.52215017881146
_cell_angle_gamma    107.01079278838635

_space_group_name_H-M_alt    "P 1"
_space_group_IT_number       1

loop_
  _space_group_symop_operation_xyz
  'x, y, z'

loop_
  _atom_site_type_symbol
  _atom_site_label
  _atom_site_symmetry_multiplicity
  _atom_site_fract_x
  _atom_site_fract_y
  _atom_site_fract_z
  _atom_site_occupancy
  Dy  Dy1       1.0  0.9460369944572449  0.26755306124687195  0.9744656085968018  1.0000
  Dy  Dy2       1.0  0.9496760964393616  0.6945422887802124  0.5111543536186218  1.0000
  Ge  Ge1       1.0  0.4632827937602997  0.07068219780921936  0.8983873724937439  1.0000
  Lu  Lu1       1.0  0.45063650608062744  0.9731486439704895  0.416999489068985  1.0000
  V   V1        1.0  0.9432307481765747  0.3280563950538635  0.13754454255104065  1.0000
  Zn  Zn1       1.0  0.4422008693218231  0.48611944913864136  0.3694045841693878  1.0000
  Zn  Zn2       1.0  0.9420971870422363  0.8145818114280701  0.13817304372787476  1.0000
  Zn  Zn3       1.0  0.4316053092479706  0.17883557081222534  0.2980271279811859  1.0000
