data_image0
_chemical_formula_structural       Ge2ILuZn3Zr
_chemical_formula_sum              "Ge2 I1 Lu1 Zn3 Zr1"
_cell_length_a       5.011476126109546
_cell_length_b       5.335961485945477
_cell_length_c       6.4645280838012695
_cell_angle_alpha    98.92488943854596
_cell_angle_beta     95.13443960370147
_cell_angle_gamma    116.64500798481089

_space_group_name_H-M_alt    "P 1"
_space_group_IT_number       1

loop_
  _space_group_symop_operation_xyz
  'x, y, z'

loop_
  _atom_site_type_symbol
  _atom_site_label
  _atom_site_symmetry_multiplicity
  _atom_site_fract_x
  _atom_site_fract_y
  _atom_site_fract_z
  _atom_site_occupancy
  Ge  Ge1       1.0  0.6704802513122559  0.8734272122383118  0.09201632440090178  1.0000
  Ge  Ge2       1.0  0.8855783343315125  0.13605740666389465  0.4377636015415191  1.0000
  I   I1        1.0  0.17967115342617035  0.10905002802610397  0.4692223668098449  1.0000
  Lu  Lu1       1.0  0.17206934094429016  0.600261390209198  0.09686455875635146  1.0000
  Zn  Zn1       1.0  0.6745508909225464  0.7509170174598694  0.7765766382217406  1.0000
  Zn  Zn2       1.0  0.6745516061782837  0.08104751259088516  0.2812294661998749  1.0000
  Zn  Zn3       1.0  0.17621707916259766  0.33271634578704834  0.2267026752233505  1.0000
  Zr  Zr1       1.0  0.17403647303581238  0.07093477249145508  0.8100988268852233  1.0000
