data_image0
_chemical_formula_structural       AsDy2Y2Zn3
_chemical_formula_sum              "As1 Dy2 Y2 Zn3"
_cell_length_a       5.6033708524726755
_cell_length_b       4.917719815731705
_cell_length_c       5.586686611175537
_cell_angle_alpha    111.37837332039062
_cell_angle_beta     107.97038609392852
_cell_angle_gamma    124.81431188780421

_space_group_name_H-M_alt    "P 1"
_space_group_IT_number       1

loop_
  _space_group_symop_operation_xyz
  'x, y, z'

loop_
  _atom_site_type_symbol
  _atom_site_label
  _atom_site_symmetry_multiplicity
  _atom_site_fract_x
  _atom_site_fract_y
  _atom_site_fract_z
  _atom_site_occupancy
  As  As1       1.0  0.8652651906013489  0.8559178113937377  0.2979665696620941  1.0000
  Dy  Dy1       1.0  0.5168007612228394  0.9805404543876648  0.6350857615470886  1.0000
  Dy  Dy2       1.0  0.3829014003276825  0.5654634237289429  0.6873215436935425  1.0000
  Y   Y1        1.0  0.10671912133693687  0.871252954006195  0.5832270979881287  1.0000
  Y   Y2        1.0  0.3888595402240753  0.18723849952220914  0.25443872809410095  1.0000
  Zn  Zn1       1.0  0.4984488189220428  0.11328627169132224  0.4568721354007721  1.0000
  Zn  Zn2       1.0  0.8625616431236267  0.7890496253967284  0.578528881072998  1.0000
  Zn  Zn3       1.0  0.8861953020095825  0.5779370665550231  0.5338183641433716  1.0000
