data_image0
_chemical_formula_structural       LuMgMn3Zn5
_chemical_formula_sum              "Lu1 Mg1 Mn3 Zn5"
_cell_length_a       4.443539127058862
_cell_length_b       6.667027273687587
_cell_length_c       6.801673412322998
_cell_angle_alpha    125.21798627139347
_cell_angle_beta     92.0458475741333
_cell_angle_gamma    86.4088008843003

_space_group_name_H-M_alt    "P 1"
_space_group_IT_number       1

loop_
  _space_group_symop_operation_xyz
  'x, y, z'

loop_
  _atom_site_type_symbol
  _atom_site_label
  _atom_site_symmetry_multiplicity
  _atom_site_fract_x
  _atom_site_fract_y
  _atom_site_fract_z
  _atom_site_occupancy
  Lu  Lu1       1.0  0.21320900321006775  0.3138491213321686  0.1579995900392532  1.0000
  Mg  Mg1       1.0  0.7263484597206116  0.833131730556488  0.7945418357849121  1.0000
  Mn  Mn1       1.0  0.2220303863286972  0.32815080881118774  0.8164865970611572  1.0000
  Mn  Mn2       1.0  0.23723839223384857  0.3306374251842499  0.27730485796928406  1.0000
  Mn  Mn3       1.0  0.7235615849494934  0.8160057067871094  0.49850124120712275  1.0000
  Zn  Zn1       1.0  0.23565120995044708  0.31402483582496643  0.40315037965774536  1.0000
  Zn  Zn2       1.0  0.7510970830917358  0.5006588697433472  0.37120598554611206  1.0000
  Zn  Zn3       1.0  0.21559825539588928  0.32762283086776733  0.9563173651695251  1.0000
  Zn  Zn4       1.0  0.7275828123092651  0.8482113480567932  0.18527728319168085  1.0000
  Zn  Zn5       1.0  0.7550768256187439  0.5618172883987427  0.6440135836601257  1.0000
