data_image0
_chemical_formula_structural       MgMn2NiZn6
_chemical_formula_sum              "Mg1 Mn2 Ni1 Zn6"
_cell_length_a       5.933640151694723
_cell_length_b       6.200889616504287
_cell_length_c       6.212595462799072
_cell_angle_alpha    107.66535408380216
_cell_angle_beta     105.91209494278328
_cell_angle_gamma    111.6683363175088

_space_group_name_H-M_alt    "P 1"
_space_group_IT_number       1

loop_
  _space_group_symop_operation_xyz
  'x, y, z'

loop_
  _atom_site_type_symbol
  _atom_site_label
  _atom_site_symmetry_multiplicity
  _atom_site_fract_x
  _atom_site_fract_y
  _atom_site_fract_z
  _atom_site_occupancy
  Mg  Mg1       1.0  0.2662566602230072  0.31747734546661377  0.24591468274593356  1.0000
  Mn  Mn1       1.0  0.4592024683952332  0.5419984459877014  0.67413330078125  1.0000
  Mn  Mn2       1.0  0.9758078455924989  0.5671032071113586  0.5421144962310791  1.0000
  Ni  Ni1       1.0  0.8020129203796388  0.3051309585571289  0.25123000144958496  1.0000
  Zn  Zn1       1.0  0.8499057292938234  0.5434123277664185  0.6770423650741577  1.0000
  Zn  Zn2       1.0  0.44645205140113836  0.8203862905502319  0.019830530509352684  1.0000
  Zn  Zn3       1.0  0.06845321506261826  0.7540328502655029  0.012657613493502142  1.0000
  Zn  Zn4       1.0  0.40672400593757635  0.020340891554951668  0.969073235988617  1.0000
  Zn  Zn5       1.0  0.940035104751587  0.31527817249298096  0.7215470671653748  1.0000
  Zn  Zn6       1.0  0.2640635669231415  0.14683331549167633  0.8558180332183839  1.0000
