data_image0
_chemical_formula_structural       FeMg2NiZn6
_chemical_formula_sum              "Fe1 Mg2 Ni1 Zn6"
_cell_length_a       4.221529607770852
_cell_length_b       6.420559260614434
_cell_length_c       7.083207607269287
_cell_angle_alpha    122.94697002200212
_cell_angle_beta     92.17843625899476
_cell_angle_gamma    87.29079580553777

_space_group_name_H-M_alt    "P 1"
_space_group_IT_number       1

loop_
  _space_group_symop_operation_xyz
  'x, y, z'

loop_
  _atom_site_type_symbol
  _atom_site_label
  _atom_site_symmetry_multiplicity
  _atom_site_fract_x
  _atom_site_fract_y
  _atom_site_fract_z
  _atom_site_occupancy
  Fe  Fe1       1.0  0.2393195629119873  0.6850427389144897  0.11864981800317764  1.0000
  Mg  Mg1       1.0  0.24245591461658478  0.476338267326355  0.330143004655838  1.0000
  Mg  Mg2       1.0  0.23495842516422272  0.6620969176292419  0.5601774454116821  1.0000
  Ni  Ni1       1.0  0.7408064007759094  0.6990076899528503  0.8299641013145447  1.0000
  Zn  Zn1       1.0  0.7305001020431519  0.21645745635032654  0.8146933317184448  1.0000
  Zn  Zn2       1.0  0.7419466376304626  0.6966176629066467  0.12700563669204712  1.0000
  Zn  Zn3       1.0  0.7333652377128601  0.2034936398267746  0.301914244890213  1.0000
  Zn  Zn4       1.0  0.7036521434783936  0.016332827508449554  0.6889467239379883  1.0000
  Zn  Zn5       1.0  0.21042804419994354  0.17518551647663116  0.6553331017494202  1.0000
  Zn  Zn6       1.0  0.717192530632019  0.19129063189029694  0.4555697739124298  1.0000
