data_image0
_chemical_formula_structural       NiPr5
_chemical_formula_sum              "Ni1 Pr5"
_cell_length_a       4.036369595905033
_cell_length_b       5.873620986831363
_cell_length_c       6.554972171783447
_cell_angle_alpha    113.7921843602538
_cell_angle_beta     95.6687400742992
_cell_angle_gamma    89.05970844146181

_space_group_name_H-M_alt    "P 1"
_space_group_IT_number       1

loop_
  _space_group_symop_operation_xyz
  'x, y, z'

loop_
  _atom_site_type_symbol
  _atom_site_label
  _atom_site_symmetry_multiplicity
  _atom_site_fract_x
  _atom_site_fract_y
  _atom_site_fract_z
  _atom_site_occupancy
  Ni  Ni1       1.0  0.648261308670044  0.18904925882816315  0.18977653980255127  1.0000
  Pr  Pr1       1.0  0.648403525352478  0.719150185585022  0.01214619167149067  1.0000
  Pr  Pr2       1.0  0.6162776947021484  0.745287299156189  0.5561730265617371  1.0000
  Pr  Pr3       1.0  0.16066761314868927  0.8443264961242676  0.3091750144958496  1.0000
  Pr  Pr4       1.0  0.6329898834228516  0.16302087903022766  0.7955793142318726  1.0000
  Pr  Pr5       1.0  0.13498806953430176  0.23193000257015228  0.5203441381454468  1.0000
