data_image0
_chemical_formula_structural       MnNiPr4
_chemical_formula_sum              "Mn1 Ni1 Pr4"
_cell_length_a       4.095030403609598
_cell_length_b       3.6894148229957064
_cell_length_c       6.224461555480957
_cell_angle_alpha    132.7824110320483
_cell_angle_beta     100.28168171230443
_cell_angle_gamma    80.84096803446099

_space_group_name_H-M_alt    "P 1"
_space_group_IT_number       1

loop_
  _space_group_symop_operation_xyz
  'x, y, z'

loop_
  _atom_site_type_symbol
  _atom_site_label
  _atom_site_symmetry_multiplicity
  _atom_site_fract_x
  _atom_site_fract_y
  _atom_site_fract_z
  _atom_site_occupancy
  Mn  Mn1       1.0  0.2935709059238434  0.42598387598991394  0.6100411415100098  1.0000
  Ni  Ni1       1.0  0.740885853767395  0.23258309066295624  0.2440235614776611  1.0000
  Pr  Pr1       1.0  0.7263752818107605  0.7577244639396667  0.19993953406810758  1.0000
  Pr  Pr2       1.0  0.26576974987983704  0.734035074710846  0.45944476127624506  1.0000
  Pr  Pr3       1.0  0.2556956708431244  0.7227562665939331  0.7783622741699218  1.0000
  Pr  Pr4       1.0  0.7526025772094727  0.052047815173864365  0.5621793270111084  1.0000
