data_image0
_chemical_formula_structural       Pr5Pu
_chemical_formula_sum              "Pr5 Pu1"
_cell_length_a       4.947083824012815
_cell_length_b       3.578309757455707
_cell_length_c       5.843475341796875
_cell_angle_alpha    153.5109422613794
_cell_angle_beta     109.20432266592515
_cell_angle_gamma    86.97706927168531

_space_group_name_H-M_alt    "P 1"
_space_group_IT_number       1

loop_
  _space_group_symop_operation_xyz
  'x, y, z'

loop_
  _atom_site_type_symbol
  _atom_site_label
  _atom_site_symmetry_multiplicity
  _atom_site_fract_x
  _atom_site_fract_y
  _atom_site_fract_z
  _atom_site_occupancy
  Pr  Pr1       1.0  0.641774594783783  0.23977595567703253  0.22003342211246493  1.0000
  Pr  Pr2       1.0  0.8542064428329468  0.7648765444755553  0.8675447106361388  1.0000
  Pr  Pr3       1.0  0.15376992523670197  0.7507304549217224  0.114431694149971  1.0000
  Pr  Pr4       1.0  0.15080174803733826  0.27920740842819214  0.5403422713279724  1.0000
  Pr  Pr5       1.0  0.6717360019683838  0.9180221557617189  0.2010251879692078  1.0000
  Pu  Pu1       1.0  0.35931313037872314  0.24540670216083518  0.8582236766815186  1.0000
