data_image0
_chemical_formula_structural       Fe3NaPrRu
_chemical_formula_sum              "Fe3 Na1 Pr1 Ru1"
_cell_length_a       4.281377504882664
_cell_length_b       5.8538408665831385
_cell_length_c       5.771707057952881
_cell_angle_alpha    120.85002833202022
_cell_angle_beta     92.56878796395117
_cell_angle_gamma    89.78474599017176

_space_group_name_H-M_alt    "P 1"
_space_group_IT_number       1

loop_
  _space_group_symop_operation_xyz
  'x, y, z'

loop_
  _atom_site_type_symbol
  _atom_site_label
  _atom_site_symmetry_multiplicity
  _atom_site_fract_x
  _atom_site_fract_y
  _atom_site_fract_z
  _atom_site_occupancy
  Fe  Fe1       1.0  0.3837348222732544  0.31361085176467896  0.8896262049674988  1.0000
  Fe  Fe2       1.0  0.8822270631790161  0.058415062725543976  0.034716885536909096  1.0000
  Fe  Fe3       1.0  0.3775958716869354  0.5317168831825256  0.8286500573158264  1.0000
  Na  Na1       1.0  0.3847450911998749  0.05278885364532471  0.9068899154663086  1.0000
  Pr  Pr1       1.0  0.36273813247680664  0.5534197688102722  0.1469804197549819  1.0000
  Ru  Ru1       1.0  0.8774092793464661  0.8205595016479492  0.2281009852886199  1.0000
