data_image0
_chemical_formula_structural       Al2Fe2SSi3Ti3
_chemical_formula_sum              "Al2 Fe2 S1 Si3 Ti3"
_cell_length_a       4.852783676019197
_cell_length_b       5.717000433954517
_cell_length_c       6.987534046173096
_cell_angle_alpha    115.4602603698226
_cell_angle_beta     107.97631754692337
_cell_angle_gamma    90.86635039924784

_space_group_name_H-M_alt    "P 1"
_space_group_IT_number       1

loop_
  _space_group_symop_operation_xyz
  'x, y, z'

loop_
  _atom_site_type_symbol
  _atom_site_label
  _atom_site_symmetry_multiplicity
  _atom_site_fract_x
  _atom_site_fract_y
  _atom_site_fract_z
  _atom_site_occupancy
  Al  Al1       1.0  0.2956947684288025  0.02995787002146244  0.26431092619895935  1.0000
  Al  Al2       1.0  0.3956824243068695  0.746830940246582  0.6090722680091858  1.0000
  Fe  Fe1       1.0  0.6181780099868774  0.10983345657587051  0.10086672753095627  1.0000
  Fe  Fe2       1.0  0.5036798119544983  0.877285361289978  0.7696089744567871  1.0000
  S   S1        1.0  0.9897152185440063  0.5693709850311279  0.7784435153007507  1.0000
  Si  Si1       1.0  0.5592655539512634  0.10887140780687332  0.5202939510345459  1.0000
  Si  Si2       1.0  0.31479382514953613  0.6079146265983582  0.19696138799190518  1.0000
  Si  Si3       1.0  0.2319222092628479  0.41596078872680664  0.7518511414527893  1.0000
  Ti  Ti1       1.0  0.4921986162662506  0.12807874381542206  0.7708045244216919  1.0000
  Ti  Ti2       1.0  0.8856290578842163  0.10897652059793472  0.20061038434505463  1.0000
  Ti  Ti3       1.0  0.9068084955215454  0.6003869771957397  0.5464336276054382  1.0000
