data_image0
_chemical_formula_structural       Al2HLiSSi4TiTl
_chemical_formula_sum              "Al2 H1 Li1 S1 Si4 Ti1 Tl1"
_cell_length_a       4.947603172784316
_cell_length_b       5.779104472708195
_cell_length_c       6.806992530822754
_cell_angle_alpha    109.72504578077172
_cell_angle_beta     108.9066689766846
_cell_angle_gamma    89.96617154786854

_space_group_name_H-M_alt    "P 1"
_space_group_IT_number       1

loop_
  _space_group_symop_operation_xyz
  'x, y, z'

loop_
  _atom_site_type_symbol
  _atom_site_label
  _atom_site_symmetry_multiplicity
  _atom_site_fract_x
  _atom_site_fract_y
  _atom_site_fract_z
  _atom_site_occupancy
  Al  Al1       1.0  0.8675611019134521  0.741788923740387  0.23697717487812048  1.0000
  Al  Al2       1.0  0.5717968344688416  0.3659669756889343  0.46809187531471247  1.0000
  H   H1        1.0  0.01987646147608757  0.9171809554100037  0.01340455748140815  1.0000
  Li  Li1       1.0  0.8029515743255615  0.35186880826950073  0.2678833305835724  1.0000
  S   S1        1.0  0.1671922355890274  0.2526727020740509  0.4219933152198791  1.0000
  Si  Si1       1.0  0.009295523166656494  0.8933773040771484  0.9658243656158446  1.0000
  Si  Si2       1.0  0.9951150417327882  0.9903014302253723  0.9948672056198119  1.0000
  Si  Si3       1.0  0.2720106840133667  0.6553788185119629  0.2553229331970215  1.0000
  Si  Si4       1.0  0.5404526591300964  0.6214132308959961  0.9548433423042296  1.0000
  Ti  Ti1       1.0  0.5299962162971497  0.8776327967643738  0.9748869538307189  1.0000
  Tl  Tl1       1.0  0.5139645338058472  0.15028750896453857  0.9863041043281554  1.0000
