data_image0
_chemical_formula_structural       Al6Fe3STi
_chemical_formula_sum              "Al6 Fe3 S1 Ti1"
_cell_length_a       4.554256920464341
_cell_length_b       5.596164550298955
_cell_length_c       6.399381160736084
_cell_angle_alpha    77.95470154199255
_cell_angle_beta     69.61158148753276
_cell_angle_gamma    62.90015548186621

_space_group_name_H-M_alt    "P 1"
_space_group_IT_number       1

loop_
  _space_group_symop_operation_xyz
  'x, y, z'

loop_
  _atom_site_type_symbol
  _atom_site_label
  _atom_site_symmetry_multiplicity
  _atom_site_fract_x
  _atom_site_fract_y
  _atom_site_fract_z
  _atom_site_occupancy
  Al  Al1       1.0  0.16169242560863495  0.9757376313209534  0.3973160684108734  1.0000
  Al  Al2       1.0  0.9341962933540344  0.48912349343299866  0.5659831166267395  1.0000
  Al  Al3       1.0  0.026234224438667297  0.6894063353538513  0.9464336037635803  1.0000
  Al  Al4       1.0  0.15108956396579742  0.9792229533195496  0.7990633249282837  1.0000
  Al  Al5       1.0  0.5756887793540955  0.40999871492385864  0.5804941654205322  1.0000
  Al  Al6       1.0  0.6013087630271912  0.7581540942192078  0.0525866337120533  1.0000
  Fe  Fe1       1.0  0.5833257436752319  0.8387021422386169  0.4179341495037079  1.0000
  Fe  Fe2       1.0  0.6161158680915833  0.3416599929332733  0.8561580181121826  1.0000
  Fe  Fe3       1.0  0.35826218128204346  0.6879709959030151  0.7518763542175293  1.0000
  S   S1        1.0  0.7838538289070129  0.48022976517677307  0.576113224029541  1.0000
  Ti  Ti1       1.0  0.3172578811645508  0.07283450663089752  0.07736499607563017  1.0000
