data_image0
_chemical_formula_structural       Al2FeSi4Ti4
_chemical_formula_sum              "Al2 Fe1 Si4 Ti4"
_cell_length_a       5.086894782385955
_cell_length_b       5.176978776943898
_cell_length_c       6.850838661193848
_cell_angle_alpha    112.49774303839462
_cell_angle_beta     113.7065842308255
_cell_angle_gamma    90.86369562167911

_space_group_name_H-M_alt    "P 1"
_space_group_IT_number       1

loop_
  _space_group_symop_operation_xyz
  'x, y, z'

loop_
  _atom_site_type_symbol
  _atom_site_label
  _atom_site_symmetry_multiplicity
  _atom_site_fract_x
  _atom_site_fract_y
  _atom_site_fract_z
  _atom_site_occupancy
  Al  Al1       1.0  0.3964017629623413  0.05972195044159889  0.9692717790603637  1.0000
  Al  Al2       1.0  0.9873209595680238  0.7000279426574707  0.014141063205897806  1.0000
  Fe  Fe1       1.0  0.9035164713859559  0.43768510222435  0.6355198621749877  1.0000
  Si  Si1       1.0  0.2642180323600769  0.4196384847164154  0.4794586896896362  1.0000
  Si  Si2       1.0  0.9172261953353883  0.021267499774694443  0.9254429340362548  1.0000
  Si  Si3       1.0  0.503612220287323  0.2331976592540741  0.6873442530632018  1.0000
  Si  Si4       1.0  0.1377212107181549  0.979848325252533  0.6967711448669432  1.0000
  Ti  Ti1       1.0  0.6283618211746216  0.7504554986953735  0.18018771708011624  1.0000
  Ti  Ti2       1.0  0.41024652123451233  0.21176482737064362  0.6272634863853453  1.0000
  Ti  Ti3       1.0  0.15605902671813965  0.9213305711746216  0.17927730083465573  1.0000
  Ti  Ti4       1.0  0.6650057435035706  0.778343141078949  0.17842544615268704  1.0000
