data_image0
_chemical_formula_structural       Al3FePSi2TiTl3
_chemical_formula_sum              "Al3 Fe1 P1 Si2 Ti1 Tl3"
_cell_length_a       5.387717284753389
_cell_length_b       3.4725617735650744
_cell_length_c       6.223589897155762
_cell_angle_alpha    124.96906147131786
_cell_angle_beta     114.00789222789459
_cell_angle_gamma    90.12516700611714

_space_group_name_H-M_alt    "P 1"
_space_group_IT_number       1

loop_
  _space_group_symop_operation_xyz
  'x, y, z'

loop_
  _atom_site_type_symbol
  _atom_site_label
  _atom_site_symmetry_multiplicity
  _atom_site_fract_x
  _atom_site_fract_y
  _atom_site_fract_z
  _atom_site_occupancy
  Al  Al1       1.0  0.4394727647304535  0.3850802779197693  0.7283371090888977  1.0000
  Al  Al2       1.0  0.8750917315483093  0.6801666617393494  0.6857032179832458  1.0000
  Al  Al3       1.0  0.7647832632064819  0.4851321578025818  0.14512257277965537  1.0000
  Fe  Fe1       1.0  0.6672095060348511  0.07797633111476898  0.0014199764700606285  1.0000
  P   P1        1.0  0.8477708101272583  0.7335045337677002  0.7551144957542418  1.0000
  Si  Si1       1.0  0.8616873025894165  0.048263393342494965  0.20833237469196317  1.0000
  Si  Si2       1.0  0.2799546420574188  0.8216605186462402  0.7256252765655518  1.0000
  Ti  Ti1       1.0  0.10769512504339218  0.050889380276203156  0.2620800733566284  1.0000
  Tl  Tl1       1.0  0.5782794952392578  0.9838139414787292  0.2729211747646332  1.0000
  Tl  Tl2       1.0  0.20476792752742767  0.7306185960769653  0.526473879814148  1.0000
  Tl  Tl3       1.0  0.2227834165096283  0.3354733884334564  0.23927994072437284  1.0000
