data_image0
_chemical_formula_structural       Al6Fe3NaS
_chemical_formula_sum              "Al6 Fe3 Na1 S1"
_cell_length_a       4.5605049479365976
_cell_length_b       5.172748392805509
_cell_length_c       6.9225592613220215
_cell_angle_alpha    84.23361578551268
_cell_angle_beta     69.5404375198656
_cell_angle_gamma    64.05338973759079

_space_group_name_H-M_alt    "P 1"
_space_group_IT_number       1

loop_
  _space_group_symop_operation_xyz
  'x, y, z'

loop_
  _atom_site_type_symbol
  _atom_site_label
  _atom_site_symmetry_multiplicity
  _atom_site_fract_x
  _atom_site_fract_y
  _atom_site_fract_z
  _atom_site_occupancy
  Al  Al1       1.0  0.4472435414791107  0.9433733224868774  0.6148900389671326  1.0000
  Al  Al2       1.0  0.7330420613288879  0.4688541889190674  0.42201268672943115  1.0000
  Al  Al3       1.0  0.9702634215354919  0.5116289258003235  0.34444350004196167  1.0000
  Al  Al4       1.0  0.3466021716594696  0.20966839790344238  0.6733231544494629  1.0000
  Al  Al5       1.0  0.3964090049266815  0.7891458868980408  0.8623512983322144  1.0000
  Al  Al6       1.0  0.4006201922893524  0.18447765707969666  0.7231298089027405  1.0000
  Fe  Fe1       1.0  0.5338176488876343  0.950128972530365  0.9112072587013245  1.0000
  Fe  Fe2       1.0  0.03824236989021301  0.40988388657569885  0.9021808505058289  1.0000
  Fe  Fe3       1.0  0.05091213434934616  0.4600156545639038  0.6148127913475037  1.0000
  Na  Na1       1.0  0.08541153371334076  0.9431005120277405  0.5509479641914368  1.0000
  S   S1        1.0  0.7746595144271851  0.4888264238834381  0.15878203511238098  1.0000
