data_image0
_chemical_formula_structural       Eu3Ge3
_chemical_formula_sum              "Eu3 Ge3"
_cell_length_a       5.388897200590804
_cell_length_b       5.5762437425602505
_cell_length_c       6.72182559967041
_cell_angle_alpha    101.41923687346201
_cell_angle_beta     95.61487982384693
_cell_angle_gamma    115.16287372504472

_space_group_name_H-M_alt    "P 1"
_space_group_IT_number       1

loop_
  _space_group_symop_operation_xyz
  'x, y, z'

loop_
  _atom_site_type_symbol
  _atom_site_label
  _atom_site_symmetry_multiplicity
  _atom_site_fract_x
  _atom_site_fract_y
  _atom_site_fract_z
  _atom_site_occupancy
  Eu  Eu1       1.0  0.22719308733940125  0.3684973418712616  0.024552956223487854  1.0000
  Eu  Eu2       1.0  0.7283563017845154  0.1885819435119629  0.332533061504364  1.0000
  Eu  Eu3       1.0  0.22437362372875214  0.8482829332351685  0.5583202838897705  1.0000
  Ge  Ge1       1.0  0.23638738691806793  0.12552118301391602  0.6961466073989868  1.0000
  Ge  Ge2       1.0  0.2122384011745453  0.855979323387146  0.2833396792411804  1.0000
  Ge  Ge3       1.0  0.7261836528778076  0.5250734686851501  0.5212503671646118  1.0000
