data_image0
_chemical_formula_structural       Eu3Ge3
_chemical_formula_sum              "Eu3 Ge3"
_cell_length_a       5.096371350863651
_cell_length_b       5.362047750665176
_cell_length_c       7.40881872177124
_cell_angle_alpha    109.48898925334086
_cell_angle_beta     106.67802620653545
_cell_angle_gamma    89.52095755237978

_space_group_name_H-M_alt    "P 1"
_space_group_IT_number       1

loop_
  _space_group_symop_operation_xyz
  'x, y, z'

loop_
  _atom_site_type_symbol
  _atom_site_label
  _atom_site_symmetry_multiplicity
  _atom_site_fract_x
  _atom_site_fract_y
  _atom_site_fract_z
  _atom_site_occupancy
  Eu  Eu1       1.0  0.6733167767524719  0.23164989054203033  0.8352983593940735  1.0000
  Eu  Eu2       1.0  0.7604097127914429  0.5225930213928223  0.6893554329872131  1.0000
  Eu  Eu3       1.0  0.18737876415252686  0.023428279906511307  0.44119709730148315  1.0000
  Ge  Ge1       1.0  0.42042025923728943  0.9364927411079407  0.2598837912082672  1.0000
  Ge  Ge2       1.0  0.2895113527774811  0.5343101620674133  0.524585485458374  1.0000
  Ge  Ge3       1.0  0.914561688899994  0.012239284813404083  0.013448087498545647  1.0000
