data_image0
_chemical_formula_structural       Eu4Ge2
_chemical_formula_sum              "Eu4 Ge2"
_cell_length_a       5.319493879839533
_cell_length_b       5.476798239124544
_cell_length_c       7.130188465118408
_cell_angle_alpha    95.404765463502
_cell_angle_beta     96.09161049148346
_cell_angle_gamma    111.4315797886011

_space_group_name_H-M_alt    "P 1"
_space_group_IT_number       1

loop_
  _space_group_symop_operation_xyz
  'x, y, z'

loop_
  _atom_site_type_symbol
  _atom_site_label
  _atom_site_symmetry_multiplicity
  _atom_site_fract_x
  _atom_site_fract_y
  _atom_site_fract_z
  _atom_site_occupancy
  Eu  Eu1       1.0  0.19717660546302795  0.9155398011207581  0.1545456051826477  1.0000
  Eu  Eu2       1.0  0.707508385181427  0.914753258228302  0.909616708755493  1.0000
  Eu  Eu3       1.0  0.19263896346092224  0.42383962869644165  0.8101215958595276  1.0000
  Eu  Eu4       1.0  0.20064130425453186  0.4165469706058502  0.9178984165191649  1.0000
  Ge  Ge1       1.0  0.6782361268997192  0.42442786693573  0.6292690634727478  1.0000
  Ge  Ge2       1.0  0.20267468690872192  0.9299457669258118  0.40254074335098267  1.0000
