data_image0
_chemical_formula_structural       Al3As2Ba6
_chemical_formula_sum              "Al3 As2 Ba6"
_cell_length_a       6.114112998976589
_cell_length_b       7.006732021977249
_cell_length_c       7.312926292419434
_cell_angle_alpha    81.28292553048601
_cell_angle_beta     66.59486238873201
_cell_angle_gamma    66.96244561543703

_space_group_name_H-M_alt    "P 1"
_space_group_IT_number       1

loop_
  _space_group_symop_operation_xyz
  'x, y, z'

loop_
  _atom_site_type_symbol
  _atom_site_label
  _atom_site_symmetry_multiplicity
  _atom_site_fract_x
  _atom_site_fract_y
  _atom_site_fract_z
  _atom_site_occupancy
  Al  Al1       1.0  0.95586895942688  0.7647272944450378  0.08467777818441391  1.0000
  Al  Al2       1.0  0.7820314168930054  0.6428660750389099  0.825996458530426  1.0000
  Al  Al3       1.0  0.6788778901100159  0.25950321555137634  0.6204746961593628  1.0000
  As  As1       1.0  0.6542667746543884  0.7751790285110474  0.5840246677398682  1.0000
  As  As2       1.0  0.7587509155273438  0.1421632170677185  0.34237051010131836  1.0000
  Ba  Ba1       1.0  0.6093167066574097  0.7785977125167847  0.347668319940567  1.0000
  Ba  Ba2       1.0  0.9642326831817628  0.11248792707920076  0.5833005905151367  1.0000
  Ba  Ba3       1.0  0.16113299131393433  0.6231822967529297  0.8373099565505981  1.0000
  Ba  Ba4       1.0  0.28098911046981806  0.9106244444847108  0.10505364090204239  1.0000
  Ba  Ba5       1.0  0.040629658848047256  0.6099652051925659  0.8532470464706421  1.0000
  Ba  Ba6       1.0  0.5794514417648315  0.7401147484779358  0.8546454906463623  1.0000
