data_image0
_chemical_formula_structural       Al4As3Ba4
_chemical_formula_sum              "Al4 As3 Ba4"
_cell_length_a       5.53696714203015
_cell_length_b       8.372865240286941
_cell_length_c       8.703476905822754
_cell_angle_alpha    119.9124238814832
_cell_angle_beta     88.78035940166657
_cell_angle_gamma    89.06680424224791

_space_group_name_H-M_alt    "P 1"
_space_group_IT_number       1

loop_
  _space_group_symop_operation_xyz
  'x, y, z'

loop_
  _atom_site_type_symbol
  _atom_site_label
  _atom_site_symmetry_multiplicity
  _atom_site_fract_x
  _atom_site_fract_y
  _atom_site_fract_z
  _atom_site_occupancy
  Al  Al1       1.0  0.7996801137924194  0.8332571983337402  0.9421444535255432  1.0000
  Al  Al2       1.0  0.3005136251449585  0.577667772769928  0.9686242938041687  1.0000
  Al  Al3       1.0  0.3011054992675781  0.25646311044692993  0.47432494163513184  1.0000
  Al  Al4       1.0  0.4881984889507293  0.8099585175514221  0.736579179763794  1.0000
  As  As1       1.0  0.3010636568069458  0.08063501119613647  0.9703631401062012  1.0000
  As  As2       1.0  0.8001267313957214  0.3153151869773865  0.458157479763031  1.0000
  As  As3       1.0  0.2998596429824829  0.18606986105442047  0.0765051245689392  1.0000
  Ba  Ba1       1.0  0.30223485827445984  0.41604265570640564  0.3068679869174957  1.0000
  Ba  Ba2       1.0  0.8017428517341614  0.833868145942688  0.1521988809108734  1.0000
  Ba  Ba3       1.0  0.80259108543396  0.29945454001426697  0.7152004837989807  1.0000
  Ba  Ba4       1.0  0.8019790053367615  0.5532424449920654  0.9722357392311096  1.0000
