data_image0
_chemical_formula_structural       Al3As3Ba5
_chemical_formula_sum              "Al3 As3 Ba5"
_cell_length_a       5.676196729626484
_cell_length_b       7.977013404348378
_cell_length_c       7.730893611907959
_cell_angle_alpha    120.55889821136256
_cell_angle_beta     89.63215516837506
_cell_angle_gamma    89.08056529200985

_space_group_name_H-M_alt    "P 1"
_space_group_IT_number       1

loop_
  _space_group_symop_operation_xyz
  'x, y, z'

loop_
  _atom_site_type_symbol
  _atom_site_label
  _atom_site_symmetry_multiplicity
  _atom_site_fract_x
  _atom_site_fract_y
  _atom_site_fract_z
  _atom_site_occupancy
  Al  Al1       1.0  0.9163215756416321  0.26665014028549194  0.20075145363807678  1.0000
  Al  Al2       1.0  0.16236941516399384  0.7876176238059998  0.933349609375  1.0000
  Al  Al3       1.0  0.6637710928916931  0.2299671769142151  0.7751358151435852  1.0000
  As  As1       1.0  0.156684011220932  0.016735421493649483  0.2258392721414566  1.0000
  As  As2       1.0  0.6553900837898254  0.5144120454788208  0.4618006646633148  1.0000
  As  As3       1.0  0.6564369797706604  0.7334631681442261  0.07382620126008982  1.0000
  Ba  Ba1       1.0  0.6575419902801514  0.22045104205608368  0.21156860888004303  1.0000
  Ba  Ba2       1.0  0.16353553533554077  0.21540556848049164  0.27570903301239014  1.0000
  Ba  Ba3       1.0  0.6576457619667053  0.5364148020744324  0.9975216388702393  1.0000
  Ba  Ba4       1.0  0.16039331257343292  0.2234138548374176  0.27258986234664917  1.0000
  Ba  Ba5       1.0  0.1623964160680771  0.5210323333740234  0.16385869681835175  1.0000
