data_image0
_chemical_formula_structural       Al5As4Ba2
_chemical_formula_sum              "Al5 As4 Ba2"
_cell_length_a       5.984597623763354
_cell_length_b       7.935416035159561
_cell_length_c       8.019593238830566
_cell_angle_alpha    121.68455439568531
_cell_angle_beta     88.37395688123114
_cell_angle_gamma    88.19256211148742

_space_group_name_H-M_alt    "P 1"
_space_group_IT_number       1

loop_
  _space_group_symop_operation_xyz
  'x, y, z'

loop_
  _atom_site_type_symbol
  _atom_site_label
  _atom_site_symmetry_multiplicity
  _atom_site_fract_x
  _atom_site_fract_y
  _atom_site_fract_z
  _atom_site_occupancy
  Al  Al1       1.0  0.41973450779914856  0.6830708980560303  0.7604865431785583  1.0000
  Al  Al2       1.0  0.4204815924167633  0.2058091163635254  0.9085166454315186  1.0000
  Al  Al3       1.0  0.6705859303474426  0.8946183919906616  0.13319125771522516  1.0000
  Al  Al4       1.0  0.9218066930770874  0.8610204458236694  0.7887970209121704  1.0000
  Al  Al5       1.0  0.40641283988952637  0.4084452688694  0.1886264383792877  1.0000
  As  As1       1.0  0.9199945330619812  0.379486620426178  0.9247803092002869  1.0000
  As  As2       1.0  0.9216564893722534  0.9636202454566956  0.7279127240180968  1.0000
  As  As3       1.0  0.9207786917686462  0.20296941697597504  0.47015485167503357  1.0000
  As  As4       1.0  0.42168092727661133  0.697542667388916  0.9738396406173706  1.0000
  Ba  Ba1       1.0  0.4221659302711487  0.8352503180503845  0.9714629054069519  1.0000
  Ba  Ba2       1.0  0.9222815632820129  0.18747389316558838  0.29364126920700073  1.0000
