data_image0
_chemical_formula_structural       Al5As3Ba3
_chemical_formula_sum              "Al5 As3 Ba3"
_cell_length_a       5.652290919506964
_cell_length_b       7.160873598670867
_cell_length_c       8.094606399536133
_cell_angle_alpha    118.5922003559229
_cell_angle_beta     94.97644383158632
_cell_angle_gamma    89.47513023805578

_space_group_name_H-M_alt    "P 1"
_space_group_IT_number       1

loop_
  _space_group_symop_operation_xyz
  'x, y, z'

loop_
  _atom_site_type_symbol
  _atom_site_label
  _atom_site_symmetry_multiplicity
  _atom_site_fract_x
  _atom_site_fract_y
  _atom_site_fract_z
  _atom_site_occupancy
  Al  Al1       1.0  0.3060697913169861  0.6795320510864258  0.7401074767112732  1.0000
  Al  Al2       1.0  0.676635205745697  0.8503501415252686  0.6434877514839172  1.0000
  Al  Al3       1.0  0.3299899101257324  0.9923009872436523  0.4027128517627716  1.0000
  Al  Al4       1.0  0.3221740126609802  0.34220239520072937  0.924197256565094  1.0000
  Al  Al5       1.0  0.6656543016433716  0.3331160843372345  0.9105283617973328  1.0000
  As  As1       1.0  0.8100776076316833  0.6782171130180359  0.2874465882778168  1.0000
  As  As2       1.0  0.816520094871521  0.6806835532188416  0.05484627932310099  1.0000
  As  As3       1.0  0.3154662847518921  0.3311478793621063  0.14884886145591736  1.0000
  Ba  Ba1       1.0  0.6706107258796692  0.34462302923202515  0.6447756886482239  1.0000
  Ba  Ba2       1.0  0.9941507577896118  0.027897270396351814  0.9178826212882996  1.0000
  Ba  Ba3       1.0  0.17179183661937714  0.8454098105430603  0.6489152908325195  1.0000
