data_image0
_chemical_formula_structural       Al4As4Ba3
_chemical_formula_sum              "Al4 As4 Ba3"
_cell_length_a       5.79796402867929
_cell_length_b       6.99777373099268
_cell_length_c       7.155004978179932
_cell_angle_alpha    78.4131131683682
_cell_angle_beta     68.72853058546957
_cell_angle_gamma    67.76097857372075

_space_group_name_H-M_alt    "P 1"
_space_group_IT_number       1

loop_
  _space_group_symop_operation_xyz
  'x, y, z'

loop_
  _atom_site_type_symbol
  _atom_site_label
  _atom_site_symmetry_multiplicity
  _atom_site_fract_x
  _atom_site_fract_y
  _atom_site_fract_z
  _atom_site_occupancy
  Al  Al1       1.0  0.9367826581001282  0.8152521252632141  0.7176589369773865  1.0000
  Al  Al2       1.0  0.8581923842430115  0.4130261540412903  0.4534653723239898  1.0000
  Al  Al3       1.0  0.09890482574701309  0.04870084300637245  0.3173758387565613  1.0000
  Al  Al4       1.0  0.020416466519236565  0.7088112235069275  0.43636429309844976  1.0000
  As  As1       1.0  0.26688694953918457  0.2166227102279663  0.58199542760849  1.0000
  As  As2       1.0  0.5932576060295105  0.41328662633895874  0.6904937624931335  1.0000
  As  As3       1.0  0.2599027156829834  0.2018221616744995  0.9215880036354066  1.0000
  As  As4       1.0  0.7534856796264648  0.17555025219917297  0.30945542454719543  1.0000
  Ba  Ba1       1.0  0.1185307726264  0.4208650290966034  0.7224122285842896  1.0000
  Ba  Ba2       1.0  0.7489767074584961  0.67342609167099  0.7970730662345887  1.0000
  Ba  Ba3       1.0  0.24581953883171082  0.7140265703201294  0.1550130695104599  1.0000
