data_image0
_chemical_formula_structural       CeCsGe2ScSi6
_chemical_formula_sum              "Ce1 Cs1 Ge2 Sc1 Si6"
_cell_length_a       4.509197780555147
_cell_length_b       6.7878956896728555
_cell_length_c       8.074173927307129
_cell_angle_alpha    104.62469644763752
_cell_angle_beta     103.49628903473833
_cell_angle_gamma    89.41610343653173

_space_group_name_H-M_alt    "P 1"
_space_group_IT_number       1

loop_
  _space_group_symop_operation_xyz
  'x, y, z'

loop_
  _atom_site_type_symbol
  _atom_site_label
  _atom_site_symmetry_multiplicity
  _atom_site_fract_x
  _atom_site_fract_y
  _atom_site_fract_z
  _atom_site_occupancy
  Ce  Ce1       1.0  0.6340599656105042  0.6566930413246155  0.7160775065422058  1.0000
  Cs  Cs1       1.0  0.8562763333320618  0.5492079854011536  0.6964038014411926  1.0000
  Ge  Ge1       1.0  0.14643943309783936  0.11721744388341904  0.7470089793205261  1.0000
  Ge  Ge2       1.0  0.13109779357910156  0.1623222380876541  0.14950768649578094  1.0000
  Sc  Sc1       1.0  0.9053870439529419  0.8846641778945923  0.38074934482574463  1.0000
  Si  Si1       1.0  0.6254328489303589  0.1319543868303299  0.19704824686050415  1.0000
  Si  Si2       1.0  0.6381450295448303  0.2802164852619171  0.7466311454772949  1.0000
  Si  Si3       1.0  0.349601686000824  0.07364581525325775  0.674603283405304  1.0000
  Si  Si4       1.0  0.24005667865276337  0.6777470111846924  0.6224566102027893  1.0000
  Si  Si5       1.0  0.11559572070837021  0.08466458320617676  0.21505500376224518  1.0000
  Si  Si6       1.0  0.47936373949050903  0.6903582215309143  0.39363333582878113  1.0000
