data_image0
_chemical_formula_structural       MnSSc2Si7
_chemical_formula_sum              "Mn1 S1 Sc2 Si7"
_cell_length_a       3.9608533228223255
_cell_length_b       7.627391404132068
_cell_length_c       8.097583770751953
_cell_angle_alpha    107.34046314941277
_cell_angle_beta     102.04177211143318
_cell_angle_gamma    90.38001578263199

_space_group_name_H-M_alt    "P 1"
_space_group_IT_number       1

loop_
  _space_group_symop_operation_xyz
  'x, y, z'

loop_
  _atom_site_type_symbol
  _atom_site_label
  _atom_site_symmetry_multiplicity
  _atom_site_fract_x
  _atom_site_fract_y
  _atom_site_fract_z
  _atom_site_occupancy
  Mn  Mn1       1.0  0.5940064787864685  0.7703017592430115  0.43507876992225647  1.0000
  S   S1        1.0  0.5165644288063049  0.7538067698478699  0.6721128821372986  1.0000
  Sc  Sc1       1.0  0.10824347287416458  0.7369877696037292  0.07236722856760022  1.0000
  Sc  Sc2       1.0  0.02240675315260887  0.744486927986145  0.6988177299499512  1.0000
  Si  Si1       1.0  0.9654329419136047  0.2612719237804413  0.15844213962554932  1.0000
  Si  Si2       1.0  0.6323239207267761  0.7277477979660034  0.8966094851493835  1.0000
  Si  Si3       1.0  0.6454141139984131  0.0019840053282678127  0.19974523782730103  1.0000
  Si  Si4       1.0  0.9141740798950195  0.38523563742637634  0.07382168620824814  1.0000
  Si  Si5       1.0  0.11616074293851852  0.6383251547813416  0.8159868121147156  1.0000
  Si  Si6       1.0  0.019895067438483238  0.07077111303806305  0.6918731331825256  1.0000
  Si  Si7       1.0  0.3919776380062103  0.2705257833003998  0.18456736207008362  1.0000
