data_image0
_chemical_formula_structural       Ce2MgMn5Si3
_chemical_formula_sum              "Ce2 Mg1 Mn5 Si3"
_cell_length_a       5.056576496462882
_cell_length_b       5.391188154539793
_cell_length_c       8.42726993560791
_cell_angle_alpha    97.91950711635278
_cell_angle_beta     92.54182281790867
_cell_angle_gamma    89.12606942335576

_space_group_name_H-M_alt    "P 1"
_space_group_IT_number       1

loop_
  _space_group_symop_operation_xyz
  'x, y, z'

loop_
  _atom_site_type_symbol
  _atom_site_label
  _atom_site_symmetry_multiplicity
  _atom_site_fract_x
  _atom_site_fract_y
  _atom_site_fract_z
  _atom_site_occupancy
  Ce  Ce1       1.0  0.853243350982666  0.9903757572174072  0.8146079778671265  1.0000
  Ce  Ce2       1.0  0.3973846435546875  0.5558512210845947  0.7926045656204224  1.0000
  Mg  Mg1       1.0  0.01234363578259945  0.5120061039924622  0.07199334353208542  1.0000
  Mn  Mn1       1.0  0.1277594119310379  0.13839282095432281  0.15042522549629211  1.0000
  Mn  Mn2       1.0  0.2868957221508026  0.49403661489486694  0.9012781381607056  1.0000
  Mn  Mn3       1.0  0.6641963124275208  0.10539709031581879  0.32419252395629883  1.0000
  Mn  Mn4       1.0  0.6520186066627502  0.8940725326538086  0.07309279590845108  1.0000
  Mn  Mn5       1.0  0.6421511173248291  0.11329350620508194  0.5326286554336548  1.0000
  Si  Si1       1.0  0.015675216913223267  0.5856468677520752  0.17959445714950562  1.0000
  Si  Si2       1.0  0.34159865975379944  0.9803292155265808  0.8310164213180542  1.0000
  Si  Si3       1.0  0.5101488828659058  0.5037019848823547  0.6968316435813904  1.0000
