data_image0
_chemical_formula_structural       GeMn3ScSi5Zn
_chemical_formula_sum              "Ge1 Mn3 Sc1 Si5 Zn1"
_cell_length_a       4.802846219819683
_cell_length_b       6.226442904305432
_cell_length_c       7.844267845153809
_cell_angle_alpha    101.20894728334044
_cell_angle_beta     89.37327927138992
_cell_angle_gamma    107.35870989421534

_space_group_name_H-M_alt    "P 1"
_space_group_IT_number       1

loop_
  _space_group_symop_operation_xyz
  'x, y, z'

loop_
  _atom_site_type_symbol
  _atom_site_label
  _atom_site_symmetry_multiplicity
  _atom_site_fract_x
  _atom_site_fract_y
  _atom_site_fract_z
  _atom_site_occupancy
  Ge  Ge1       1.0  0.04148725047707562  0.9173991084098817  0.5799974203109741  1.0000
  Mn  Mn1       1.0  0.805108904838562  0.5223955512046814  0.3082679808139801  1.0000
  Mn  Mn2       1.0  0.09542733430862427  0.05738219991326333  0.18854950368404388  1.0000
  Mn  Mn3       1.0  0.8652219772338867  0.4541959166526795  0.8638980388641359  1.0000
  Sc  Sc1       1.0  0.4485779404640198  0.05184976756572724  0.1257091611623764  1.0000
  Si  Si1       1.0  0.3801001310348511  0.6556833982467651  0.49601969122886663  1.0000
  Si  Si2       1.0  0.07490442693233494  0.9102249145507814  0.7533678412437439  1.0000
  Si  Si3       1.0  0.7883806228637695  0.05366706475615502  0.056142203509807594  1.0000
  Si  Si4       1.0  0.2559935450553894  0.2976016402244568  0.9984159469604493  1.0000
  Si  Si5       1.0  0.5763494968414307  0.9344710111618043  0.37771379947662354  1.0000
  Zn  Zn1       1.0  0.764356791973114  0.42606174945831304  0.008495887741446502  1.0000
