data_image0
_chemical_formula_structural       Ce2Mn3Si6
_chemical_formula_sum              "Ce2 Mn3 Si6"
_cell_length_a       4.869198858284152
_cell_length_b       6.6922717636137
_cell_length_c       8.005561828613281
_cell_angle_alpha    116.48569578413424
_cell_angle_beta     97.90273392327877
_cell_angle_gamma    90.12581469665477

_space_group_name_H-M_alt    "P 1"
_space_group_IT_number       1

loop_
  _space_group_symop_operation_xyz
  'x, y, z'

loop_
  _atom_site_type_symbol
  _atom_site_label
  _atom_site_symmetry_multiplicity
  _atom_site_fract_x
  _atom_site_fract_y
  _atom_site_fract_z
  _atom_site_occupancy
  Ce  Ce1       1.0  0.1830827295780182  0.05099507048726082  0.6914275288581848  1.0000
  Ce  Ce2       1.0  0.22443673014640808  0.8996516466140747  0.09173369407653803  1.0000
  Mn  Mn1       1.0  0.22642125189304352  0.4239653944969177  0.2579677999019623  1.0000
  Mn  Mn2       1.0  0.9320083260536194  0.4330139756202698  0.10870449244976044  1.0000
  Mn  Mn3       1.0  0.18703235685825348  0.036328841000795364  0.2594495713710785  1.0000
  Si  Si1       1.0  0.6478372812271118  0.06812004745006561  0.7350344657897949  1.0000
  Si  Si2       1.0  0.7136308550834656  0.3390393853187561  0.861122727394104  1.0000
  Si  Si3       1.0  0.7029351592063904  0.8284929990768433  0.1735001802444458  1.0000
  Si  Si4       1.0  0.686889111995697  0.543400764465332  0.7539393901824951  1.0000
  Si  Si5       1.0  0.1879059225320816  0.7046675682067871  0.34456291794776917  1.0000
  Si  Si6       1.0  0.0708790123462677  0.8845711350440979  0.7396979331970215  1.0000
