data_image0
_chemical_formula_structural       MnScSeSi8
_chemical_formula_sum              "Mn1 Sc1 Se1 Si8"
_cell_length_a       5.972650608622901
_cell_length_b       6.5098691977578795
_cell_length_c       6.981268882751465
_cell_angle_alpha    105.94280556991716
_cell_angle_beta     103.27571245129138
_cell_angle_gamma    110.97487131262525

_space_group_name_H-M_alt    "P 1"
_space_group_IT_number       1

loop_
  _space_group_symop_operation_xyz
  'x, y, z'

loop_
  _atom_site_type_symbol
  _atom_site_label
  _atom_site_symmetry_multiplicity
  _atom_site_fract_x
  _atom_site_fract_y
  _atom_site_fract_z
  _atom_site_occupancy
  Mn  Mn1       1.0  0.5562072992324829  0.05559687688946724  0.013633870519697666  1.0000
  Sc  Sc1       1.0  0.296931654214859  0.2588142454624176  0.6714046597480774  1.0000
  Se  Se1       1.0  0.9042004942893982  0.7140783071517944  0.24716852605342865  1.0000
  Si  Si1       1.0  0.6574881672859192  0.7720538973808289  0.713042140007019  1.0000
  Si  Si2       1.0  0.28196290135383606  0.2560335397720337  0.0927736908197403  1.0000
  Si  Si3       1.0  0.553237795829773  0.008243340998888016  0.4455413818359375  1.0000
  Si  Si4       1.0  0.01369461789727211  0.5432825088500977  0.19199149310588837  1.0000
  Si  Si5       1.0  0.7789215445518494  0.5637075304985046  0.5012953877449036  1.0000
  Si  Si6       1.0  0.7350424528121948  0.7303109169006348  0.9455816149711609  1.0000
  Si  Si7       1.0  0.7811437845230103  0.23113194108009338  0.9374711513519287  1.0000
  Si  Si8       1.0  0.26828333735466003  0.9941710829734802  0.47613584995269775  1.0000
