data_image0
_chemical_formula_structural       NdPb2Ru3W2
_chemical_formula_sum              "Nd1 Pb2 Ru3 W2"
_cell_length_a       5.150653769088338
_cell_length_b       5.177450338215939
_cell_length_c       7.164833068847656
_cell_angle_alpha    90.28790557801264
_cell_angle_beta     89.95835586015195
_cell_angle_gamma    120.00765370375403

_space_group_name_H-M_alt    "P 1"
_space_group_IT_number       1

loop_
  _space_group_symop_operation_xyz
  'x, y, z'

loop_
  _atom_site_type_symbol
  _atom_site_label
  _atom_site_symmetry_multiplicity
  _atom_site_fract_x
  _atom_site_fract_y
  _atom_site_fract_z
  _atom_site_occupancy
  Nd  Nd1       1.0  0.8882442116737366  0.7664405703544617  0.3477267026901245  1.0000
  Pb  Pb1       1.0  0.5514020323753357  0.09493562579154968  0.0790918618440628  1.0000
  Pb  Pb2       1.0  0.5505243539810181  0.09457331150770187  0.5896039009094239  1.0000
  Ru  Ru1       1.0  0.22192108631134033  0.43268755078315735  0.5262844562530518  1.0000
  Ru  Ru2       1.0  0.04261552542448044  0.07309224456548691  0.8010542988777161  1.0000
  Ru  Ru3       1.0  0.22170500457286835  0.4308927357196808  0.15150198340415955  1.0000
  W   W1        1.0  0.043829791247844696  0.5991889834403992  0.8499960899353027  1.0000
  W   W2        1.0  0.5535174608230591  0.5969042778015137  0.8509441018104554  1.0000
