data_image0
_chemical_formula_structural       CuF2NScTeWXe
_chemical_formula_sum              "Cu1 F2 N1 Sc1 Te1 W1 Xe1"
_cell_length_a       5.660660398888422
_cell_length_b       5.6352828325522575
_cell_length_c       6.428399562835693
_cell_angle_alpha    63.990801621589846
_cell_angle_beta     63.90059705434111
_cell_angle_gamma    59.842894204072465

_space_group_name_H-M_alt    "P 1"
_space_group_IT_number       1

loop_
  _space_group_symop_operation_xyz
  'x, y, z'

loop_
  _atom_site_type_symbol
  _atom_site_label
  _atom_site_symmetry_multiplicity
  _atom_site_fract_x
  _atom_site_fract_y
  _atom_site_fract_z
  _atom_site_occupancy
  Cu  Cu1       1.0  0.8566446900367737  0.6724098920822144  0.1477416902780533  1.0000
  F   F1        1.0  0.3450542390346527  0.17333152890205383  0.6435127258300781  1.0000
  F   F2        1.0  0.19055816531181335  0.31077122688293457  0.17899316549301147  1.0000
  N   N1        1.0  0.49737319350242615  0.6708035469055176  0.1853472143411637  1.0000
  Sc  Sc1       1.0  0.24685673415660858  0.04419238865375519  0.008414745330810554  1.0000
  Te  Te1       1.0  0.9988721013069153  0.813798725605011  0.6973287463188172  1.0000
  W   W1        1.0  0.49592649936676025  0.29863083362579346  0.279807299375534  1.0000
  Xe  Xe1       1.0  0.6724095344543457  0.4876086115837097  0.6793202757835388  1.0000
