data_image0
_chemical_formula_structural       Pb3Ru3W2
_chemical_formula_sum              "Pb3 Ru3 W2"
_cell_length_a       5.306202802681213
_cell_length_b       5.466141890890397
_cell_length_c       6.17072057723999
_cell_angle_alpha    92.36296156288763
_cell_angle_beta     90.13264320995708
_cell_angle_gamma    118.85890703500633

_space_group_name_H-M_alt    "P 1"
_space_group_IT_number       1

loop_
  _space_group_symop_operation_xyz
  'x, y, z'

loop_
  _atom_site_type_symbol
  _atom_site_label
  _atom_site_symmetry_multiplicity
  _atom_site_fract_x
  _atom_site_fract_y
  _atom_site_fract_z
  _atom_site_occupancy
  Pb  Pb1       1.0  0.11463478952646255  0.16595162451267242  0.776761293411255  1.0000
  Pb  Pb2       1.0  0.43728768825531006  0.7540425658226013  0.06592978537082672  1.0000
  Pb  Pb3       1.0  0.7949836850166321  0.6037983894348145  0.5672265887260437  1.0000
  Ru  Ru1       1.0  0.4531884789466858  0.8893730640411377  0.6012353897094725  1.0000
  Ru  Ru2       1.0  0.8472251296043396  0.18950003385543823  0.3498792350292206  1.0000
  Ru  Ru3       1.0  0.9569472074508667  0.8105162382125854  0.14695057272911072  1.0000
  W   W1        1.0  0.34894460439682007  0.2119322121143341  0.31114864349365234  1.0000
  W   W2        1.0  0.7192897200584412  0.3411964178085327  0.9683251976966858  1.0000
