data_image0
_chemical_formula_structural       Nb3Ru3
_chemical_formula_sum              "Nb3 Ru3"
_cell_length_a       4.800090468443441
_cell_length_b       4.982926805819058
_cell_length_c       4.950740337371826
_cell_angle_alpha    120.25824622636063
_cell_angle_beta     90.16417620169094
_cell_angle_gamma    90.01965825857937

_space_group_name_H-M_alt    "P 1"
_space_group_IT_number       1

loop_
  _space_group_symop_operation_xyz
  'x, y, z'

loop_
  _atom_site_type_symbol
  _atom_site_label
  _atom_site_symmetry_multiplicity
  _atom_site_fract_x
  _atom_site_fract_y
  _atom_site_fract_z
  _atom_site_occupancy
  Nb  Nb1       1.0  0.94394850730896  0.15515826642513275  0.14666953682899475  1.0000
  Nb  Nb2       1.0  0.44298940896987915  0.8047214150428772  0.8112742304801941  1.0000
  Nb  Nb3       1.0  0.4414980113506317  0.1531655639410019  0.48997434973716736  1.0000
  Ru  Ru1       1.0  0.9445134997367859  0.4858132600784302  0.8157755732536316  1.0000
  Ru  Ru2       1.0  0.44359809160232544  0.4862429201602936  0.1507272720336914  1.0000
  Ru  Ru3       1.0  0.9424585103988647  0.8075728416442871  0.47411081194877625  1.0000
