data_image0
_chemical_formula_structural       Nb4Ru2
_chemical_formula_sum              "Nb4 Ru2"
_cell_length_a       5.005985299988885
_cell_length_b       5.011707821291803
_cell_length_c       5.154926776885986
_cell_angle_alpha    104.03177570341364
_cell_angle_beta     104.28679322265737
_cell_angle_gamma    119.55103930645484

_space_group_name_H-M_alt    "P 1"
_space_group_IT_number       1

loop_
  _space_group_symop_operation_xyz
  'x, y, z'

loop_
  _atom_site_type_symbol
  _atom_site_label
  _atom_site_symmetry_multiplicity
  _atom_site_fract_x
  _atom_site_fract_y
  _atom_site_fract_z
  _atom_site_occupancy
  Nb  Nb1       1.0  0.025880003347992897  0.4181669056415558  0.298534095287323  1.0000
  Nb  Nb2       1.0  0.8583667278289795  0.5928094387054443  0.801011860370636  1.0000
  Nb  Nb3       1.0  0.5260661244392395  0.9152975678443909  0.800625741481781  1.0000
  Nb  Nb4       1.0  0.3598916530609131  0.09157627820968628  0.29798102378845215  1.0000
  Ru  Ru1       1.0  0.19346146285533905  0.26657378673553467  0.7999529242515564  1.0000
  Ru  Ru2       1.0  0.6902389526367188  0.7662813663482666  0.29773351550102234  1.0000
