data_image0
_chemical_formula_structural       AlAsIPV4Zn
_chemical_formula_sum              "Al1 As1 I1 P1 V4 Zn1"
_cell_length_a       4.832550500754558
_cell_length_b       5.145800328052743
_cell_length_c       5.512032508850098
_cell_angle_alpha    93.23294052002414
_cell_angle_beta     94.55752185429793
_cell_angle_gamma    90.17497863818647

_space_group_name_H-M_alt    "P 1"
_space_group_IT_number       1

loop_
  _space_group_symop_operation_xyz
  'x, y, z'

loop_
  _atom_site_type_symbol
  _atom_site_label
  _atom_site_symmetry_multiplicity
  _atom_site_fract_x
  _atom_site_fract_y
  _atom_site_fract_z
  _atom_site_occupancy
  Al  Al1       1.0  0.8209608793258667  0.04006069898605347  0.4745672643184662  1.0000
  As  As1       1.0  0.2895670235157013  0.771740734577179  0.6037691235542297  1.0000
  I   I1        1.0  0.7126045823097229  0.008273371495306492  0.4845898747444153  1.0000
  P   P1        1.0  0.8061034083366394  0.5878377556800842  0.09187651425600052  1.0000
  V   V1        1.0  0.31679344177246094  0.2996203899383545  0.07732226699590683  1.0000
  V   V2        1.0  0.2717045545578003  0.3988831043243408  0.12486327439546585  1.0000
  V   V3        1.0  0.2340092658996582  0.9353989362716675  0.8427530527114868  1.0000
  V   V4        1.0  0.3137337863445282  0.5354698896408081  0.2291310876607895  1.0000
  Zn  Zn1       1.0  0.8117623329162598  0.4466750919818878  0.21103869378566742  1.0000
