data_image0
_chemical_formula_structural       Al3S3V3
_chemical_formula_sum              "Al3 S3 V3"
_cell_length_a       6.024522888458556
_cell_length_b       5.153061356435072
_cell_length_c       5.6960601806640625
_cell_angle_alpha    63.349750647160825
_cell_angle_beta     61.948795865636384
_cell_angle_gamma    58.73648172699002

_space_group_name_H-M_alt    "P 1"
_space_group_IT_number       1

loop_
  _space_group_symop_operation_xyz
  'x, y, z'

loop_
  _atom_site_type_symbol
  _atom_site_label
  _atom_site_symmetry_multiplicity
  _atom_site_fract_x
  _atom_site_fract_y
  _atom_site_fract_z
  _atom_site_occupancy
  Al  Al1       1.0  0.23117579519748688  0.052175719290971756  0.42404428124427795  1.0000
  Al  Al2       1.0  0.5715594291687012  0.7104395627975464  0.9451721906661986  1.0000
  Al  Al3       1.0  0.908281147480011  0.5746176242828369  0.34131816029548645  1.0000
  S   S1        1.0  0.9120498299598694  0.39300337433815  0.624407947063446  1.0000
  S   S2        1.0  0.7137538194656372  0.3656070828437805  0.9750527143478392  1.0000
  S   S3        1.0  0.37009385228157043  0.497355192899704  0.2755540609359741  1.0000
  V   V1        1.0  0.8787552714347839  0.1265033781528473  0.672054648399353  1.0000
  V   V2        1.0  0.36498400568962097  0.19164782762527466  0.19249652326107025  1.0000
  V   V3        1.0  0.21640676259994507  0.4018816351890564  0.3148801028728485  1.0000
