data_image0
_chemical_formula_structural       AlAsBaP2V3Zr
_chemical_formula_sum              "Al1 As1 Ba1 P2 V3 Zr1"
_cell_length_a       5.4806656621296455
_cell_length_b       5.975090260958469
_cell_length_c       6.071649551391602
_cell_angle_alpha    92.31577870080125
_cell_angle_beta     87.71226752115462
_cell_angle_gamma    89.43028493520639

_space_group_name_H-M_alt    "P 1"
_space_group_IT_number       1

loop_
  _space_group_symop_operation_xyz
  'x, y, z'

loop_
  _atom_site_type_symbol
  _atom_site_label
  _atom_site_symmetry_multiplicity
  _atom_site_fract_x
  _atom_site_fract_y
  _atom_site_fract_z
  _atom_site_occupancy
  Al  Al1       1.0  0.910940408706665  0.006519554648548365  0.9327688217163085  1.0000
  As  As1       1.0  0.9056757092475891  0.6718189716339111  0.6243571043014526  1.0000
  Ba  Ba1       1.0  0.4210992753505707  0.4541560113430023  0.09582079946994781  1.0000
  P   P1        1.0  0.4952429234981537  0.05004269257187843  0.8205770850181578  1.0000
  P   P2        1.0  0.9493125677108765  0.7553629875183105  0.720387876033783  1.0000
  V   V1        1.0  0.9105274081230164  0.18649715185165405  0.2339692413806915  1.0000
  V   V2        1.0  0.41556501388549805  0.840368390083313  0.6699067950248718  1.0000
  V   V3        1.0  0.416450172662735  0.14424142241477966  0.1815718561410904  1.0000
  Zr  Zr1       1.0  0.4109823405742645  0.8909844160079956  0.5579599738121033  1.0000
