data_image0
_chemical_formula_structural       Al3AuS2V3
_chemical_formula_sum              "Al3 Au1 S2 V3"
_cell_length_a       5.322132539911594
_cell_length_b       5.577917987789767
_cell_length_c       6.226877212524414
_cell_angle_alpha    94.99550179431209
_cell_angle_beta     89.81072646586871
_cell_angle_gamma    89.89960703233385

_space_group_name_H-M_alt    "P 1"
_space_group_IT_number       1

loop_
  _space_group_symop_operation_xyz
  'x, y, z'

loop_
  _atom_site_type_symbol
  _atom_site_label
  _atom_site_symmetry_multiplicity
  _atom_site_fract_x
  _atom_site_fract_y
  _atom_site_fract_z
  _atom_site_occupancy
  Al  Al1       1.0  0.6381446123123169  0.9861987233161926  0.943512737751007  1.0000
  Al  Al2       1.0  0.6304845213890076  0.281936377286911  0.8514983654022216  1.0000
  Al  Al3       1.0  0.6422278881072998  0.7473531365394592  0.6159096360206604  1.0000
  Au  Au1       1.0  0.6369152665138245  0.4844176471233368  0.5370845794677734  1.0000
  S   S1        1.0  0.1324329823255539  0.03872081637382507  0.5474126935005188  1.0000
  S   S2        1.0  0.14425665140151978  0.008198042400181293  0.6310955882072449  1.0000
  V   V1        1.0  0.6331039071083069  0.4920215904712677  0.10313829779624938  1.0000
  V   V2        1.0  0.13003034889698029  0.4949268102645874  0.918541133403778  1.0000
  V   V3        1.0  0.133805051445961  0.6384842395782471  0.2932263910770416  1.0000
