data_image0
_chemical_formula_structural       Br3Ru2TlY2Yb2
_chemical_formula_sum              "Br3 Ru2 Tl1 Y2 Yb2"
_cell_length_a       4.496857394975915
_cell_length_b       6.878831999455432
_cell_length_c       8.791552543640137
_cell_angle_alpha    98.9549600649225
_cell_angle_beta     90.40661385555072
_cell_angle_gamma    89.81414100890316

_space_group_name_H-M_alt    "P 1"
_space_group_IT_number       1

loop_
  _space_group_symop_operation_xyz
  'x, y, z'

loop_
  _atom_site_type_symbol
  _atom_site_label
  _atom_site_symmetry_multiplicity
  _atom_site_fract_x
  _atom_site_fract_y
  _atom_site_fract_z
  _atom_site_occupancy
  Br  Br1       1.0  0.20817968249320984  0.7650776505470276  0.538705050945282  1.0000
  Br  Br2       1.0  0.13485665619373322  0.7559707760810852  0.836112916469574  1.0000
  Br  Br3       1.0  0.13971532881259918  0.4881006479263306  0.2564205527305603  1.0000
  Ru  Ru1       1.0  0.6498634219169617  0.5646883845329285  0.4958708584308624  1.0000
  Ru  Ru2       1.0  0.14330357313156128  0.5874903202056885  0.3853086531162262  1.0000
  Tl  Tl1       1.0  0.6625671982765198  0.6942833065986633  0.5415352582931519  1.0000
  Y   Y1        1.0  0.6570994257926941  0.09744470566511156  0.8179134130477905  1.0000
  Y   Y2        1.0  0.16088858246803284  0.5477383732795715  0.8212930560112  1.0000
  Yb  Yb1       1.0  0.6603638529777527  0.25246843695640564  0.5418462157249451  1.0000
  Yb  Yb2       1.0  0.6539379358291626  0.2554931640625  0.3267708718776703  1.0000
