data_image0
_chemical_formula_structural       BBrLa2Ru3Tl3
_chemical_formula_sum              "B1 Br1 La2 Ru3 Tl3"
_cell_length_a       5.870682548693552
_cell_length_b       6.7267853255149435
_cell_length_c       7.912264823913574
_cell_angle_alpha    115.00804921375436
_cell_angle_beta     113.00018065177265
_cell_angle_gamma    88.62690039664793

_space_group_name_H-M_alt    "P 1"
_space_group_IT_number       1

loop_
  _space_group_symop_operation_xyz
  'x, y, z'

loop_
  _atom_site_type_symbol
  _atom_site_label
  _atom_site_symmetry_multiplicity
  _atom_site_fract_x
  _atom_site_fract_y
  _atom_site_fract_z
  _atom_site_occupancy
  B   B1        1.0  0.6303990483283997  0.9596498012542725  0.24033002555370328  1.0000
  Br  Br1       1.0  0.6434162855148315  0.7212284207344055  0.5218286514282227  1.0000
  La  La1       1.0  0.9633044004440308  0.80823814868927  0.5359911322593689  1.0000
  La  La2       1.0  0.621031641960144  0.20281291007995605  0.2774806618690491  1.0000
  Ru  Ru1       1.0  0.7985750436782837  0.02445196360349655  0.9640438556671141  1.0000
  Ru  Ru2       1.0  0.3429017663002014  0.58303302526474  0.6499179005622864  1.0000
  Ru  Ru3       1.0  0.504516065120697  0.44208481907844543  0.10220029205083846  1.0000
  Tl  Tl1       1.0  0.12045212090015411  0.6334424018859863  0.26465216279029846  1.0000
  Tl  Tl2       1.0  0.41306963562965393  0.19390250742435455  0.7670623064041137  1.0000
  Tl  Tl3       1.0  0.12872929871082306  0.2254759520292282  0.03759714588522911  1.0000
