data_image0
_chemical_formula_structural       BBr4IrP2RuZr
_chemical_formula_sum              "B1 Br4 Ir1 P2 Ru1 Zr1"
_cell_length_a       6.224591867588269
_cell_length_b       7.296528005192808
_cell_length_c       7.1677727699279785
_cell_angle_alpha    111.36871559662909
_cell_angle_beta     107.07246854800641
_cell_angle_gamma    106.9999988012363

_space_group_name_H-M_alt    "P 1"
_space_group_IT_number       1

loop_
  _space_group_symop_operation_xyz
  'x, y, z'

loop_
  _atom_site_type_symbol
  _atom_site_label
  _atom_site_symmetry_multiplicity
  _atom_site_fract_x
  _atom_site_fract_y
  _atom_site_fract_z
  _atom_site_occupancy
  B   B1        1.0  0.607519268989563  0.8616630434989929  0.3693148791790008  1.0000
  Br  Br1       1.0  0.36829352378845215  0.14560669660568237  0.8165668845176697  1.0000
  Br  Br2       1.0  0.49724024534225464  0.6154582500457764  0.06843277812004082  1.0000
  Br  Br3       1.0  0.771695613861084  0.59803706407547  0.9222426414489746  1.0000
  Br  Br4       1.0  0.8692043423652649  0.8599982261657715  0.0779883265495299  1.0000
  Ir  Ir1       1.0  0.005887741222977638  0.751142144203186  0.364246755838394  1.0000
  P   P1        1.0  0.3804325759410858  0.8781598210334778  0.7305147051811217  1.0000
  P   P2        1.0  0.27261269092559814  0.31601059436798096  0.01742243394255635  1.0000
  Ru  Ru1       1.0  0.5698187351226807  0.16270817816257477  0.10420443862676616  1.0000
  Zr  Zr1       1.0  0.27969807386398315  0.46183615922927856  0.3368313014507293  1.0000
