data_image0
_chemical_formula_structural       AgBrOs5Y3
_chemical_formula_sum              "Ag1 Br1 Os5 Y3"
_cell_length_a       5.134151056977645
_cell_length_b       7.13349020986492
_cell_length_c       7.4809136390686035
_cell_angle_alpha    121.42670625206424
_cell_angle_beta     89.45106277052611
_cell_angle_gamma    89.54966135992616

_space_group_name_H-M_alt    "P 1"
_space_group_IT_number       1

loop_
  _space_group_symop_operation_xyz
  'x, y, z'

loop_
  _atom_site_type_symbol
  _atom_site_label
  _atom_site_symmetry_multiplicity
  _atom_site_fract_x
  _atom_site_fract_y
  _atom_site_fract_z
  _atom_site_occupancy
  Ag  Ag1       1.0  0.5652701258659363  0.1361021250486374  0.41465041041374207  1.0000
  Br  Br1       1.0  0.10690619051456451  0.9616729021072388  0.005254372488707393  1.0000
  Os  Os1       1.0  0.6304846405982971  0.9249553680419922  0.7928389310836792  1.0000
  Os  Os2       1.0  0.6445827484130859  0.6778974533081055  0.9137025475502014  1.0000
  Os  Os3       1.0  0.3596939444541931  0.4592878818511963  0.07076071202754977  1.0000
  Os  Os4       1.0  0.12625959515571594  0.44629010558128357  0.2022941261529923  1.0000
  Os  Os5       1.0  0.08209715038537979  0.2583387792110443  0.5713116526603699  1.0000
  Y   Y1        1.0  0.6341647505760193  0.26822713017463684  0.45556434988975525  1.0000
  Y   Y2        1.0  0.12458588927984238  0.680840015411377  0.132009968161583  1.0000
  Y   Y3        1.0  0.12036093324422836  0.9436169862747192  0.5677534341812134  1.0000
