data_image0
_chemical_formula_structural       AgBrGeOs3TlY3
_chemical_formula_sum              "Ag1 Br1 Ge1 Os3 Tl1 Y3"
_cell_length_a       4.803033837849644
_cell_length_b       7.8521545592065625
_cell_length_c       7.873315811157227
_cell_angle_alpha    124.96252434615124
_cell_angle_beta     90.00352972840804
_cell_angle_gamma    87.69474886779099

_space_group_name_H-M_alt    "P 1"
_space_group_IT_number       1

loop_
  _space_group_symop_operation_xyz
  'x, y, z'

loop_
  _atom_site_type_symbol
  _atom_site_label
  _atom_site_symmetry_multiplicity
  _atom_site_fract_x
  _atom_site_fract_y
  _atom_site_fract_z
  _atom_site_occupancy
  Ag  Ag1       1.0  0.9655246138572693  0.6211159825325012  0.7556460499763489  1.0000
  Br  Br1       1.0  0.9683403372764587  0.9934148192405701  0.9549013376235962  1.0000
  Ge  Ge1       1.0  0.9475539326667786  0.3069711923599243  0.4986620545387268  1.0000
  Os  Os1       1.0  0.9488803744316101  0.3624017536640167  0.629966676235199  1.0000
  Os  Os2       1.0  0.4627915918827057  0.9564275145530701  0.1439497470855713  1.0000
  Os  Os3       1.0  0.44378969073295593  0.8113037943840027  0.4675784111022949  1.0000
  Tl  Tl1       1.0  0.44469407200813293  0.810251772403717  0.40038132667541504  1.0000
  Y   Y1        1.0  0.4757549464702606  0.2544322907924652  0.7069615721702576  1.0000
  Y   Y2        1.0  0.9608879685401917  0.2779551148414612  0.5570539236068726  1.0000
  Y   Y3        1.0  0.4645911157131195  0.2961917519569397  0.49295610189437866  1.0000
