data_image0
_chemical_formula_structural       I3KO2PV2
_chemical_formula_sum              "I3 K1 O2 P1 V2"
_cell_length_a       6.035517393849197
_cell_length_b       6.336035670470949
_cell_length_c       8.539490699768066
_cell_angle_alpha    91.24586144900627
_cell_angle_beta     90.06590526983099
_cell_angle_gamma    104.55077456250115

_space_group_name_H-M_alt    "P 1"
_space_group_IT_number       1

loop_
  _space_group_symop_operation_xyz
  'x, y, z'

loop_
  _atom_site_type_symbol
  _atom_site_label
  _atom_site_symmetry_multiplicity
  _atom_site_fract_x
  _atom_site_fract_y
  _atom_site_fract_z
  _atom_site_occupancy
  I   I1        1.0  0.8282954096794128  0.6980529427528381  0.027108654379844666  1.0000
  I   I2        1.0  0.7632803320884705  0.4749939441680908  0.33856192231178284  1.0000
  I   I3        1.0  0.8346979022026062  0.47780025005340576  0.7008011937141418  1.0000
  K   K1        1.0  0.34183329343795776  0.01918025128543377  0.5172620415687561  1.0000
  O   O1        1.0  0.46489083766937256  0.5786855220794678  0.45991963148117065  1.0000
  O   O2        1.0  0.48377859592437744  0.9877933263778687  0.9995886087417604  1.0000
  P   P1        1.0  0.27793869376182556  0.15729863941669464  0.1943991631269455  1.0000
  V   V1        1.0  0.10149827599525452  0.032979048788547516  0.30856579542160034  1.0000
  V   V2        1.0  0.6065499186515808  0.21830430626869202  0.878850519657135  1.0000
