data_image0
_chemical_formula_structural       Bi3O6
_chemical_formula_sum              "Bi3 O6"
_cell_length_a       4.365640984994444
_cell_length_b       3.439006884079807
_cell_length_c       16.52427101135254
_cell_angle_alpha    97.86945091514676
_cell_angle_beta     88.93730907445125
_cell_angle_gamma    106.53241243313725

_space_group_name_H-M_alt    "P 1"
_space_group_IT_number       1

loop_
  _space_group_symop_operation_xyz
  'x, y, z'

loop_
  _atom_site_type_symbol
  _atom_site_label
  _atom_site_symmetry_multiplicity
  _atom_site_fract_x
  _atom_site_fract_y
  _atom_site_fract_z
  _atom_site_occupancy
  Bi  Bi1       1.0  0.8375000953674316  0.7418336272239685  0.6553933620452881  1.0000
  Bi  Bi2       1.0  0.32308998703956604  0.6563076376914978  0.5907958745956421  1.0000
  Bi  Bi3       1.0  0.8107209801673889  0.44988822937011713  0.42620009183883667  1.0000
  O   O1        1.0  0.5677186846733093  0.6061581373214722  0.17141461372375488  1.0000
  O   O2        1.0  0.3018265664577484  0.8541592955589294  0.4526543617248535  1.0000
  O   O3        1.0  0.10402464866638184  0.8080042004585266  0.05568220466375351  1.0000
  O   O4        1.0  0.5487785339355469  0.11556312441825865  0.9766709804534912  1.0000
  O   O5        1.0  0.5649989247322083  0.7266369462013245  0.5712050795555115  1.0000
  O   O6        1.0  0.05206627398729324  0.4004387855529785  0.8491323590278625  1.0000
