data_image0
_chemical_formula_structural       K5O4
_chemical_formula_sum              "K5 O4"
_cell_length_a       5.404843869961844
_cell_length_b       5.122642700006481
_cell_length_c       11.253509521484375
_cell_angle_alpha    90.25749265874767
_cell_angle_beta     90.40711294138843
_cell_angle_gamma    120.13124926290041

_space_group_name_H-M_alt    "P 1"
_space_group_IT_number       1

loop_
  _space_group_symop_operation_xyz
  'x, y, z'

loop_
  _atom_site_type_symbol
  _atom_site_label
  _atom_site_symmetry_multiplicity
  _atom_site_fract_x
  _atom_site_fract_y
  _atom_site_fract_z
  _atom_site_occupancy
  K   K1        1.0  0.5010187029838562  0.06727392971515656  0.31255581974983215  1.0000
  K   K2        1.0  0.2915410101413727  0.49396777153015137  0.36829090118408203  1.0000
  K   K3        1.0  0.08156927675008774  0.8144409656524658  0.9657556414604187  1.0000
  K   K4        1.0  0.592676043510437  0.45170602202415466  0.3988906443119049  1.0000
  K   K5        1.0  0.8117538690567017  0.8494789600372314  0.15717676281929016  1.0000
  O   O1        1.0  0.672191858291626  0.5752349495887756  0.633269727230072  1.0000
  O   O2        1.0  0.643986165523529  0.15744774043560028  0.20561350882053375  1.0000
  O   O3        1.0  0.2727731168270111  0.3776678442955017  0.17216841876506805  1.0000
  O   O4        1.0  0.5021530389785767  0.7799001932144165  0.37593209743499756  1.0000
