data_image0
_chemical_formula_structural       CCsIK3O2V
_chemical_formula_sum              "C1 Cs1 I1 K3 O2 V1"
_cell_length_a       6.2172443629170555
_cell_length_b       6.8728625296095505
_cell_length_c       8.665983200073242
_cell_angle_alpha    106.32823437018259
_cell_angle_beta     90.04733828494633
_cell_angle_gamma    113.5467809895144

_space_group_name_H-M_alt    "P 1"
_space_group_IT_number       1

loop_
  _space_group_symop_operation_xyz
  'x, y, z'

loop_
  _atom_site_type_symbol
  _atom_site_label
  _atom_site_symmetry_multiplicity
  _atom_site_fract_x
  _atom_site_fract_y
  _atom_site_fract_z
  _atom_site_occupancy
  C   C1        1.0  0.5552927851676941  0.9951425194740295  0.027074566110968565  1.0000
  Cs  Cs1       1.0  0.03207460790872574  0.9529502391815186  0.4551026821136474  1.0000
  I   I1        1.0  0.06864194571971893  0.584105372428894  0.29336264729499817  1.0000
  K   K1        1.0  0.3499954044818878  0.7085911631584167  0.17638683319091794  1.0000
  K   K2        1.0  0.772233247756958  0.20420044660568237  0.27805605530738825  1.0000
  K   K3        1.0  0.08117274940013885  0.8949275016784668  0.7263523936271667  1.0000
  O   O1        1.0  0.3314761817455292  0.5488470792770386  0.18539635837078094  1.0000
  O   O2        1.0  0.7145054340362549  0.18586154282093048  0.1416042447090149  1.0000
  V   V1        1.0  0.8122236728668213  0.7887773513793945  0.0784347057342529  1.0000
