data_image0
_chemical_formula_structural       GaO2P4SeZr
_chemical_formula_sum              "Ga1 O2 P4 Se1 Zr1"
_cell_length_a       4.893832034738657
_cell_length_b       6.0072033252437205
_cell_length_c       6.432322025299072
_cell_angle_alpha    53.46654687503895
_cell_angle_beta     58.751579146709034
_cell_angle_gamma    63.89565953724565

_space_group_name_H-M_alt    "P 1"
_space_group_IT_number       1

loop_
  _space_group_symop_operation_xyz
  'x, y, z'

loop_
  _atom_site_type_symbol
  _atom_site_label
  _atom_site_symmetry_multiplicity
  _atom_site_fract_x
  _atom_site_fract_y
  _atom_site_fract_z
  _atom_site_occupancy
  Ga  Ga1       1.0  0.6900059580802917  0.10172298550605774  0.7847157716751099  1.0000
  O   O1        1.0  0.32240039110183716  0.3706909418106079  0.0032210033386945724  1.0000
  O   O2        1.0  0.0635734349489212  0.9452894926071167  0.7602900862693787  1.0000
  P   P1        1.0  0.7550134658813477  0.4967973232269287  0.3761367201805115  1.0000
  P   P2        1.0  0.4353713095188141  0.7353788614273071  0.2432488054037094  1.0000
  P   P3        1.0  0.20200273394584656  0.03604082390666008  0.13645465672016147  1.0000
  P   P4        1.0  0.08642951399087906  0.19162970781326294  0.17170317471027374  1.0000
  Se  Se1       1.0  0.01371834333986044  0.3420294225215912  0.6642646789550781  1.0000
  Zr  Zr1       1.0  0.01355152390897274  0.22723035514354706  0.8723059296607971  1.0000
