data_image0
_chemical_formula_structural       Ba2IO3P3
_chemical_formula_sum              "Ba2 I1 O3 P3"
_cell_length_a       5.473805179117736
_cell_length_b       4.5150320784857785
_cell_length_c       10.09054946899414
_cell_angle_alpha    68.22372399205994
_cell_angle_beta     73.75451827986622
_cell_angle_gamma    42.14760982187552

_space_group_name_H-M_alt    "P 1"
_space_group_IT_number       1

loop_
  _space_group_symop_operation_xyz
  'x, y, z'

loop_
  _atom_site_type_symbol
  _atom_site_label
  _atom_site_symmetry_multiplicity
  _atom_site_fract_x
  _atom_site_fract_y
  _atom_site_fract_z
  _atom_site_occupancy
  Ba  Ba1       1.0  0.7100510001182556  0.40569061040878296  0.1584547907114029  1.0000
  Ba  Ba2       1.0  0.2866098880767822  0.2536759376525879  0.413631409406662  1.0000
  I   I1        1.0  0.05041849985718727  0.4546072781085968  0.34718185663223267  1.0000
  O   O1        1.0  0.7257925271987915  0.06680461764335632  0.5943247079849243  1.0000
  O   O2        1.0  0.7245053052902222  0.9743063449859619  0.8374587893486023  1.0000
  O   O3        1.0  0.14922837913036346  0.738554835319519  0.11659947782754898  1.0000
  P   P1        1.0  0.9078794717788696  0.6654719710350037  0.7927258014678955  1.0000
  P   P2        1.0  0.2838844358921051  0.4139842987060547  0.33637237548828125  1.0000
  P   P3        1.0  0.46551525592803955  0.9591476917266846  0.7578648924827576  1.0000
