data_image0
_chemical_formula_structural       Ba5O3P
_chemical_formula_sum              "Ba5 O3 P1"
_cell_length_a       6.085891332058364
_cell_length_b       5.831659862605621
_cell_length_c       7.10350227355957
_cell_angle_alpha    112.80185995225804
_cell_angle_beta     113.1672654148131
_cell_angle_gamma    102.6061616904423

_space_group_name_H-M_alt    "P 1"
_space_group_IT_number       1

loop_
  _space_group_symop_operation_xyz
  'x, y, z'

loop_
  _atom_site_type_symbol
  _atom_site_label
  _atom_site_symmetry_multiplicity
  _atom_site_fract_x
  _atom_site_fract_y
  _atom_site_fract_z
  _atom_site_occupancy
  Ba  Ba1       1.0  0.5759763717651367  0.6160849332809448  0.5134209394454956  1.0000
  Ba  Ba2       1.0  0.5963671207427979  0.9317267537117004  0.2786490023136139  1.0000
  Ba  Ba3       1.0  0.07965771853923798  0.34351664781570435  0.6293367743492126  1.0000
  Ba  Ba4       1.0  0.10192684084177019  0.027725113555788994  0.7701668739318848  1.0000
  Ba  Ba5       1.0  0.06753663718700409  0.1887344866991043  0.22148700058460236  1.0000
  O   O1        1.0  0.6677021980285645  0.08636412769556046  0.39304932951927185  1.0000
  O   O2        1.0  0.8341693878173829  0.7079080939292908  0.33182165026664734  1.0000
  O   O3        1.0  0.0874997228384018  0.011837463825941086  0.3337191343307495  1.0000
  P   P1        1.0  0.5716565251350403  0.6792631149291992  0.33628910779953003  1.0000
