data_image0
_chemical_formula_structural       IO4P3Pb
_chemical_formula_sum              "I1 O4 P3 Pb1"
_cell_length_a       5.920196502493724
_cell_length_b       5.972333196506932
_cell_length_c       6.624223709106445
_cell_angle_alpha    63.73589057459795
_cell_angle_beta     61.740283670298986
_cell_angle_gamma    57.84330452477296

_space_group_name_H-M_alt    "P 1"
_space_group_IT_number       1

loop_
  _space_group_symop_operation_xyz
  'x, y, z'

loop_
  _atom_site_type_symbol
  _atom_site_label
  _atom_site_symmetry_multiplicity
  _atom_site_fract_x
  _atom_site_fract_y
  _atom_site_fract_z
  _atom_site_occupancy
  I   I1        1.0  0.691611111164093  0.46150654554367065  0.7371582984924316  1.0000
  O   O1        1.0  0.6249147653579712  0.9665442705154419  0.7761414051055908  1.0000
  O   O2        1.0  0.49053463339805603  0.7924597263336182  0.04774019867181778  1.0000
  O   O3        1.0  0.16732749342918396  0.7871735095977783  0.35954412817955017  1.0000
  O   O4        1.0  0.11567104607820511  0.08114364743232727  0.24147658050060272  1.0000
  P   P1        1.0  0.2591627836227417  0.7221499681472778  0.9088017344474792  1.0000
  P   P2        1.0  0.438913494348526  0.6737828254699707  0.7732807397842407  1.0000
  P   P3        1.0  0.6522551774978638  0.4377442002296448  0.47270581126213074  1.0000
  Pb  Pb1       1.0  0.18506139516830444  0.07867992669343948  0.8864210844039917  1.0000
