data_image0
_chemical_formula_structural       ILuO3P4
_chemical_formula_sum              "I1 Lu1 O3 P4"
_cell_length_a       4.532849006243479
_cell_length_b       4.8714012944305285
_cell_length_c       8.681324005126953
_cell_angle_alpha    82.60173593774496
_cell_angle_beta     76.71500104151318
_cell_angle_gamma    65.66167407313185

_space_group_name_H-M_alt    "P 1"
_space_group_IT_number       1

loop_
  _space_group_symop_operation_xyz
  'x, y, z'

loop_
  _atom_site_type_symbol
  _atom_site_label
  _atom_site_symmetry_multiplicity
  _atom_site_fract_x
  _atom_site_fract_y
  _atom_site_fract_z
  _atom_site_occupancy
  I   I1        1.0  0.023460280150175095  0.29047876596450806  0.906273066997528  1.0000
  Lu  Lu1       1.0  0.7121665477752686  0.7519028186798096  0.3554193079471588  1.0000
  O   O1        1.0  0.2869184911251068  0.3982255160808563  0.07041370868682861  1.0000
  O   O2        1.0  0.2636282444000244  0.031535759568214417  0.5858359336853027  1.0000
  O   O3        1.0  0.7077258825302124  0.24768301844596863  0.7490180730819702  1.0000
  P   P1        1.0  0.6690472960472107  0.13324134051799774  0.39740198850631714  1.0000
  P   P2        1.0  0.24083389341831207  0.921520471572876  0.0670083686709404  1.0000
  P   P3        1.0  0.20659734308719635  0.07547187805175781  0.09099573642015457  1.0000
  P   P4        1.0  0.7406353950500488  0.33108776807785034  0.07747153937816621  1.0000
