data_image0
_chemical_formula_structural       CoCu4KNiSe7
_chemical_formula_sum              "Co1 Cu4 K1 Ni1 Se7"
_cell_length_a       5.893171796628624
_cell_length_b       6.698626842151395
_cell_length_c       10.633008003234863
_cell_angle_alpha    91.63544619875084
_cell_angle_beta     89.69247345470693
_cell_angle_gamma    115.26793042500786

_space_group_name_H-M_alt    "P 1"
_space_group_IT_number       1

loop_
  _space_group_symop_operation_xyz
  'x, y, z'

loop_
  _atom_site_type_symbol
  _atom_site_label
  _atom_site_symmetry_multiplicity
  _atom_site_fract_x
  _atom_site_fract_y
  _atom_site_fract_z
  _atom_site_occupancy
  Co  Co1       1.0  0.7653006911277771  0.6867923736572266  0.902350902557373  1.0000
  Cu  Cu1       1.0  0.06526772677898407  0.7685760855674744  0.7115695476531982  1.0000
  Cu  Cu2       1.0  0.4301851689815521  0.7091637849807739  0.5256725549697876  1.0000
  Cu  Cu3       1.0  0.2583407759666443  0.19649964570999146  0.19785360991954803  1.0000
  Cu  Cu4       1.0  0.7822403907775879  0.7179265022277832  0.188345268368721  1.0000
  K   K1        1.0  0.9140710830688477  0.45204487442970276  0.6658371090888977  1.0000
  Ni  Ni1       1.0  0.892160177230835  0.9572072625160217  0.3638420104980469  1.0000
  Se  Se1       1.0  0.9031775593757629  0.9553671479225159  0.10801722854375839  1.0000
  Se  Se2       1.0  0.6159994602203369  0.45873045921325684  0.2978847026824951  1.0000
  Se  Se3       1.0  0.3575594425201416  0.9564340114593506  0.1817094087600708  1.0000
  Se  Se4       1.0  0.5798142552375793  0.33449357748031616  0.9496889710426331  1.0000
  Se  Se5       1.0  0.5522451400756836  0.7579391598701477  0.15865063667297363  1.0000
  Se  Se6       1.0  0.09094671159982681  0.9667353630065918  0.9765642285346985  1.0000
  Se  Se7       1.0  0.8671543598175049  0.4481833279132843  0.7518907189369202  1.0000
