data_image0
_chemical_formula_structural       Cu3HfKNiSe8
_chemical_formula_sum              "Cu3 Hf1 K1 Ni1 Se8"
_cell_length_a       4.879296034535598
_cell_length_b       5.985723197816238
_cell_length_c       12.365668296813965
_cell_angle_alpha    82.4794672408925
_cell_angle_beta     79.51210736041037
_cell_angle_gamma    63.41486597044369

_space_group_name_H-M_alt    "P 1"
_space_group_IT_number       1

loop_
  _space_group_symop_operation_xyz
  'x, y, z'

loop_
  _atom_site_type_symbol
  _atom_site_label
  _atom_site_symmetry_multiplicity
  _atom_site_fract_x
  _atom_site_fract_y
  _atom_site_fract_z
  _atom_site_occupancy
  Cu  Cu1       1.0  0.674665927886963  0.9559372067451476  0.8437704443931581  1.0000
  Cu  Cu2       1.0  0.18243524432182318  0.4664908647537231  0.33039402961730957  1.0000
  Cu  Cu3       1.0  0.22693607211112976  0.24054038524627683  0.07257119566202164  1.0000
  Hf  Hf1       1.0  0.7131687998771669  0.9845104217529296  0.4060726463794709  1.0000
  K   K1        1.0  0.5698010325431824  0.7250135540962219  0.11405526846647264  1.0000
  Ni  Ni1       1.0  0.23460856080055242  0.48262003064155573  0.4185456335544587  1.0000
  Se  Se1       1.0  0.9638921618461609  0.11004820466041565  0.1327124536037445  1.0000
  Se  Se2       1.0  0.19857244193553925  0.25586986541748047  0.6037610769271851  1.0000
  Se  Se3       1.0  0.2427320033311844  0.38410207629203796  0.8505108952522279  1.0000
  Se  Se4       1.0  0.7057178020477295  0.10434839874505997  0.5774646401405334  1.0000
  Se  Se5       1.0  0.7726809978485107  0.23062960803508756  0.5505326390266418  1.0000
  Se  Se6       1.0  0.45911258459091187  0.7300379276275635  0.217426672577858  1.0000
  Se  Se7       1.0  0.33400920033454895  0.07035157829523087  0.7475792765617372  1.0000
  Se  Se8       1.0  0.18661195039749154  0.9836326837539672  0.5137398838996887  1.0000
