data_image0
_chemical_formula_structural       CoCu2IrLuSe8Si
_chemical_formula_sum              "Co1 Cu2 Ir1 Lu1 Se8 Si1"
_cell_length_a       4.3030069512438045
_cell_length_b       6.826883263669828
_cell_length_c       11.32668685913086
_cell_angle_alpha    81.5302014056079
_cell_angle_beta     81.72595820461692
_cell_angle_gamma    68.38018882063669

_space_group_name_H-M_alt    "P 1"
_space_group_IT_number       1

loop_
  _space_group_symop_operation_xyz
  'x, y, z'

loop_
  _atom_site_type_symbol
  _atom_site_label
  _atom_site_symmetry_multiplicity
  _atom_site_fract_x
  _atom_site_fract_y
  _atom_site_fract_z
  _atom_site_occupancy
  Co  Co1       1.0  0.9902967810630798  0.15529361367225647  0.14909674227237701  1.0000
  Cu  Cu1       1.0  0.47657299041748047  0.19908758997917175  0.004838054999709129  1.0000
  Cu  Cu2       1.0  0.2514398694038391  0.024482566863298416  0.3279820680618286  1.0000
  Ir  Ir1       1.0  0.008835319429636002  0.4749535024166107  0.662935197353363  1.0000
  Lu  Lu1       1.0  0.39913132786750793  0.23377302289009094  0.9049534797668457  1.0000
  Se  Se1       1.0  0.5829442143440247  0.24161022901535034  0.36616992950439453  1.0000
  Se  Se2       1.0  0.022483112290501595  0.5023810863494873  0.7993873953819275  1.0000
  Se  Se3       1.0  0.9449867010116577  0.07491162419319153  0.06822372227907181  1.0000
  Se  Se4       1.0  0.9320191144943237  0.4203650653362274  0.8429235816001892  1.0000
  Se  Se5       1.0  0.5067368745803833  0.00046539306640625  0.28353074193000793  1.0000
  Se  Se6       1.0  0.4435615539550781  0.6125417947769165  0.02743193507194519  1.0000
  Se  Se7       1.0  0.939218282699585  0.6404849886894226  0.05727200210094452  1.0000
  Se  Se8       1.0  0.5272597670555115  0.8013614416122437  0.625967800617218  1.0000
  Si  Si1       1.0  0.016324827447533607  0.5410590767860413  0.2888743579387665  1.0000
