data_image0
_chemical_formula_structural       Cu4K3Se7
_chemical_formula_sum              "Cu4 K3 Se7"
_cell_length_a       5.919016035958008
_cell_length_b       7.058920297224545
_cell_length_c       10.08951187133789
_cell_angle_alpha    84.27253749942184
_cell_angle_beta     84.97734121770681
_cell_angle_gamma    68.48905697375031

_space_group_name_H-M_alt    "P 1"
_space_group_IT_number       1

loop_
  _space_group_symop_operation_xyz
  'x, y, z'

loop_
  _atom_site_type_symbol
  _atom_site_label
  _atom_site_symmetry_multiplicity
  _atom_site_fract_x
  _atom_site_fract_y
  _atom_site_fract_z
  _atom_site_occupancy
  Cu  Cu1       1.0  0.4551240503787994  0.7943958044052124  0.8189013600349426  1.0000
  Cu  Cu2       1.0  0.6887193322181702  0.6101739406585693  0.27612343430519104  1.0000
  Cu  Cu3       1.0  0.545316219329834  0.9079961180686951  0.7069629430770874  1.0000
  Cu  Cu4       1.0  0.9697901010513305  0.8059539794921875  0.4876186549663543  1.0000
  K   K1        1.0  0.7875013947486877  0.08444756269454956  0.4641644656658172  1.0000
  K   K2        1.0  0.20257970690727234  0.07040336728096008  0.24052196741104123  1.0000
  K   K3        1.0  0.5645363926887512  0.5526980757713318  0.8957203030586242  1.0000
  Se  Se1       1.0  0.2279387414455414  0.4832306504249572  0.2324266731739044  1.0000
  Se  Se2       1.0  0.3978694677352905  0.6102473139762878  0.10453633964061737  1.0000
  Se  Se3       1.0  0.8941158652305602  0.324349969625473  0.15721870958805084  1.0000
  Se  Se4       1.0  0.4215050041675568  0.9715476036071776  0.6446278095245361  1.0000
  Se  Se5       1.0  0.42569777369499207  0.219082310795784  0.2591741681098938  1.0000
  Se  Se6       1.0  0.6996880769729614  0.10731027275323868  0.33030468225479126  1.0000
  Se  Se7       1.0  0.8690518140792846  0.5683658123016357  0.8275740146636963  1.0000
