data_image0
_chemical_formula_structural       Cu5K2Se7
_chemical_formula_sum              "Cu5 K2 Se7"
_cell_length_a       5.097076177103831
_cell_length_b       6.6834178794692365
_cell_length_c       10.619046211242676
_cell_angle_alpha    83.17168111425669
_cell_angle_beta     84.11864021880653
_cell_angle_gamma    69.52313131421737

_space_group_name_H-M_alt    "P 1"
_space_group_IT_number       1

loop_
  _space_group_symop_operation_xyz
  'x, y, z'

loop_
  _atom_site_type_symbol
  _atom_site_label
  _atom_site_symmetry_multiplicity
  _atom_site_fract_x
  _atom_site_fract_y
  _atom_site_fract_z
  _atom_site_occupancy
  Cu  Cu1       1.0  0.9522930979728698  0.028404822573065758  0.38566160202026367  1.0000
  Cu  Cu2       1.0  0.14651314914226532  0.09703390300273895  0.10080568492412567  1.0000
  Cu  Cu3       1.0  0.609691321849823  0.8161333799362183  0.7192449569702148  1.0000
  Cu  Cu4       1.0  0.09265350550413132  0.8301301002502441  0.7950155138969421  1.0000
  Cu  Cu5       1.0  0.09777617454528809  0.32091841101646423  0.8000214695930481  1.0000
  K   K1        1.0  0.8092463612556458  0.5894370079040527  0.6109759211540222  1.0000
  K   K2        1.0  0.37667781114578247  0.07576846331357956  0.6076452136039734  1.0000
  Se  Se1       1.0  0.6524093747138977  0.6153638362884521  0.10426124185323715  1.0000
  Se  Se2       1.0  0.5685346126556396  0.2923855781555176  0.9290165305137633  1.0000
  Se  Se3       1.0  0.9947119951248168  0.2617868185043335  0.887528657913208  1.0000
  Se  Se4       1.0  0.3009915053844452  0.13794612884521484  0.17171451449394226  1.0000
  Se  Se5       1.0  0.05019242689013481  0.8255537152290344  0.21417687833309174  1.0000
  Se  Se6       1.0  0.12640893459320068  0.35290685296058655  0.3317430019378662  1.0000
  Se  Se7       1.0  0.3099605143070221  0.5664399862289429  0.6025504469871521  1.0000
