data_image0
_chemical_formula_structural       CoCu2Lu3NbSe7
_chemical_formula_sum              "Co1 Cu2 Lu3 Nb1 Se7"
_cell_length_a       4.869151312131768
_cell_length_b       7.198842532355628
_cell_length_c       10.47026252746582
_cell_angle_alpha    90.16219296116691
_cell_angle_beta     87.27515566995501
_cell_angle_gamma    89.79271743303376

_space_group_name_H-M_alt    "P 1"
_space_group_IT_number       1

loop_
  _space_group_symop_operation_xyz
  'x, y, z'

loop_
  _atom_site_type_symbol
  _atom_site_label
  _atom_site_symmetry_multiplicity
  _atom_site_fract_x
  _atom_site_fract_y
  _atom_site_fract_z
  _atom_site_occupancy
  Co  Co1       1.0  0.6641006469726562  0.4863089323043823  0.35039639472961426  1.0000
  Cu  Cu1       1.0  0.13879455626010895  0.932353675365448  0.6631205081939697  1.0000
  Cu  Cu2       1.0  0.1354050189256668  0.2958347797393799  0.16344815492630005  1.0000
  Lu  Lu1       1.0  0.6355724930763245  0.42764100432395935  0.36595359444618225  1.0000
  Lu  Lu2       1.0  0.6412132382392883  0.1546170562505722  0.34432387351989746  1.0000
  Lu  Lu3       1.0  0.13931185007095337  0.7117694020271301  0.7479290962219238  1.0000
  Nb  Nb1       1.0  0.13850532472133636  0.9631309509277344  0.05161320045590401  1.0000
  Se  Se1       1.0  0.15756221115589142  0.4437471628189087  0.5581385493278503  1.0000
  Se  Se2       1.0  0.6309999227523804  0.6378780007362366  0.725114107131958  1.0000
  Se  Se3       1.0  0.6363095641136169  0.7684380412101746  0.9655628204345703  1.0000
  Se  Se4       1.0  0.1666562706232071  0.7206456065177917  0.14526252448558805  1.0000
  Se  Se5       1.0  0.1550683081150055  0.2533723711967468  0.9069887399673462  1.0000
  Se  Se6       1.0  0.638431191444397  0.6375057697296143  0.4714280068874359  1.0000
  Se  Se7       1.0  0.6708458662033081  0.9914276003837585  0.30065128207206726  1.0000
