data_image0
_chemical_formula_structural       Mn4RhS4
_chemical_formula_sum              "Mn4 Rh1 S4"
_cell_length_a       6.497499541957831
_cell_length_b       6.746410298107435
_cell_length_c       6.821051597595215
_cell_angle_alpha    107.5207239932279
_cell_angle_beta     108.67965485329829
_cell_angle_gamma    113.55731788808895

_space_group_name_H-M_alt    "P 1"
_space_group_IT_number       1

loop_
  _space_group_symop_operation_xyz
  'x, y, z'

loop_
  _atom_site_type_symbol
  _atom_site_label
  _atom_site_symmetry_multiplicity
  _atom_site_fract_x
  _atom_site_fract_y
  _atom_site_fract_z
  _atom_site_occupancy
  Mn  Mn1       1.0  0.568349301815033  0.025407887995243073  0.7533004283905029  1.0000
  Mn  Mn2       1.0  0.061491068452596734  0.9270195960998536  0.26798155903816234  1.0000
  Mn  Mn3       1.0  0.6894485354423523  0.7969416975975037  0.4129114449024201  1.0000
  Mn  Mn4       1.0  0.871068000793457  0.7568036913871765  0.9414165019989014  1.0000
  Rh  Rh1       1.0  0.08327615261077881  0.44901639223098755  0.7557659149169922  1.0000
  S   S1        1.0  0.29847729206085205  0.7447370290756226  0.6866429448127747  1.0000
  S   S2        1.0  0.5650677680969238  0.41365858912467957  0.26140889525413513  1.0000
  S   S3        1.0  0.6964524388313293  0.7993969321250916  0.933443009853363  1.0000
  S   S4        1.0  0.12399038672447205  0.41760754585266113  0.26435691118240356  1.0000
