data_image0
_chemical_formula_structural       Mn7S2
_chemical_formula_sum              "Mn7 S2"
_cell_length_a       5.9304221346099775
_cell_length_b       6.055473773095161
_cell_length_c       7.113157749176025
_cell_angle_alpha    103.1264257785164
_cell_angle_beta     103.36487517475497
_cell_angle_gamma    118.90577924427134

_space_group_name_H-M_alt    "P 1"
_space_group_IT_number       1

loop_
  _space_group_symop_operation_xyz
  'x, y, z'

loop_
  _atom_site_type_symbol
  _atom_site_label
  _atom_site_symmetry_multiplicity
  _atom_site_fract_x
  _atom_site_fract_y
  _atom_site_fract_z
  _atom_site_occupancy
  Mn  Mn1       1.0  0.12219667434692383  0.3551851809024811  0.42470911145210266  1.0000
  Mn  Mn2       1.0  0.7130469679832458  0.48306801915168757  0.09055805951356888  1.0000
  Mn  Mn3       1.0  0.6552062034606934  0.3587947487831116  0.5755818486213684  1.0000
  Mn  Mn4       1.0  0.4007830321788788  0.11871353536844252  0.5632411241531372  1.0000
  Mn  Mn5       1.0  0.4793519973754883  0.03131713718175888  0.08436127007007597  1.0000
  Mn  Mn6       1.0  0.0742412805557251  0.6852049827575684  0.742805004119873  1.0000
  Mn  Mn7       1.0  0.08074639737606049  0.01672011986374855  0.8334444761276245  1.0000
  S   S1        1.0  0.14809614419937125  0.8588004708290099  0.9282625317573547  1.0000
  S   S2        1.0  0.5975341796875  0.6880934238433838  0.3732260167598724  1.0000
