data_image0
_chemical_formula_structural       Mn6RhS2
_chemical_formula_sum              "Mn6 Rh1 S2"
_cell_length_a       6.0790897191778965
_cell_length_b       6.26163217490747
_cell_length_c       6.589041233062744
_cell_angle_alpha    107.10608616669396
_cell_angle_beta     108.92409262928112
_cell_angle_gamma    108.54954312007273

_space_group_name_H-M_alt    "P 1"
_space_group_IT_number       1

loop_
  _space_group_symop_operation_xyz
  'x, y, z'

loop_
  _atom_site_type_symbol
  _atom_site_label
  _atom_site_symmetry_multiplicity
  _atom_site_fract_x
  _atom_site_fract_y
  _atom_site_fract_z
  _atom_site_occupancy
  Mn  Mn1       1.0  0.8715277910232544  0.6524818539619446  0.7217162847518921  1.0000
  Mn  Mn2       1.0  0.36790475249290466  0.7169249653816223  0.9693931937217712  1.0000
  Mn  Mn3       1.0  0.3830124735832215  0.9704170227050782  0.974492609500885  1.0000
  Mn  Mn4       1.0  0.11649410426616669  0.1566878855228424  0.22992992401123047  1.0000
  Mn  Mn5       1.0  0.8665140867233276  0.7358156442642212  0.47325053811073303  1.0000
  Mn  Mn6       1.0  0.133386492729187  0.4165310859680176  0.22287735342979434  1.0000
  Rh  Rh1       1.0  0.3776597678661347  0.9681003093719484  0.6538293361663818  1.0000
  S   S1        1.0  0.2462175190448761  0.4084993004798889  0.4514474868774414  1.0000
  S   S2        1.0  0.7311885952949524  0.23457419872283938  0.9647080898284912  1.0000
