data_image0
_chemical_formula_structural       Mn5S4
_chemical_formula_sum              "Mn5 S4"
_cell_length_a       4.652060997280861
_cell_length_b       5.463539151052745
_cell_length_c       7.155422687530518
_cell_angle_alpha    92.61995526954921
_cell_angle_beta     90.86470093514254
_cell_angle_gamma    90.9771969037412

_space_group_name_H-M_alt    "P 1"
_space_group_IT_number       1

loop_
  _space_group_symop_operation_xyz
  'x, y, z'

loop_
  _atom_site_type_symbol
  _atom_site_label
  _atom_site_symmetry_multiplicity
  _atom_site_fract_x
  _atom_site_fract_y
  _atom_site_fract_z
  _atom_site_occupancy
  Mn  Mn1       1.0  0.4336329698562622  0.07364357262849808  0.7678362131118773  1.0000
  Mn  Mn2       1.0  0.9140129685401917  0.2950238883495331  0.41332569718360895  1.0000
  Mn  Mn3       1.0  0.42109444737434387  0.214796781539917  0.4137160181999206  1.0000
  Mn  Mn4       1.0  0.9145304560661316  0.7047826051712036  0.8794096708297728  1.0000
  Mn  Mn5       1.0  0.4014646112918854  0.5043127536773682  0.8553041219711303  1.0000
  S   S1        1.0  0.40809014439582825  0.9959449768066406  0.36941745877265925  1.0000
  S   S2        1.0  0.9156193733215332  0.7940535545349121  0.25357529520988464  1.0000
  S   S3        1.0  0.9093062281608582  0.8460038900375366  0.9299227595329284  1.0000
  S   S4        1.0  0.41612112522125244  0.36738890409469604  0.12804271280765533  1.0000
