data_image0
_chemical_formula_structural       BCsEu3RuSb4
_chemical_formula_sum              "B1 Cs1 Eu3 Ru1 Sb4"
_cell_length_a       5.366395992279745
_cell_length_b       7.659538372322323
_cell_length_c       7.6284499168396
_cell_angle_alpha    118.9354954877558
_cell_angle_beta     88.84866634862968
_cell_angle_gamma    89.81545645378436

_space_group_name_H-M_alt    "P 1"
_space_group_IT_number       1

loop_
  _space_group_symop_operation_xyz
  'x, y, z'

loop_
  _atom_site_type_symbol
  _atom_site_label
  _atom_site_symmetry_multiplicity
  _atom_site_fract_x
  _atom_site_fract_y
  _atom_site_fract_z
  _atom_site_occupancy
  B   B1        1.0  0.9586393237113953  0.028598031029105186  0.6819592714309692  1.0000
  Cs  Cs1       1.0  0.4558957815170288  0.5443121194839478  0.2297482788562775  1.0000
  Eu  Eu1       1.0  0.47141215205192566  0.8849073648452759  0.09537120908498765  1.0000
  Eu  Eu2       1.0  0.4645518660545349  0.9143266677856445  0.34153115749359125  1.0000
  Eu  Eu3       1.0  0.9705490469932556  0.9027339816093445  0.46398690342903137  1.0000
  Ru  Ru1       1.0  0.9763942360877991  0.5485969185829163  0.5295931696891785  1.0000
  Sb  Sb1       1.0  0.9688733220100403  0.8916099071502686  0.7436253428459169  1.0000
  Sb  Sb2       1.0  0.9693607687950134  0.40450966358184814  0.12470437586307527  1.0000
  Sb  Sb3       1.0  0.9643948078155518  0.8964061737060547  0.9088221788406373  1.0000
  Sb  Sb4       1.0  0.46974503993988037  0.3838620185852051  0.3644843399524689  1.0000
