data_image0
_chemical_formula_structural       BEu3LaSb5
_chemical_formula_sum              "B1 Eu3 La1 Sb5"
_cell_length_a       7.278339982434261
_cell_length_b       7.257870829527351
_cell_length_c       7.165589332580566
_cell_angle_alpha    109.18245596182112
_cell_angle_beta     109.8746868024833
_cell_angle_gamma    108.23629747459022

_space_group_name_H-M_alt    "P 1"
_space_group_IT_number       1

loop_
  _space_group_symop_operation_xyz
  'x, y, z'

loop_
  _atom_site_type_symbol
  _atom_site_label
  _atom_site_symmetry_multiplicity
  _atom_site_fract_x
  _atom_site_fract_y
  _atom_site_fract_z
  _atom_site_occupancy
  B   B1        1.0  0.6269512176513672  0.8843459486961365  0.8034871816635132  1.0000
  Eu  Eu1       1.0  0.9544955492019653  0.5779809355735779  0.1578591614961625  1.0000
  Eu  Eu2       1.0  0.7444060444831848  0.40215161442756653  0.3761252164840699  1.0000
  Eu  Eu3       1.0  0.27622997760772705  0.09247219562530518  0.15237154066562653  1.0000
  La  La1       1.0  0.7488331198692322  0.8874136805534363  0.30286833643913275  1.0000
  Sb  Sb1       1.0  0.4567103981971741  0.5771721601486206  0.2897982299327851  1.0000
  Sb  Sb2       1.0  0.9603700041770935  0.08102916926145554  0.649065375328064  1.0000
  Sb  Sb3       1.0  0.4568164646625519  0.5792081356048584  0.14802688360214233  1.0000
  Sb  Sb4       1.0  0.2576662600040436  0.5772955417633057  0.90118807554245  1.0000
  Sb  Sb5       1.0  0.7827686667442322  0.08299432694911957  0.8025625348091125  1.0000
