data_image0
_chemical_formula_structural       B2Eu2ORuSb3Ti
_chemical_formula_sum              "B2 Eu2 O1 Ru1 Sb3 Ti1"
_cell_length_a       5.648720390324602
_cell_length_b       6.437033109273358
_cell_length_c       7.132780075073242
_cell_angle_alpha    106.22802102210323
_cell_angle_beta     103.71046688581407
_cell_angle_gamma    106.74568057932885

_space_group_name_H-M_alt    "P 1"
_space_group_IT_number       1

loop_
  _space_group_symop_operation_xyz
  'x, y, z'

loop_
  _atom_site_type_symbol
  _atom_site_label
  _atom_site_symmetry_multiplicity
  _atom_site_fract_x
  _atom_site_fract_y
  _atom_site_fract_z
  _atom_site_occupancy
  B   B1        1.0  0.23203793168067935  0.21188776195049286  0.5993314981460571  1.0000
  B   B2        1.0  0.46255785226821905  0.7766613960266113  0.09213905781507492  1.0000
  Eu  Eu1       1.0  0.9586284160614015  0.42945531010627747  0.0662340521812439  1.0000
  Eu  Eu2       1.0  0.2684653401374817  0.4880255460739136  0.5812094807624817  1.0000
  O   O1        1.0  0.06714461743831635  0.8071507811546326  0.8966227173805237  1.0000
  Ru  Ru1       1.0  0.42358157038688665  0.9566100239753723  0.40635451674461365  1.0000
  Sb  Sb1       1.0  0.6336863040924072  0.27489012479782104  0.4080571234226227  1.0000
  Sb  Sb2       1.0  0.9669900536537172  0.6618073582649231  0.20451906323432922  1.0000
  Sb  Sb3       1.0  0.7596861720085144  0.9473651051521301  0.7607554793357849  1.0000
  Ti  Ti1       1.0  0.4598276615142823  0.788049578666687  0.07074474543333054  1.0000
