data_image0
_chemical_formula_structural       Eu3O5SbSr
_chemical_formula_sum              "Eu3 O5 Sb1 Sr1"
_cell_length_a       6.518920255631314
_cell_length_b       6.663640309103409
_cell_length_c       6.247339725494385
_cell_angle_alpha    107.5597896861897
_cell_angle_beta     105.26483158366892
_cell_angle_gamma    113.52388138101661

_space_group_name_H-M_alt    "P 1"
_space_group_IT_number       1

loop_
  _space_group_symop_operation_xyz
  'x, y, z'

loop_
  _atom_site_type_symbol
  _atom_site_label
  _atom_site_symmetry_multiplicity
  _atom_site_fract_x
  _atom_site_fract_y
  _atom_site_fract_z
  _atom_site_occupancy
  Eu  Eu1       1.0  0.15214407444000244  0.29671651124954224  0.894690752029419  1.0000
  Eu  Eu2       1.0  0.618646502494812  0.2554253935813904  0.9133467674255371  1.0000
  Eu  Eu3       1.0  0.3728765547275543  0.015270243398845196  0.6315643191337585  1.0000
  O   O1        1.0  0.17722457647323608  0.0323018878698349  0.13826344907283783  1.0000
  O   O2        1.0  0.8888555765151978  0.5763167142868042  0.01749573089182377  1.0000
  O   O3        1.0  0.6731569766998291  0.3674348294734955  0.6416178345680237  1.0000
  O   O4        1.0  0.8489483594894409  0.018404792994260788  0.8906561136245728  1.0000
  O   O5        1.0  0.5291875004768372  0.4638369381427765  0.33594042062759405  1.0000
  Sb  Sb1       1.0  0.8706428408622742  0.7437775135040283  0.28530332446098333  1.0000
  Sr  Sr1       1.0  0.8794573545455933  0.011434604413807392  0.006097537465393579  1.0000
