data_image0
_chemical_formula_structural       BEu2O2Sb5
_chemical_formula_sum              "B1 Eu2 O2 Sb5"
_cell_length_a       6.339906558057852
_cell_length_b       6.753978662034949
_cell_length_c       7.129905700683594
_cell_angle_alpha    109.40985092425323
_cell_angle_beta     108.1188183519575
_cell_angle_gamma    104.3933021909428

_space_group_name_H-M_alt    "P 1"
_space_group_IT_number       1

loop_
  _space_group_symop_operation_xyz
  'x, y, z'

loop_
  _atom_site_type_symbol
  _atom_site_label
  _atom_site_symmetry_multiplicity
  _atom_site_fract_x
  _atom_site_fract_y
  _atom_site_fract_z
  _atom_site_occupancy
  B   B1        1.0  0.8366679549217224  0.9247226119041443  0.9012436270713806  1.0000
  Eu  Eu1       1.0  0.29524022340774536  0.42847272753715515  0.1482568085193634  1.0000
  Eu  Eu2       1.0  0.5351125597953796  0.602834939956665  0.8115850687026978  1.0000
  O   O1        1.0  0.017535191029310226  0.836711049079895  0.3458958864212036  1.0000
  O   O2        1.0  0.02632136084139347  0.08955059945583344  0.07015148550271988  1.0000
  Sb  Sb1       1.0  0.29658183455467224  0.2866414785385132  0.07449207454919815  1.0000
  Sb  Sb2       1.0  0.8097054362297058  0.08600617945194244  0.4412749409675598  1.0000
  Sb  Sb3       1.0  0.24386721849441528  0.7868655920028687  0.5359783172607422  1.0000
  Sb  Sb4       1.0  0.8021064400672913  0.4214259386062622  0.3945152163505554  1.0000
  Sb  Sb5       1.0  0.5391467809677124  0.6190139651298523  0.8401808142662048  1.0000
