data_image0
_chemical_formula_structural       Eu2O5Sb2Se
_chemical_formula_sum              "Eu2 O5 Sb2 Se1"
_cell_length_a       6.084214804906787
_cell_length_b       6.377381813499615
_cell_length_c       6.450839996337891
_cell_angle_alpha    111.00021359524065
_cell_angle_beta     107.89887380345843
_cell_angle_gamma    110.15555021872643

_space_group_name_H-M_alt    "P 1"
_space_group_IT_number       1

loop_
  _space_group_symop_operation_xyz
  'x, y, z'

loop_
  _atom_site_type_symbol
  _atom_site_label
  _atom_site_symmetry_multiplicity
  _atom_site_fract_x
  _atom_site_fract_y
  _atom_site_fract_z
  _atom_site_occupancy
  Eu  Eu1       1.0  0.44674155116081243  0.6270408034324646  0.17344088852405548  1.0000
  Eu  Eu2       1.0  0.33737266063690186  0.926506519317627  0.39097175002098083  1.0000
  O   O1        1.0  0.7016754746437073  0.5996497869491577  0.9515413045883179  1.0000
  O   O2        1.0  0.5925514101982117  0.7865908145904541  0.6861268281936646  1.0000
  O   O3        1.0  0.09893544018268585  0.11409670114517212  0.48867523670196533  1.0000
  O   O4        1.0  0.1013810858130455  0.13250403106212616  0.6843217611312866  1.0000
  O   O5        1.0  0.13173650205135345  0.30482953786849976  0.05044199898838997  1.0000
  Sb  Sb1       1.0  0.8861899375915528  0.8010268211364746  0.040368057787418365  1.0000
  Sb  Sb2       1.0  0.11350036412477495  0.2597149908542633  0.7026106119155884  1.0000
  Se  Se1       1.0  0.8586865067481996  0.13287562131881714  0.547545850276947  1.0000
