data_image0
_chemical_formula_structural       O6P2SZr3
_chemical_formula_sum              "O6 P2 S1 Zr3"
_cell_length_a       5.7504704970067495
_cell_length_b       5.7399558625147415
_cell_length_c       6.567595958709717
_cell_angle_alpha    65.23984045869152
_cell_angle_beta     61.77089180383211
_cell_angle_gamma    58.746966173376144

_space_group_name_H-M_alt    "P 1"
_space_group_IT_number       1

loop_
  _space_group_symop_operation_xyz
  'x, y, z'

loop_
  _atom_site_type_symbol
  _atom_site_label
  _atom_site_symmetry_multiplicity
  _atom_site_fract_x
  _atom_site_fract_y
  _atom_site_fract_z
  _atom_site_occupancy
  O   O1        1.0  0.47465774416923523  0.4730268120765686  0.07931184768676758  1.0000
  O   O2        1.0  0.7530900239944458  0.13323013484477997  0.5217824578285217  1.0000
  O   O3        1.0  0.6696410179138184  0.17830194532871246  0.1875662505626679  1.0000
  O   O4        1.0  0.14826592803001404  0.49559104442596436  0.05869758129119873  1.0000
  O   O5        1.0  0.7438194155693054  0.834311842918396  0.45155686140060425  1.0000
  O   O6        1.0  0.24900783598423004  0.9281675219535828  0.2568933963775635  1.0000
  P   P1        1.0  0.6008152961730957  0.4776163399219513  0.06456886231899261  1.0000
  P   P2        1.0  0.19521722197532654  0.6663999557495117  0.7381367087364197  1.0000
  S   S1        1.0  0.6011348366737366  0.6543266177177429  0.42931437492370605  1.0000
  Zr  Zr1       1.0  0.5713317394256592  0.3725111186504364  0.06400073319673538  1.0000
  Zr  Zr2       1.0  0.19853812456130981  0.6964685916900635  0.8488686680793762  1.0000
  Zr  Zr3       1.0  0.06497989594936371  0.10168662667274475  0.6873839497566223  1.0000
