data_image0
_chemical_formula_structural       HO5P3UZr2
_chemical_formula_sum              "H1 O5 P3 U1 Zr2"
_cell_length_a       5.777332610529697
_cell_length_b       5.990747114629322
_cell_length_c       6.577425956726074
_cell_angle_alpha    65.87636046838973
_cell_angle_beta     63.33920723197515
_cell_angle_gamma    60.09711924541878

_space_group_name_H-M_alt    "P 1"
_space_group_IT_number       1

loop_
  _space_group_symop_operation_xyz
  'x, y, z'

loop_
  _atom_site_type_symbol
  _atom_site_label
  _atom_site_symmetry_multiplicity
  _atom_site_fract_x
  _atom_site_fract_y
  _atom_site_fract_z
  _atom_site_occupancy
  H   H1        1.0  0.8947015404701233  0.7286064624786377  0.904615044593811  1.0000
  O   O1        1.0  0.3830133080482483  0.42561158537864685  0.1126541942358017  1.0000
  O   O2        1.0  0.12747974693775177  0.38749024271965027  0.6244676113128662  1.0000
  O   O3        1.0  0.6233749389648438  0.8915559649467468  0.5965701937675476  1.0000
  O   O4        1.0  0.7257422804832458  0.8761850595474243  0.2954859435558319  1.0000
  O   O5        1.0  0.9643673896789551  0.1157238706946373  0.1630232036113739  1.0000
  P   P1        1.0  0.1595606952905655  0.15669845044612885  0.4207233786582947  1.0000
  P   P2        1.0  0.823827862739563  0.47504565119743347  0.6336244344711304  1.0000
  P   P3        1.0  0.43183010816574097  0.40999510884284973  0.8265419602394104  1.0000
  U   U1        1.0  0.8100146651268005  0.8250197768211365  0.2579958140850067  1.0000
  Zr  Zr1       1.0  0.8377392292022705  0.3786395192146301  0.9611769914627075  1.0000
  Zr  Zr2       1.0  0.3699638545513153  0.948874294757843  0.14291495084762573  1.0000
