data_image0
_chemical_formula_structural       H2O6PZr3
_chemical_formula_sum              "H2 O6 P1 Zr3"
_cell_length_a       4.478893040639724
_cell_length_b       6.8359703287176075
_cell_length_c       6.962152004241943
_cell_angle_alpha    119.6190629242156
_cell_angle_beta     89.8359575081675
_cell_angle_gamma    90.93500286352115

_space_group_name_H-M_alt    "P 1"
_space_group_IT_number       1

loop_
  _space_group_symop_operation_xyz
  'x, y, z'

loop_
  _atom_site_type_symbol
  _atom_site_label
  _atom_site_symmetry_multiplicity
  _atom_site_fract_x
  _atom_site_fract_y
  _atom_site_fract_z
  _atom_site_occupancy
  H   H1        1.0  0.08068101108074188  0.4956297278404236  0.6485490202903748  1.0000
  H   H2        1.0  0.5925178527832031  0.2913404703140259  0.5235403180122375  1.0000
  O   O1        1.0  0.5807183384895325  0.23184701800346375  0.7172569632530212  1.0000
  O   O2        1.0  0.07831710577011108  0.43168410658836365  0.7376253604888916  1.0000
  O   O3        1.0  0.5799708962440491  0.5131261348724365  0.3991219997406006  1.0000
  O   O4        1.0  0.08875949680805206  0.5754768252372742  0.2778100073337555  1.0000
  O   O5        1.0  0.06875723600387573  0.7914748787879944  0.20577172935008997  1.0000
  O   O6        1.0  0.5620120763778687  0.025328025221824646  0.25347697734832764  1.0000
  P   P1        1.0  0.069368377327919  0.9723615050315857  0.3327336013317108  1.0000
  Zr  Zr1       1.0  0.5874443650245667  0.02298397570848465  0.8068539500236511  1.0000
  Zr  Zr2       1.0  0.3994334638118744  0.7840123772621155  0.12415108829736717  1.0000
  Zr  Zr3       1.0  0.07699014246463776  0.8045701384544373  0.6085984110832214  1.0000
