data_image0
_chemical_formula_structural       H2O5P3SZr
_chemical_formula_sum              "H2 O5 P3 S1 Zr1"
_cell_length_a       5.404646625787639
_cell_length_b       5.766835756232281
_cell_length_c       6.879291534423828
_cell_angle_alpha    66.97565576539783
_cell_angle_beta     66.26910006824124
_cell_angle_gamma    60.86398075559801

_space_group_name_H-M_alt    "P 1"
_space_group_IT_number       1

loop_
  _space_group_symop_operation_xyz
  'x, y, z'

loop_
  _atom_site_type_symbol
  _atom_site_label
  _atom_site_symmetry_multiplicity
  _atom_site_fract_x
  _atom_site_fract_y
  _atom_site_fract_z
  _atom_site_occupancy
  H   H1        1.0  0.2181999385356903  0.10106227546930313  0.45221400260925293  1.0000
  H   H2        1.0  0.44672703742980957  0.7008682489395142  0.7987468838691711  1.0000
  O   O1        1.0  0.9092848300933838  0.4427061080932617  0.9570993781089783  1.0000
  O   O2        1.0  0.14956876635551453  0.1130819022655487  0.6513217687606812  1.0000
  O   O3        1.0  0.356004536151886  0.34022900462150574  0.2832814157009125  1.0000
  O   O4        1.0  0.9065219759941101  0.8767437934875488  0.08815769851207733  1.0000
  O   O5        1.0  0.4195641577243805  0.3977639079093933  0.4872305989265442  1.0000
  P   P1        1.0  0.12321224808692932  0.5954856872558594  0.7692990899085999  1.0000
  P   P2        1.0  0.7839152216911316  0.943583607673645  0.5983259677886963  1.0000
  P   P3        1.0  0.09467589110136032  0.29317936301231384  0.2765084207057953  1.0000
  S   S1        1.0  0.5714735984802246  0.3057954013347626  0.7873861789703369  1.0000
  Zr  Zr1       1.0  0.7593827843666077  0.9495983123779297  0.3072888255119324  1.0000
