data_image0
_chemical_formula_structural       HO6P2Zr3
_chemical_formula_sum              "H1 O6 P2 Zr3"
_cell_length_a       3.8020381023781944
_cell_length_b       6.5583468044213085
_cell_length_c       6.81264591217041
_cell_angle_alpha    119.89418245461769
_cell_angle_beta     92.05696454732563
_cell_angle_gamma    89.46464482152408

_space_group_name_H-M_alt    "P 1"
_space_group_IT_number       1

loop_
  _space_group_symop_operation_xyz
  'x, y, z'

loop_
  _atom_site_type_symbol
  _atom_site_label
  _atom_site_symmetry_multiplicity
  _atom_site_fract_x
  _atom_site_fract_y
  _atom_site_fract_z
  _atom_site_occupancy
  H   H1        1.0  0.8812906742095947  0.20675931870937347  0.6886836886405945  1.0000
  O   O1        1.0  0.3633800446987152  0.35624366998672485  0.761686384677887  1.0000
  O   O2        1.0  0.8833756446838379  0.8988880515098572  0.3752611875534057  1.0000
  O   O3        1.0  0.907537579536438  0.9278671741485596  0.9725294709205627  1.0000
  O   O4        1.0  0.9070513248443604  0.7261477112770081  0.7400960922241211  1.0000
  O   O5        1.0  0.8937391638755798  0.5986402034759521  0.1330716460943222  1.0000
  O   O6        1.0  0.37977901101112366  0.6132867336273193  0.4631679356098175  1.0000
  P   P1        1.0  0.8680933117866516  0.12159495800733566  0.20204795897006989  1.0000
  P   P2        1.0  0.3911028802394867  0.27960553765296936  0.45100098848342896  1.0000
  Zr  Zr1       1.0  0.38863906264305115  0.7166860699653625  0.25532293319702143  1.0000
  Zr  Zr2       1.0  0.4006704092025757  0.9217532277107239  0.12156397104263299  1.0000
  Zr  Zr3       1.0  0.8794922828674316  0.280579149723053  0.4584634304046631  1.0000
