data_image0
_chemical_formula_structural       H2O6P2PbZr
_chemical_formula_sum              "H2 O6 P2 Pb1 Zr1"
_cell_length_a       5.841855323389887
_cell_length_b       6.042514586959424
_cell_length_c       5.851790904998779
_cell_angle_alpha    64.0608464641863
_cell_angle_beta     64.35547021119854
_cell_angle_gamma    61.81930873571849

_space_group_name_H-M_alt    "P 1"
_space_group_IT_number       1

loop_
  _space_group_symop_operation_xyz
  'x, y, z'

loop_
  _atom_site_type_symbol
  _atom_site_label
  _atom_site_symmetry_multiplicity
  _atom_site_fract_x
  _atom_site_fract_y
  _atom_site_fract_z
  _atom_site_occupancy
  H   H1        1.0  0.5441114902496338  0.18821394443511963  0.9318629503250121  1.0000
  H   H2        1.0  0.011362024582922459  0.72476726770401  0.22600199282169345  1.0000
  O   O1        1.0  0.3596368432044983  0.6060274839401245  0.7245248556137085  1.0000
  O   O2        1.0  0.05327589809894562  0.4131384491920471  0.22853264212608335  1.0000
  O   O3        1.0  0.5181850790977478  0.24303065240383148  0.15161177515983582  1.0000
  O   O4        1.0  0.6220790147781372  0.47869643568992615  0.4658014774322509  1.0000
  O   O5        1.0  0.8302621245384216  0.12134990096092224  0.7353205680847168  1.0000
  O   O6        1.0  0.4997983574867248  0.4770357608795166  0.7346183657646179  1.0000
  P   P1        1.0  0.25620129704475403  0.6241586804389954  0.5401745438575745  1.0000
  P   P2        1.0  0.7451211810112  0.9487448334693909  0.21844556927680966  1.0000
  Pb  Pb1       1.0  0.1936892718076706  0.40045174956321716  0.4249529838562011  1.0000
  Zr  Zr1       1.0  0.9811336994171141  0.21706463396549225  0.03176146000623703  1.0000
