data_image0
_chemical_formula_structural       CoFeI2Sc2
_chemical_formula_sum              "Co1 Fe1 I2 Sc2"
_cell_length_a       5.232516531427577
_cell_length_b       4.583456511229584
_cell_length_c       5.801751136779785
_cell_angle_alpha    87.67955251006391
_cell_angle_beta     84.65536304152877
_cell_angle_gamma    80.43272473795083

_space_group_name_H-M_alt    "P 1"
_space_group_IT_number       1

loop_
  _space_group_symop_operation_xyz
  'x, y, z'

loop_
  _atom_site_type_symbol
  _atom_site_label
  _atom_site_symmetry_multiplicity
  _atom_site_fract_x
  _atom_site_fract_y
  _atom_site_fract_z
  _atom_site_occupancy
  Co  Co1       1.0  0.6321830749511719  0.7257477641105652  0.5368877649307251  1.0000
  Fe  Fe1       1.0  0.6296396255493164  0.7672977447509766  0.09975317120552063  1.0000
  I   I1        1.0  0.11671894788742065  0.8869479298591614  0.49117472767829895  1.0000
  I   I2        1.0  0.6066669225692749  0.8425469398498535  0.08741720020771027  1.0000
  Sc  Sc1       1.0  0.1362343728542328  0.2352976053953171  0.9406172037124634  1.0000
  Sc  Sc2       1.0  0.11126405745744702  0.9810716509819032  0.08350338786840439  1.0000
