data_image0
_chemical_formula_structural       Fe4NiTe
_chemical_formula_sum              "Fe4 Ni1 Te1"
_cell_length_a       3.195802608218077
_cell_length_b       3.2935662199731666
_cell_length_c       5.675740718841553
_cell_angle_alpha    92.3134793885439
_cell_angle_beta     88.22128465413928
_cell_angle_gamma    94.63338170394731

_space_group_name_H-M_alt    "P 1"
_space_group_IT_number       1

loop_
  _space_group_symop_operation_xyz
  'x, y, z'

loop_
  _atom_site_type_symbol
  _atom_site_label
  _atom_site_symmetry_multiplicity
  _atom_site_fract_x
  _atom_site_fract_y
  _atom_site_fract_z
  _atom_site_occupancy
  Fe  Fe1       1.0  0.7326616048812866  0.48927411437034607  0.7199600338935852  1.0000
  Fe  Fe2       1.0  0.729833722114563  0.6386718153953552  0.796483814716339  1.0000
  Fe  Fe3       1.0  0.2148241102695465  0.2523207366466522  0.8456960916519164  1.0000
  Fe  Fe4       1.0  0.21062186360359192  0.3791493773460388  0.1676228791475296  1.0000
  Ni  Ni1       1.0  0.20585520565509796  0.4077090620994568  0.6698708534240723  1.0000
  Te  Te1       1.0  0.21227353811264038  0.3618919551372528  0.523185670375824  1.0000
