data_image0
_chemical_formula_structural       IPSc4
_chemical_formula_sum              "I1 P1 Sc4"
_cell_length_a       4.90661415647627
_cell_length_b       5.49348844814466
_cell_length_c       6.308346271514893
_cell_angle_alpha    75.06945792190326
_cell_angle_beta     69.73913169870364
_cell_angle_gamma    64.7911393951729

_space_group_name_H-M_alt    "P 1"
_space_group_IT_number       1

loop_
  _space_group_symop_operation_xyz
  'x, y, z'

loop_
  _atom_site_type_symbol
  _atom_site_label
  _atom_site_symmetry_multiplicity
  _atom_site_fract_x
  _atom_site_fract_y
  _atom_site_fract_z
  _atom_site_occupancy
  I   I1        1.0  0.4340013563632965  0.45620837807655334  0.05340625718235969  1.0000
  P   P1        1.0  0.16074229776859283  0.03501857817173004  0.7373806834220885  1.0000
  Sc  Sc1       1.0  0.09909876435995102  0.20137712359428406  0.3002888858318329  1.0000
  Sc  Sc2       1.0  0.9307235479354858  0.5633941292762756  0.9181337356567382  1.0000
  Sc  Sc3       1.0  0.8947156071662903  0.749426007270813  0.5541532635688782  1.0000
  Sc  Sc4       1.0  0.4418208599090576  0.1925206184387207  0.9731470346450805  1.0000
