data_image0
_chemical_formula_structural       CoLaP2S2Sb3Sc
_chemical_formula_sum              "Co1 La1 P2 S2 Sb3 Sc1"
_cell_length_a       7.079881579950819
_cell_length_b       7.48758238832179
_cell_length_c       7.945450305938721
_cell_angle_alpha    113.68865151738768
_cell_angle_beta     109.28124628398264
_cell_angle_gamma    90.18836250728198

_space_group_name_H-M_alt    "P 1"
_space_group_IT_number       1

loop_
  _space_group_symop_operation_xyz
  'x, y, z'

loop_
  _atom_site_type_symbol
  _atom_site_label
  _atom_site_symmetry_multiplicity
  _atom_site_fract_x
  _atom_site_fract_y
  _atom_site_fract_z
  _atom_site_occupancy
  Co  Co1       1.0  0.6560820937156677  0.7574978470802307  0.4422688782215118  1.0000
  La  La1       1.0  0.07032492756843568  0.23230507969856265  0.4073880016803741  1.0000
  P   P1        1.0  0.19721281528472903  0.9438118338584901  0.9085347056388854  1.0000
  P   P2        1.0  0.6895514130592346  0.07236097007989883  0.17421267926692963  1.0000
  S   S1        1.0  0.2648639380931854  0.6379815936088562  0.5057401061058044  1.0000
  S   S2        1.0  0.26660478115081787  0.30374637246131897  0.17152714729309082  1.0000
  Sb  Sb1       1.0  0.48970577120780945  0.1332540065050125  0.5007378458976746  1.0000
  Sb  Sb2       1.0  0.18721967935562134  0.053896788507699966  0.2371621876955032  1.0000
  Sb  Sb3       1.0  0.9843658208847046  0.7962681651115417  0.6999549269676208  1.0000
  Sc  Sc1       1.0  0.9363319873809814  0.7943716645240784  0.21806889772415158  1.0000
