data_image0
_chemical_formula_structural       Fe4RhS3SbTb
_chemical_formula_sum              "Fe4 Rh1 S3 Sb1 Tb1"
_cell_length_a       5.588861984216694
_cell_length_b       7.628860566359365
_cell_length_c       7.539621829986572
_cell_angle_alpha    118.36155135736519
_cell_angle_beta     91.90342310678489
_cell_angle_gamma    90.04885307264743

_space_group_name_H-M_alt    "P 1"
_space_group_IT_number       1

loop_
  _space_group_symop_operation_xyz
  'x, y, z'

loop_
  _atom_site_type_symbol
  _atom_site_label
  _atom_site_symmetry_multiplicity
  _atom_site_fract_x
  _atom_site_fract_y
  _atom_site_fract_z
  _atom_site_occupancy
  Fe  Fe1       1.0  0.6686758995056152  0.0868338942527771  0.37028551101684565  1.0000
  Fe  Fe2       1.0  0.16919025778770447  0.5133768916130066  0.862758159637451  1.0000
  Fe  Fe3       1.0  0.6824692487716675  0.8210785388946533  0.1255592852830886  1.0000
  Fe  Fe4       1.0  0.18888799846172333  0.7269080281257629  0.4449543058872222  1.0000
  Rh  Rh1       1.0  0.46065402030944824  0.5872668027877808  0.14180780947208396  1.0000
  S   S1        1.0  0.698171854019165  0.31224575638771057  0.37886381149291987  1.0000
  S   S2        1.0  0.19099408388137817  0.09926334023475647  0.6183593273162841  1.0000
  S   S3        1.0  0.17761771380901337  0.6036782264709473  0.45947197079658497  1.0000
  Sb  Sb1       1.0  0.9194804430007935  0.2396058589220047  0.8866912126541137  1.0000
  Tb  Tb1       1.0  0.9299513101577759  0.06512061506509781  0.8907570242881774  1.0000
