data_image0
_chemical_formula_structural       Rh2S2Sb3Sm3
_chemical_formula_sum              "Rh2 S2 Sb3 Sm3"
_cell_length_a       5.603727141442016
_cell_length_b       6.788538732757434
_cell_length_c       7.373116970062256
_cell_angle_alpha    116.38841679232246
_cell_angle_beta     107.93768954400872
_cell_angle_gamma    90.21321825272574

_space_group_name_H-M_alt    "P 1"
_space_group_IT_number       1

loop_
  _space_group_symop_operation_xyz
  'x, y, z'

loop_
  _atom_site_type_symbol
  _atom_site_label
  _atom_site_symmetry_multiplicity
  _atom_site_fract_x
  _atom_site_fract_y
  _atom_site_fract_z
  _atom_site_occupancy
  Rh  Rh1       1.0  0.8077134490013123  0.7721152901649475  0.8596939444541931  1.0000
  Rh  Rh2       1.0  0.8922784924507141  0.22070604562759402  0.3658311367034912  1.0000
  S   S1        1.0  0.6790403127670288  0.7023260593414307  0.5396113395690919  1.0000
  S   S2        1.0  0.4014734625816345  0.034917693585157394  0.5591236352920532  1.0000
  Sb  Sb1       1.0  0.5772020816802979  0.38093677163124084  0.1035533994436264  1.0000
  Sb  Sb2       1.0  0.16933433711528778  0.22575476765632632  0.11361951380968095  1.0000
  Sb  Sb3       1.0  0.4130017161369324  0.22618792951107028  0.372404009103775  1.0000
  Sm  Sm1       1.0  0.3312782347202301  0.8608270883560182  0.3488252758979798  1.0000
  Sm  Sm2       1.0  0.7106893062591553  0.21125423908233645  0.22504772245883942  1.0000
  Sm  Sm3       1.0  0.8117849826812744  0.3593842387199402  0.8560156226158142  1.0000
