data_image0
_chemical_formula_structural       HRhS3Sb3Sm2
_chemical_formula_sum              "H1 Rh1 S3 Sb3 Sm2"
_cell_length_a       6.211000208240106
_cell_length_b       6.485969758942908
_cell_length_c       7.272656440734863
_cell_angle_alpha    109.39373398596301
_cell_angle_beta     109.47322295303032
_cell_angle_gamma    96.56923945752378

_space_group_name_H-M_alt    "P 1"
_space_group_IT_number       1

loop_
  _space_group_symop_operation_xyz
  'x, y, z'

loop_
  _atom_site_type_symbol
  _atom_site_label
  _atom_site_symmetry_multiplicity
  _atom_site_fract_x
  _atom_site_fract_y
  _atom_site_fract_z
  _atom_site_occupancy
  H   H1        1.0  0.17609988152980807  0.8066595196723939  0.8800753355026245  1.0000
  Rh  Rh1       1.0  0.8847792148590088  0.022531112655997276  0.512992799282074  1.0000
  S   S1        1.0  0.6620144844055176  0.31097981333732605  0.6223682761192322  1.0000
  S   S2        1.0  0.05775912851095203  0.9240776300430299  0.11448851227760315  1.0000
  S   S3        1.0  0.36380240321159363  0.3591174781322479  0.2937007546424866  1.0000
  Sb  Sb1       1.0  0.4968057870864868  0.5288451313972473  0.016202427446842194  1.0000
  Sb  Sb2       1.0  0.8756174445152283  0.1674852818250656  0.767856776714325  1.0000
  Sb  Sb3       1.0  0.4951249361038208  0.03155229240655899  0.9851500988006592  1.0000
  Sm  Sm1       1.0  0.9190065860748291  0.027754358947277073  0.48537394404411316  1.0000
  Sm  Sm2       1.0  0.8186062574386597  0.5722188353538513  0.8828893303871155  1.0000
