data_image0
_chemical_formula_structural       Fe3RhS2Sb3Sm
_chemical_formula_sum              "Fe3 Rh1 S2 Sb3 Sm1"
_cell_length_a       6.153674819455767
_cell_length_b       6.596652185003956
_cell_length_c       6.428262233734131
_cell_angle_alpha    117.19799275546137
_cell_angle_beta     114.65282591380641
_cell_angle_gamma    90.24728524528615

_space_group_name_H-M_alt    "P 1"
_space_group_IT_number       1

loop_
  _space_group_symop_operation_xyz
  'x, y, z'

loop_
  _atom_site_type_symbol
  _atom_site_label
  _atom_site_symmetry_multiplicity
  _atom_site_fract_x
  _atom_site_fract_y
  _atom_site_fract_z
  _atom_site_occupancy
  Fe  Fe1       1.0  0.5486364364624023  0.34484437108039856  0.792526125907898  1.0000
  Fe  Fe2       1.0  0.03842230141162872  0.34733012318611145  0.6761518120765686  1.0000
  Fe  Fe3       1.0  0.07052699476480484  0.08428984135389328  0.15419892966747284  1.0000
  Rh  Rh1       1.0  0.7813777923583983  0.033769331872463226  0.7971460819244385  1.0000
  S   S1        1.0  0.08887850493192673  0.858944833278656  0.17706964910030365  1.0000
  S   S2        1.0  0.5324938893318176  0.34799689054489136  0.30811169743537903  1.0000
  Sb  Sb1       1.0  0.1650126725435257  0.6556017398834229  0.8077678084373474  1.0000
  Sb  Sb2       1.0  0.7775670886039733  0.84051513671875  0.8015509247779846  1.0000
  Sb  Sb3       1.0  0.5534305572509766  0.3609085977077484  0.3077943027019501  1.0000
  Sm  Sm1       1.0  0.012464554980397223  0.7841910719871521  0.2962975203990937  1.0000
