data_image0
_chemical_formula_structural       I2La4PS2Si
_chemical_formula_sum              "I2 La4 P1 S2 Si1"
_cell_length_a       5.50236179582316
_cell_length_b       8.070824252594106
_cell_length_c       9.294370651245117
_cell_angle_alpha    114.95359477775771
_cell_angle_beta     102.43707420169329
_cell_angle_gamma    88.67997810318592

_space_group_name_H-M_alt    "P 1"
_space_group_IT_number       1

loop_
  _space_group_symop_operation_xyz
  'x, y, z'

loop_
  _atom_site_type_symbol
  _atom_site_label
  _atom_site_symmetry_multiplicity
  _atom_site_fract_x
  _atom_site_fract_y
  _atom_site_fract_z
  _atom_site_occupancy
  I   I1        1.0  0.23413120210170743  0.9217962622642517  0.26773664355278015  1.0000
  I   I2        1.0  0.34131351113319397  0.402630090713501  0.9992436170578003  1.0000
  La  La1       1.0  0.5892794132232666  0.9377771019935608  0.6113721132278442  1.0000
  La  La2       1.0  0.2524566352367401  0.10886158794164658  0.8369483351707458  1.0000
  La  La3       1.0  0.3462526202201843  0.41089028120040894  0.11265204846858978  1.0000
  La  La4       1.0  0.8549925684928893  0.41107529401779175  0.9309819936752319  1.0000
  P   P1        1.0  0.8593721389770507  0.4153066575527191  0.5923736095428467  1.0000
  S   S1        1.0  0.09628715366125107  0.9889165163040161  0.6557117700576782  1.0000
  S   S2        1.0  0.7324122786521912  0.9076074361801147  0.26490268111228943  1.0000
  Si  Si1       1.0  0.3410552144050598  0.9072775840759277  0.98805171251297  1.0000
