data_image0
_chemical_formula_structural       I2La4Lu3S
_chemical_formula_sum              "I2 La4 Lu3 S1"
_cell_length_a       6.060603412453306
_cell_length_b       7.1322731125149375
_cell_length_c       8.343430519104004
_cell_angle_alpha    113.46308830974169
_cell_angle_beta     115.45885833925726
_cell_angle_gamma    89.24753410949658

_space_group_name_H-M_alt    "P 1"
_space_group_IT_number       1

loop_
  _space_group_symop_operation_xyz
  'x, y, z'

loop_
  _atom_site_type_symbol
  _atom_site_label
  _atom_site_symmetry_multiplicity
  _atom_site_fract_x
  _atom_site_fract_y
  _atom_site_fract_z
  _atom_site_occupancy
  I   I1        1.0  0.058074578642845154  0.3471158444881439  0.9754691123962402  1.0000
  I   I2        1.0  0.768232524394989  0.31252914667129517  0.7115082144737244  1.0000
  La  La1       1.0  0.8725826740264893  0.34664294123649597  0.2044994831085205  1.0000
  La  La2       1.0  0.7928292155265808  0.8456177711486816  0.10917836427688599  1.0000
  La  La3       1.0  0.6956347823143005  0.15683577954769135  0.11053723096847534  1.0000
  La  La4       1.0  0.5022244453430176  0.5269550085067749  0.9792107939720154  1.0000
  Lu  Lu1       1.0  0.6027123928070068  0.33727017045021057  0.48057934641838074  1.0000
  Lu  Lu2       1.0  0.21334776282310486  0.09327128529548645  0.2755715250968933  1.0000
  Lu  Lu3       1.0  0.3052886128425598  0.8023480772972107  0.710478663444519  1.0000
  S   S1        1.0  0.5366936326026917  0.8371278643608093  0.9655377268791199  1.0000
