data_image0
_chemical_formula_structural       I3La4NP2
_chemical_formula_sum              "I3 La4 N1 P2"
_cell_length_a       6.427192580897552
_cell_length_b       7.956672853594723
_cell_length_c       8.576655387878418
_cell_angle_alpha    117.37784188427561
_cell_angle_beta     110.31623024011108
_cell_angle_gamma    89.746798247062

_space_group_name_H-M_alt    "P 1"
_space_group_IT_number       1

loop_
  _space_group_symop_operation_xyz
  'x, y, z'

loop_
  _atom_site_type_symbol
  _atom_site_label
  _atom_site_symmetry_multiplicity
  _atom_site_fract_x
  _atom_site_fract_y
  _atom_site_fract_z
  _atom_site_occupancy
  I   I1        1.0  0.23087380826473236  0.966499924659729  0.9649643898010255  1.0000
  I   I2        1.0  0.6459919214248657  0.45750540494918823  0.6363120079040527  1.0000
  I   I3        1.0  0.20942994952201843  0.4757925570011139  0.01426668930798769  1.0000
  La  La1       1.0  0.3256465196609497  0.26893773674964905  0.41623470187187195  1.0000
  La  La2       1.0  0.9829334616661072  0.8056064248085022  0.7819991707801819  1.0000
  La  La3       1.0  0.6325066685676575  0.07445812225341797  0.6653674840927124  1.0000
  La  La4       1.0  0.5011472105979919  0.7990211844444275  0.10400501638650894  1.0000
  N   N1        1.0  0.7342912554740906  0.633184015750885  0.790055513381958  1.0000
  P   P1        1.0  0.21083848178386688  0.5604218244552612  0.5111912488937378  1.0000
  P   P2        1.0  0.4755811095237732  0.8055841326713562  0.18985748291015625  1.0000
