data_image0
_chemical_formula_structural       I5La5
_chemical_formula_sum              "I5 La5"
_cell_length_a       7.47780011224182
_cell_length_b       8.71593613728591
_cell_length_c       9.133137702941895
_cell_angle_alpha    117.57069995134434
_cell_angle_beta     114.38452842309903
_cell_angle_gamma    90.94126116851537

_space_group_name_H-M_alt    "P 1"
_space_group_IT_number       1

loop_
  _space_group_symop_operation_xyz
  'x, y, z'

loop_
  _atom_site_type_symbol
  _atom_site_label
  _atom_site_symmetry_multiplicity
  _atom_site_fract_x
  _atom_site_fract_y
  _atom_site_fract_z
  _atom_site_occupancy
  I   I1        1.0  0.5957916378974915  0.3582623600959778  0.3069748878479004  1.0000
  I   I2        1.0  0.1433497667312622  0.5399156212806702  0.6482095122337341  1.0000
  I   I3        1.0  0.12139865010976793  0.8746013045310974  0.4039598405361176  1.0000
  I   I4        1.0  0.13844439387321472  0.7179645895957947  0.6245951056480408  1.0000
  I   I5        1.0  0.6089349985122681  0.35918205976486206  0.42853185534477234  1.0000
  La  La1       1.0  0.8208869695663452  0.6024259328842163  0.894435703754425  1.0000
  La  La2       1.0  0.35933366417884827  0.24222342669963837  0.3479498624801636  1.0000
  La  La3       1.0  0.09884234517812729  0.3460882306098938  0.41483941674232483  1.0000
  La  La4       1.0  0.7978051900863647  0.06679484248161316  0.9987396597862244  1.0000
  La  La5       1.0  0.8589003086090088  0.6347151398658752  0.6798788905143738  1.0000
