data_image0
_chemical_formula_structural       I4La6
_chemical_formula_sum              "I4 La6"
_cell_length_a       6.651964176187184
_cell_length_b       8.937612987353537
_cell_length_c       9.57336711883545
_cell_angle_alpha    121.139768734482
_cell_angle_beta     101.85796861864281
_cell_angle_gamma    89.21580828784002

_space_group_name_H-M_alt    "P 1"
_space_group_IT_number       1

loop_
  _space_group_symop_operation_xyz
  'x, y, z'

loop_
  _atom_site_type_symbol
  _atom_site_label
  _atom_site_symmetry_multiplicity
  _atom_site_fract_x
  _atom_site_fract_y
  _atom_site_fract_z
  _atom_site_occupancy
  I   I1        1.0  0.28727012872695923  0.33706873655319214  0.8943988084793091  1.0000
  I   I2        1.0  0.7143378257751465  0.6118800044059753  0.6517823338508606  1.0000
  I   I3        1.0  0.47247031331062317  0.8477054834365845  0.4555662274360657  1.0000
  I   I4        1.0  0.9565948843955994  0.8852993249893188  0.16241754591465005  1.0000
  La  La1       1.0  0.7080641388893127  0.8425619006156921  0.38042718172073364  1.0000
  La  La2       1.0  0.20584294199943542  0.026250310242176056  0.3460293114185333  1.0000
  La  La3       1.0  0.200753852725029  0.09448379278182983  0.6567267179489136  1.0000
  La  La4       1.0  0.03196091577410698  0.5043274164199829  0.32607191801071167  1.0000
  La  La5       1.0  0.3935694694519043  0.5527138113975525  0.3393784463405609  1.0000
  La  La6       1.0  0.6983709335327148  0.3566102981567383  0.7689993381500244  1.0000
