data_image0
_chemical_formula_structural       I4La6
_chemical_formula_sum              "I4 La6"
_cell_length_a       5.933168164103702
_cell_length_b       9.167275365909964
_cell_length_c       9.395641326904297
_cell_angle_alpha    120.52223520778637
_cell_angle_beta     88.37492482400258
_cell_angle_gamma    90.07475698942378

_space_group_name_H-M_alt    "P 1"
_space_group_IT_number       1

loop_
  _space_group_symop_operation_xyz
  'x, y, z'

loop_
  _atom_site_type_symbol
  _atom_site_label
  _atom_site_symmetry_multiplicity
  _atom_site_fract_x
  _atom_site_fract_y
  _atom_site_fract_z
  _atom_site_occupancy
  I   I1        1.0  0.4399529695510864  0.5422749519348145  0.5764774084091187  1.0000
  I   I2        1.0  0.4366609454154968  0.7150667309761047  0.9195623397827148  1.0000
  I   I3        1.0  0.46172183752059937  0.7198813557624817  0.2922218441963196  1.0000
  I   I4        1.0  0.44379156827926636  0.24977001547813416  0.832077145576477  1.0000
  La  La1       1.0  0.9569251537322998  0.18261191248893738  0.7973257303237915  1.0000
  La  La2       1.0  0.9542654156684875  0.010732481256127357  0.8026264309883118  1.0000
  La  La3       1.0  0.4319865107536316  0.9816464185714722  0.3960680663585663  1.0000
  La  La4       1.0  0.9411270022392273  0.5250570178031921  0.032662637531757355  1.0000
  La  La5       1.0  0.9370800256729126  0.7456712126731873  0.5645665526390076  1.0000
  La  La6       1.0  0.4453643560409546  0.7637269496917725  0.26981088519096375  1.0000
